#------------------------------------------------------------------------------
#$Date: 2017-11-01 05:15:59 +0200 (Wed, 01 Nov 2017) $
#$Revision: 202456 $
#$URL: file:///home/coder/svn-repositories/cod/cif/7/22/94/7229437.cif $
#------------------------------------------------------------------------------
#
# This file is available in the Crystallography Open Database (COD),
# http://www.crystallography.net/
#
# All data on this site have been placed in the public domain by the
# contributors.
#
data_7229437
loop_
_publ_author_name
'Liu, Jian-Qiang'
'Lu, Lu'
'Wu, Jian'
'Li, Baohong'
'SINGH, AMITA'
'Kumar, Abhinav'
'Wang, Jun'
'Batten, Stuart R.'
_publ_section_title
;
 An uncommon 3D 3,3,4,8-c Cd(II) metal-organic framework for highly
 efficient luminescent sensing and organic dye adsorption: experimental
 and theoretical insight
;
_journal_name_full               CrystEngComm
_journal_paper_doi               10.1039/C7CE01638G
_journal_year                    2017
_chemical_formula_moiety         '0.5(C176 H80 Cd10 O64)'
_chemical_formula_sum            'C88 H40 Cd5 O32'
_chemical_formula_weight         2171.20
_space_group_crystal_system      monoclinic
_space_group_IT_number           14
_space_group_name_Hall           '-P 2ybc'
_space_group_name_H-M_alt        'P 1 21/c 1'
_symmetry_space_group_name_Hall  '-P 2ybc'
_symmetry_space_group_name_H-M   'P 1 21/c 1'
_atom_sites_solution_hydrogens   geom
_atom_sites_solution_primary     dual
_audit_creation_date             2017-08-21
_audit_creation_method
;
Olex2 1.2
(compiled 2017.07.20 svn.r3457 for OlexSys, GUI svn.r5381)
;
_audit_update_record
;
2017-08-23 deposited with the CCDC.
2017-10-30 downloaded from the CCDC.
;
_cell_angle_alpha                90
_cell_angle_beta                 101.2350(10)
_cell_angle_gamma                90
_cell_formula_units_Z            2
_cell_length_a                   15.3011(10)
_cell_length_b                   18.6188(12)
_cell_length_c                   27.6436(18)
_cell_measurement_reflns_used    9960
_cell_measurement_temperature    100(2)
_cell_measurement_theta_max      26.395
_cell_measurement_theta_min      2.313
_cell_volume                     7724.4(9)
_computing_cell_refinement       'SAINT v8.34A (Bruker, 2013)'
_computing_data_reduction        'SAINT v8.34A (Bruker, 2013)'
_computing_molecular_graphics    'Olex2 (Dolomanov et al., 2009)'
_computing_publication_material  'Olex2 (Dolomanov et al., 2009)'
_computing_structure_refinement  'ShelXL (Sheldrick, 2015)'
_computing_structure_solution    'ShelXT (Sheldrick, 2015)'
_diffrn_ambient_temperature      100.15
_diffrn_measured_fraction_theta_full 0.999
_diffrn_measured_fraction_theta_max 0.978
_diffrn_measurement_device_type  'CCD area detector'
_diffrn_measurement_method       'phi and omega scans'
_diffrn_radiation_monochromator  graphite
_diffrn_radiation_type           MoK\a
_diffrn_radiation_wavelength     0.71073
_diffrn_reflns_av_R_equivalents  0.0472
_diffrn_reflns_av_unetI/netI     0.0671
_diffrn_reflns_Laue_measured_fraction_full 0.999
_diffrn_reflns_Laue_measured_fraction_max 0.978
_diffrn_reflns_limit_h_max       19
_diffrn_reflns_limit_h_min       -19
_diffrn_reflns_limit_k_max       23
_diffrn_reflns_limit_k_min       -24
_diffrn_reflns_limit_l_max       17
_diffrn_reflns_limit_l_min       -36
_diffrn_reflns_number            46064
_diffrn_reflns_point_group_measured_fraction_full 0.999
_diffrn_reflns_point_group_measured_fraction_max 0.978
_diffrn_reflns_theta_full        25.242
_diffrn_reflns_theta_max         27.598
_diffrn_reflns_theta_min         1.502
_exptl_absorpt_coefficient_mu    0.724
_exptl_absorpt_correction_T_max  0.7456
_exptl_absorpt_correction_T_min  0.6073
_exptl_absorpt_correction_type   multi-scan
_exptl_absorpt_process_details
;
SADABS-2014/3 (Bruker,2014/3) was used for absorption correction.
wR2(int) was 0.0794 before and 0.0445 after correction.
The Ratio of minimum to maximum transmission is 0.8145.
The \l/2 correction factor is 0.00150.
;
_exptl_crystal_colour            colorless
_exptl_crystal_density_diffrn    0.933
_exptl_crystal_description       block
_exptl_crystal_F_000             2128
_exptl_crystal_size_max          0.17
_exptl_crystal_size_mid          0.14
_exptl_crystal_size_min          0.11
_refine_diff_density_max         2.165
_refine_diff_density_min         -0.922
_refine_diff_density_rms         0.148
_refine_ls_extinction_method     none
_refine_ls_goodness_of_fit_ref   1.083
_refine_ls_hydrogen_treatment    constr
_refine_ls_matrix_type           full
_refine_ls_number_parameters     565
_refine_ls_number_reflns         17521
_refine_ls_number_restraints     24
_refine_ls_restrained_S_all      1.085
_refine_ls_R_factor_all          0.0991
_refine_ls_R_factor_gt           0.0727
_refine_ls_shift/su_max          0.000
_refine_ls_shift/su_mean         0.000
_refine_ls_structure_factor_coef Fsqd
_refine_ls_weighting_details
'w=1/[\s^2^(Fo^2^)+(0.1262P)^2^+23.8780P] where P=(Fo^2^+2Fc^2^)/3'
_refine_ls_weighting_scheme      calc
_refine_ls_wR_factor_gt          0.2264
_refine_ls_wR_factor_ref         0.2449
_reflns_Friedel_coverage         0.000
_reflns_number_gt                11564
_reflns_number_total             17521
_reflns_threshold_expression     'I > 2\s(I)'
_iucr_refine_instructions_details
;
TITL 2_a.res in P2(1)/c
    2.res
    created by SHELXL-2017/1 at 16:51:09 on 21-Aug-2017
REM Old TITL 2 in P2/c
REM SHELXT solution in P2(1)/c
REM R1 0.244, Rweak 0.013, Alpha 0.064, Orientation as input
REM Formula found by SHELXT: C100 N8 O36 Cd5
CELL 0.71073 15.3011 18.6188 27.6436 90 101.235 90
ZERR 2 0.001 0.0012 0.0018 0 0.001 0
LATT 1
SYMM -X,0.5+Y,0.5-Z
SFAC C H Cd O
UNIT 176 80 10 64
DELU C24 C43 O12 O11
SIMU 0.004 0.008 2 C24 C43 O12 O11

L.S. 10
PLAN  20
SIZE 0.17 0.14 0.11
TEMP -173
BOND $H
list 4
fmap 2
acta
ABIN
REM <olex2.extras>
REM <HklSrc "%.\\2.hkl">
REM </olex2.extras>

WGHT    0.126200   23.877998
FVAR       0.16281
CD01  3    0.000000    0.000000    0.000000    10.50000    0.01557    0.01840 =
         0.04035    0.00018   -0.00445    0.00325
CD02  3    0.163292   -0.058634    0.104114    11.00000    0.02312    0.02692 =
         0.04621    0.00373   -0.00548    0.00475
CD03  3    0.906916    0.467600    0.055026    11.00000    0.03287    0.02516 =
         0.07051    0.00377    0.01407    0.00139
O16   4   -0.011569    0.074888   -0.067401    11.00000    0.02857    0.01240 =
         0.04152    0.00277    0.00144    0.00194
O1    4    0.048262    0.091223    0.050587    11.00000    0.02319    0.03039 =
         0.05674   -0.00883   -0.00126    0.00206
O4    4    0.055660    0.427676    0.072888    11.00000    0.04150    0.01596 =
         0.08625    0.00478    0.00824    0.00452
O10   4    0.857551    0.025712    0.009644    11.00000    0.01691    0.04008 =
         0.07452   -0.00673    0.00246    0.00936
O14   4    0.035645    0.414657   -0.057467    11.00000    0.03264    0.03014 =
         0.07312   -0.00204    0.01393    0.00132
O15   4   -0.091247    0.172774   -0.090471    11.00000    0.02751    0.02387 =
         0.08398    0.00376   -0.00823    0.00513
O2    4    0.174609    0.058533    0.100004    11.00000    0.03751    0.04174 =
         0.05965    0.00722   -0.00702    0.00136
O3    4   -0.046182    0.344518    0.052404    11.00000    0.02777    0.02558 =
         0.09538    0.00666    0.00921    0.00051
O8    4    0.783454    0.412647    0.079492    11.00000    0.04426    0.04562 =
         0.04890    0.00088    0.01425    0.00078
O6    4    0.855944    0.441893    0.313028    11.00000    0.04093    0.07325 =
         0.04843   -0.01137    0.00035   -0.02613
O5    4    0.726278    0.408215    0.329672    11.00000    0.04132    0.07349 =
         0.04009   -0.01056    0.00235   -0.02288
O9    4    0.753454    0.077638   -0.048053    11.00000    0.04338    0.06152 =
         0.07175    0.00487    0.01679    0.01764
O7    4    0.887885    0.458408    0.137500    11.00000    0.04849    0.05292 =
         0.07120    0.00281    0.01532   -0.01019
O13   4    0.179651    0.427504   -0.035263    11.00000    0.03881    0.03316 =
         0.10112    0.00483    0.01322   -0.00845
C40   1    0.144708    0.160501   -0.040263    11.00000    0.03295    0.02651 =
         0.04878   -0.00298    0.00891    0.00583
AFIX  43
H40   2    0.151654    0.109798   -0.038758    11.00000   -1.20000
AFIX   0
C41   1   -0.018484    0.144232   -0.071100    11.00000    0.03579    0.02481 =
         0.04069   -0.00551   -0.00081   -0.00206
C21   1    0.120594    0.102806    0.078959    11.00000    0.01573    0.03207 =
         0.05013   -0.01079    0.01002   -0.00969
C36   1    0.206467    0.277809   -0.029338    11.00000    0.02475    0.02254 =
         0.08180    0.01256    0.00415    0.00139
AFIX  43
H36   2    0.256260    0.308779   -0.020075    11.00000   -1.20000
AFIX   0
C15   1    0.741723    0.402578    0.244610    11.00000    0.04343    0.04219 =
         0.05313   -0.00805   -0.01165   -0.00858
C22   1    0.035463    0.364675    0.067237    11.00000    0.02530    0.03218 =
         0.05434   -0.00006    0.00774    0.00238
C16   1    0.793627    0.420648    0.211367    11.00000    0.03503    0.05115 =
         0.05709   -0.00165    0.00313   -0.01050
AFIX  43
H16   2    0.851042    0.441109    0.221972    11.00000   -1.20000
AFIX   0
C3    1    0.231359    0.202900    0.106557    11.00000    0.02613    0.03126 =
         0.04120   -0.00838   -0.00178    0.00078
AFIX  43
H3    2    0.274822    0.166541    0.116195    11.00000   -1.20000
AFIX   0
C2    1    0.145043    0.181905    0.086201    11.00000    0.02472    0.03161 =
         0.04042    0.00036   -0.00536    0.00123
C35   1    0.219906    0.204991   -0.026935    11.00000    0.03425    0.03051 =
         0.06223   -0.00844    0.01866   -0.00109
C6    1    0.103137    0.306825    0.080095    11.00000    0.02787    0.02608 =
         0.04807   -0.00315    0.00387   -0.00020
C1    1    0.080404    0.235487    0.072971    11.00000    0.02628    0.02819 =
         0.04195    0.00569   -0.00126   -0.00358
AFIX  43
H1    2    0.020746    0.222546    0.059052    11.00000   -1.20000
AFIX   0
C28   1    0.720307    0.054994    0.030162    11.00000    0.02321    0.04093 =
         0.05869   -0.00818    0.00144    0.00574
C4    1    0.257315    0.272854    0.113509    11.00000    0.03134    0.02522 =
         0.05791   -0.00315    0.00670   -0.00166
C5    1    0.189273    0.325374    0.098936    11.00000    0.03436    0.01912 =
         0.05895   -0.00680    0.00533   -0.00921
AFIX  43
H5    2    0.204491    0.374821    0.102477    11.00000   -1.20000
AFIX   0
C20   1    0.777280    0.417563    0.301099    11.00000    0.04754    0.03847 =
         0.05072    0.00641   -0.00567   -0.00178
C7    1    0.351598    0.294772    0.131992    11.00000    0.03357    0.03596 =
         0.05635   -0.01311   -0.00725   -0.00722
C44   1    0.783347    0.052044   -0.005346    11.00000    0.02699    0.02644 =
         0.05994   -0.00251    0.00656    0.00204
C38   1    0.048889    0.263432   -0.058594    11.00000    0.02668    0.02091 =
         0.04957    0.00007   -0.00045    0.00322
AFIX  43
H38   2   -0.008626    0.283346   -0.069905    11.00000   -1.20000
AFIX   0
C14   1    0.657600    0.375976    0.230666    11.00000    0.03865    0.06014 =
         0.04560   -0.00698    0.00019   -0.00889
AFIX  43
H14   2    0.623383    0.364095    0.254759    11.00000   -1.20000
AFIX   0
C37   1    0.122049    0.308107   -0.044943    11.00000    0.02283    0.01803 =
         0.07134    0.00135    0.01451   -0.00205
C39   1    0.060006    0.190082   -0.055675    11.00000    0.02317    0.01714 =
         0.04714   -0.00156    0.00401    0.00215
C42   1    0.112030    0.387187   -0.045163    11.00000    0.04071    0.02006 =
         0.06254    0.00811    0.02192    0.01041
C33   1    0.322083    0.113213    0.019308    11.00000    0.03391    0.03373 =
         0.06530   -0.01524    0.00901   -0.00083
AFIX  43
H33   2    0.271368    0.089647    0.026915    11.00000   -1.20000
AFIX   0
C27   1    0.634576    0.086297    0.015308    11.00000    0.02318    0.03375 =
         0.05356   -0.00639    0.00427    0.00181
AFIX  43
H27   2    0.619606    0.107144   -0.016602    11.00000   -1.20000
AFIX   0
C32   1    0.310870    0.174657   -0.008946    11.00000    0.03904    0.01878 =
         0.06585   -0.00278    0.01554    0.00174
C18   1    0.676075    0.379812    0.146896    11.00000    0.04222    0.06377 =
         0.04446   -0.00740    0.00406   -0.01902
AFIX  43
H18   2    0.654457    0.369177    0.113070    11.00000   -1.20000
AFIX   0
C13   1    0.622502    0.366442    0.180933    11.00000    0.03712    0.04565 =
         0.05621   -0.01494   -0.00135   -0.01210
C10   1    0.528176    0.338861    0.164160    11.00000    0.03663    0.06722 =
         0.04528   -0.01305   -0.00297   -0.01467
C19   1    0.814057    0.427951    0.123799    11.00000    0.04256    0.03208 =
         0.06096    0.00187    0.01567   -0.00570
C17   1    0.759714    0.408126    0.161273    11.00000    0.05695    0.04602 =
         0.05542    0.00352    0.01482    0.00020
C26   1    0.574611    0.087694    0.043987    11.00000    0.02835    0.04686 =
         0.06379   -0.00664    0.00524    0.00402
C34   1    0.408042    0.084625    0.037192    11.00000    0.03169    0.04417 =
         0.05688   -0.00138   -0.00274    0.00500
AFIX  43
H34   2    0.413763    0.041481    0.055891    11.00000   -1.20000
AFIX   0
C29   1    0.484180    0.118229    0.028017    11.00000    0.01891    0.04189 =
         0.08051   -0.00382    0.01047    0.00642
C31   1    0.386561    0.209760   -0.019283    11.00000    0.02399    0.04651 =
         0.08818    0.01658    0.00937    0.01116
AFIX  43
H31   2    0.379249    0.251661   -0.039276    11.00000   -1.20000
AFIX   0
C23   1    0.740852    0.028123    0.075581    11.00000    0.03931    0.07182 =
         0.08407    0.00683    0.00364    0.00980
AFIX  43
H23   2    0.796920    0.005317    0.085928    11.00000   -1.20000
AFIX   0
C12   1    0.417158    0.263009    0.116343    11.00000    0.03866    0.06295 =
         0.08051   -0.04124    0.00133   -0.01565
AFIX  43
H12   2    0.403651    0.225104    0.093082    11.00000   -1.20000
AFIX   0
C11   1    0.504820    0.282286    0.132211    11.00000    0.04289    0.08275 =
         0.09109   -0.03037    0.00627   -0.01060
AFIX  43
H11   2    0.550155    0.256033    0.120896    11.00000   -1.20000
AFIX   0
C30   1    0.472483    0.184005   -0.000613    11.00000    0.02643    0.06039 =
         0.12442    0.01334    0.01437    0.00903
AFIX  43
H30   2    0.522998    0.209557   -0.006686    11.00000   -1.20000
AFIX   0
C25   1    0.596680    0.061466    0.094364    11.00000    0.03226    0.11010 =
         0.09119    0.01206    0.01193    0.01190
AFIX  43
H25   2    0.556428    0.063561    0.116509    11.00000   -1.20000
AFIX   0
C9    1    0.463122    0.365232    0.186478    11.00000    0.05975    0.14431 =
         0.09704   -0.07553    0.01655   -0.04216
AFIX  43
H9    2    0.479652    0.395759    0.214294    11.00000   -1.20000
AFIX   0
C8    1    0.369980    0.348680    0.169581    11.00000    0.05014    0.13781 =
         0.14967   -0.08467    0.03199   -0.02360
AFIX  43
H8    2    0.324157    0.371882    0.182470    11.00000   -1.20000
AFIX   0
O12   4    0.652559   -0.004317    0.185499    11.00000    0.09105    0.24026 =
         0.11419    0.05658    0.03141    0.00995
C24   1    0.684015    0.032361    0.107546    11.00000    0.06873    0.22039 =
         0.08975    0.04327    0.02016    0.05303
O11   4    0.776761   -0.033487    0.168739    11.00000    0.11166    0.24342 =
         0.10834    0.05557    0.01585    0.07282
C43   1    0.706036   -0.005305    0.156056    11.00000    0.08283    0.22820 =
         0.09689    0.04480    0.02068    0.04564
HKLF 4




REM  2_a.res in P2(1)/c
REM R1 =  0.0727 for   11564 Fo > 4sig(Fo)  and  0.0991 for all   17521 data
REM    565 parameters refined using     24 restraints

END  
     
WGHT      0.1159     38.5917 

REM Highest difference peak  2.165,  deepest hole -0.922,  1-sigma level  0.148
Q1    1   0.5448  0.2384 -0.0066  11.00000  0.05    2.16
Q2    1   0.3082  0.3818  0.1988  11.00000  0.05    2.15
Q3    1   0.6796 -0.0397  0.2376  11.00000  0.05    1.40
Q4    1   0.3898  0.2621 -0.0583  11.00000  0.05    1.31
Q5    1   0.8843  0.4570  0.0190  11.00000  0.05    1.23
Q6    1   0.6688  0.3826  0.2936  11.00000  0.05    1.11
Q7    1   0.8738  0.4378  0.3584  11.00000  0.05    0.98
Q8    1   0.1615 -0.1098  0.1129  11.00000  0.05    0.92
Q9    1  -0.0364  0.2575 -0.1002  11.00000  0.05    0.85
Q10   1  -0.0578  0.2013 -0.1193  11.00000  0.05    0.84
Q11   1   0.4790  0.3706  0.1233  11.00000  0.05    0.83
Q12   1   0.4192  0.4157  0.1478  11.00000  0.05    0.79
Q13   1   0.8172  0.4438  0.3388  11.00000  0.05    0.77
Q14   1  -0.0250  0.0161 -0.0768  11.00000  0.05    0.76
Q15   1   0.1124  0.2456 -0.0883  11.00000  0.05    0.75
Q16   1   0.0729  0.2160 -0.1022  11.00000  0.05    0.75
Q17   1   0.6356  0.0434  0.2214  11.00000  0.05    0.73
Q18   1   0.1187 -0.0596  0.1105  11.00000  0.05    0.72
Q19   1   0.7963  0.0296  0.1843  11.00000  0.05    0.71
Q20   1   0.7884 -0.0491  0.2465  11.00000  0.05    0.71

  REM The information below was added by Olex2.
  REM
  REM R1 = 0.0727 for 11564 Fo > 4sig(Fo) and 0.0991 for all 46870 data
  REM n/a parameters refined using n/a restraints
  REM Highest difference peak 2.16, deepest hole -0.92
  REM Mean Shift 0, Max Shift 0.000.

  REM +++ Tabular Listing of Refinement Information +++
  REM R1_all = 0.0991
  REM R1_gt = 0.0727
  REM wR_ref = 0.2449
  REM GOOF = 1.083
  REM Shift_max = 0.000
  REM Shift_mean = 0
  REM Reflections_all = 46870
  REM Reflections_gt = 11564
  REM Parameters = n/a
  REM Hole = -0.92
  REM Peak = 2.16
  REM Flack = n/a

  
;
_cod_data_source_file            c7ce01638g2.cif
_cod_data_source_block           2
_cod_database_code               7229437
_shelx_shelxl_version_number     2017/1
_shelx_space_group_comment
;
The symmetry employed for this shelxl refinement is uniquely defined
by the following loop, which should always be used as a source of
symmetry information in preference to the above space-group names.
They are only intended as comments.
;
_shelx_estimated_absorpt_t_max   0.925
_shelx_estimated_absorpt_t_min   0.887
_olex2_refinement_description
;
1. Fixed Uiso
 At 1.2 times of:
  All C(H) groups
2. Rigid bond restraints
 C24, C43, O12, O11
 with sigma for 1-2 distances of 0.01 and sigma for 1-3 distances of 0.01
3. Uiso/Uaniso restraints and constraints
C24 \\sim C43 \\sim O12 \\sim O11: within 2A with sigma of 0.004 and sigma for
terminal atoms of 0.008
4.a Aromatic/amide H refined with riding coordinates:
 C40(H40), C36(H36), C16(H16), C3(H3), C1(H1), C5(H5), C38(H38), C14(H14),
 C33(H33), C27(H27), C18(H18), C34(H34), C31(H31), C23(H23), C12(H12), C11(H11),
  C30(H30), C25(H25), C9(H9), C8(H8)
;
_shelx_fab_file
;
-19 0 2 -0.3995 -2.8931
-19 0 4 2.1237 -0.3594
-19 0 6 -4.0447 0.6478
-19 0 8 9.0325 0.0157
-19 0 10 -5.2993 -0.5418
-19 0 12 8.8674 -0.2002
-19 0 14 -5.4193 0.4319
-19 0 16 -4.3541 0.4334
-19 1 1 1.2091 -0.3253
-19 1 2 -1.7988 -0.1610
-19 1 3 5.7458 0.2645
-19 1 4 -3.1066 -0.2633
-19 1 5 -6.1902 0.6451
-19 1 6 -5.9291 0.2602
-19 1 7 -5.9296 0.4435
-19 1 8 0.9203 0.9727
-19 1 9 -1.9799 -0.3642
-19 1 10 -13.1381 0.6612
-19 1 11 2.1640 -0.8202
-19 1 12 10.3571 -0.1597
-19 1 13 2.2620 -0.6384
-19 1 14 4.0182 -0.4661
-19 1 15 0.6239 -0.2275
-19 1 16 -0.1671 0.0175
-19 1 17 6.2018 -0.3795
-19 2 1 18.9198 0.1734
-19 2 2 -4.8611 -0.0307
-19 2 3 6.3263 0.0337
-19 2 4 1.6685 -0.3542
-19 2 5 16.0422 -0.4139
-19 2 6 1.2582 -0.0524
-19 2 7 -4.4810 -0.2857
-19 2 8 8.3921 0.1161
-19 2 9 -2.1758 0.1321
-19 2 10 0.3686 -0.0191
-19 2 11 1.1061 0.2076
-19 2 12 3.4859 0.1232
-19 2 13 2.4084 0.2424
-19 2 14 -9.1941 0.3088
-19 2 15 -5.5989 0.1803
-19 2 16 7.7140 0.1620
-19 2 17 6.0607 0.4979
-19 3 2 -2.1275 -0.0112
-19 3 3 10.7604 0.5402
-19 3 4 -3.1743 -0.1644
-19 3 5 -6.8352 0.4754
-19 3 6 -4.2197 0.0180
-19 3 7 -4.0335 0.3190
-19 3 8 0.4688 0.3618
-19 3 9 -1.0292 -0.1045
-19 3 10 -7.2880 0.3669
-19 3 11 0.4163 -0.1711
-19 3 12 4.9621 0.0121
-19 3 13 -2.1714 -0.1896
-19 3 14 -3.4753 -0.2551
-19 3 15 0.4942 -0.6668
-19 3 16 0.8636 0.2751
-19 4 3 6.3597 -0.0659
-19 4 4 0.2618 -0.2355
-19 4 5 8.3036 -0.3278
-19 4 6 -2.2751 -0.1157
-19 4 7 -7.7450 -0.1639
-19 4 8 0.0493 -0.0956
-19 4 9 -4.0676 -0.0901
-19 4 10 1.2986 0.0522
-19 4 11 3.1759 -0.3162
-19 4 12 -5.3144 0.1516
-19 4 13 -0.4370 -0.3458
-19 4 14 5.5750 0.3594
-19 4 15 1.9099 0.2925
-19 5 3 -14.1396 0.4457
-19 5 4 -3.7151 -0.4063
-19 5 5 6.0175 0.0826
-19 5 6 -5.5224 0.1916
-19 5 7 2.6903 0.0719
-19 5 8 3.6473 0.7019
-19 5 9 -2.7650 0.1229
-19 5 10 -1.7288 0.4146
-19 5 11 -4.8096 0.0032
-19 5 12 6.2230 -0.1549
-19 5 13 0.3700 -0.7471
-19 5 14 7.8841 -0.2931
-19 6 2 -1.7025 -0.0724
-19 6 4 9.0300 -0.4123
-19 6 5 5.0976 -0.7856
-19 6 6 -0.8484 -0.4071
-19 6 7 12.2201 -0.2682
-19 6 8 -0.4051 0.0699
-19 6 9 4.4959 0.0166
-19 6 10 5.1498 0.4125
-19 6 11 -11.9993 -0.3623
-19 6 12 -0.0936 0.0400
-19 7 5 3.9701 -0.6739
-19 7 6 -11.5863 0.0004
-19 7 7 1.7156 -0.4653
-19 7 8 -5.1709 0.2302
-19 7 9 5.7550 0.0118
-18 0 2 7.6409 -1.0673
-18 0 4 7.3252 0.6354
-18 0 6 7.9989 -0.0508
-18 0 8 1.9866 -0.8468
-18 0 10 1.8518 -0.5968
-18 0 12 5.4275 0.2898
-18 0 14 -7.0983 0.7909
-18 0 16 4.6069 0.3953
-18 0 18 -4.8517 -0.4875
-18 0 20 8.1809 -0.8815
-18 1 1 3.5021 -0.1664
-18 1 2 -0.9277 -0.8301
-18 1 3 -16.4558 0.1806
-18 1 4 10.2767 -0.4337
-18 1 5 6.8717 0.1079
-18 1 6 12.9246 0.6108
-18 1 7 -6.9549 0.0841
-18 1 8 -10.5774 0.9764
-18 1 9 -2.8778 -0.0783
-18 1 10 5.3290 0.1971
-18 1 11 0.7769 -0.2549
-18 1 12 -0.3422 -0.2048
-18 1 13 -0.9128 -0.1817
-18 1 14 7.4753 0.2118
-18 1 15 -7.9595 -0.0964
-18 1 16 -8.8313 0.1956
-18 1 17 3.2743 -0.1666
-18 1 18 11.2698 -0.1843
-18 1 19 3.1461 -0.1374
-18 1 20 1.1914 -0.4648
-18 1 21 -3.0504 0.2955
-18 2 1 -0.6937 -0.3757
-18 2 2 -5.9138 0.1085
-18 2 3 -15.9733 -0.2249
-18 2 4 1.3133 0.3149
-18 2 5 -6.3085 -0.0323
-18 2 6 4.9508 0.3147
-18 2 7 -9.6060 0.1221
-18 2 8 2.4659 0.1385
-18 2 9 11.7314 -0.0661
-18 2 10 1.9870 -0.1631
-18 2 11 -4.8856 -0.2338
-18 2 12 -7.7256 -0.1892
-18 2 13 -2.0344 -0.1606
-18 2 14 5.6624 -0.1087
-18 2 15 -4.4270 0.1316
-18 2 16 1.6040 -0.1670
-18 2 17 -0.7443 0.2986
-18 2 18 -0.5054 -0.1636
-18 2 19 3.0611 0.1557
-18 2 20 1.2637 -0.1614
-18 2 21 -2.5973 -0.0549
-18 3 1 2.6305 0.1384
-18 3 2 4.2549 0.2784
-18 3 3 12.9554 0.1161
-18 3 4 3.8688 0.1811
-18 3 5 -0.5778 -0.1687
-18 3 6 3.9400 0.0122
-18 3 7 -10.7682 -0.2150
-18 3 8 1.0213 -0.1311
-18 3 9 4.1580 0.0593
-18 3 10 8.1416 -0.3371
-18 3 11 1.5972 0.2637
-18 3 12 2.5368 -0.2107
-18 3 13 6.5243 0.2966
-18 3 14 -8.1090 0.1402
-18 3 15 -3.8566 0.0609
-18 3 16 1.5595 0.2526
-18 3 17 1.7231 -0.2655
-18 3 18 -5.6959 0.1103
-18 3 19 -2.2739 -0.2318
-18 3 20 2.0114 -0.4371
-18 4 1 3.8175 -0.3044
-18 4 2 -0.8612 0.2094
-18 4 3 4.5579 -0.0797
-18 4 4 -1.1771 0.2926
-18 4 5 -0.6954 0.1879
-18 4 6 -7.5623 -0.0422
-18 4 7 -2.5214 0.2626
-18 4 8 6.5423 -0.2192
-18 4 9 6.3394 -0.1389
-18 4 10 -0.1036 -0.2350
-18 4 11 -10.8508 -0.4307
-18 4 12 -9.1639 0.2060
-18 4 13 5.0973 -0.2143
-18 4 14 0.4756 0.2997
-18 4 15 4.8188 0.2417
-18 4 16 -5.5830 0.1761
-18 4 17 2.5503 0.1999
-18 4 18 -1.3141 0.2724
-18 4 19 -6.1487 -0.1826
-18 4 20 0.9994 -0.3270
-18 5 1 -1.0419 -0.1581
-18 5 2 -4.3860 -0.3179
-18 5 3 8.7469 0.0868
-18 5 4 -3.7993 0.0762
-18 5 5 -8.3219 0.1848
-18 5 6 -4.0217 0.3911
-18 5 7 -2.0974 0.1956
-18 5 8 -2.4490 -0.0556
-18 5 9 2.2364 0.0237
-18 5 10 8.7796 -0.4367
-18 5 11 3.0506 -0.2089
-18 5 12 4.5083 -0.2157
-18 5 13 -0.7558 -0.1288
-18 5 14 -8.8907 0.2048
-18 5 15 0.7692 -0.0682
-18 5 16 -0.8198 0.3017
-18 5 17 -2.1826 -0.1536
-18 5 18 6.7387 -0.4562
-18 5 19 6.6203 -0.0609
-18 6 1 -4.8552 -0.0161
-18 6 2 -14.0361 -0.2193
-18 6 3 2.3473 -0.0467
-18 6 4 -0.1533 -0.1582
-18 6 5 -6.1498 0.3100
-18 6 6 -1.4982 -0.0690
-18 6 7 -10.3151 0.4380
-18 6 8 1.1283 0.1117
-18 6 9 0.9419 0.0283
-18 6 10 3.2247 -0.0354
-18 6 11 -11.3357 -0.3958
-18 6 12 8.5725 -0.1005
-18 6 13 2.4087 -0.1335
-18 6 14 0.0044 -0.0878
-18 6 15 -1.5670 0.2656
-18 6 16 0.5649 0.2822
-18 6 17 3.3525 0.4066
-18 6 18 -2.6801 0.1999
-18 7 1 4.6142 0.1463
-18 7 2 5.4685 -0.5342
-18 7 3 1.0333 -0.1094
-18 7 4 6.3146 -0.4749
-18 7 5 5.6525 -0.0965
-18 7 6 7.6006 0.0748
-18 7 7 1.9667 0.2389
-18 7 8 8.8904 0.2103
-18 7 9 -1.2033 0.2476
-18 7 10 15.8577 0.1048
-18 7 11 6.2658 0.0965
-18 7 12 6.2103 0.0581
-18 7 13 -10.6556 -0.1422
-18 7 14 -8.0045 0.1488
-18 7 15 3.4138 -0.3656
-18 7 16 -2.7612 0.0683
-18 7 17 5.0445 -0.0510
-18 8 1 -3.1883 0.2917
-18 8 2 3.6593 0.0606
-18 8 3 -3.4957 0.0631
-18 8 4 -5.2775 -0.1924
-18 8 5 -7.0368 0.0684
-18 8 6 4.4915 -0.1449
-18 8 7 -10.2217 0.0389
-18 8 8 -14.3414 0.1316
-18 8 9 0.4814 -0.0964
-18 8 10 -6.1463 0.1998
-18 8 11 -9.4307 -0.3101
-18 8 12 1.2748 0.0475
-18 8 13 7.7319 -0.1530
-18 8 14 2.9436 -0.0480
-18 8 15 -7.3125 0.0901
-18 8 16 -7.7643 0.0868
-18 9 1 -6.2667 0.1838
-18 9 2 3.9744 -0.4140
-18 9 3 7.5465 -0.1029
-18 9 4 1.5204 -0.2422
-18 9 5 2.1611 -0.2592
-18 9 6 8.0812 0.2195
-18 9 7 5.8472 0.2988
-18 9 8 0.9260 0.3923
-18 9 9 -2.2489 0.4111
-18 9 10 1.2648 0.4088
-18 9 11 10.4080 -0.1789
-18 9 12 -10.0093 0.5028
-18 9 13 4.4492 -1.0449
-18 10 5 -7.5065 -0.1003
-18 10 6 -9.3298 -0.5862
-18 10 7 1.8317 -0.4535
-18 10 8 3.0843 -0.1229
-18 10 9 -0.0182 -0.6342
-18 10 10 -14.9041 -0.2566
-17 0 2 2.7754 1.0871
-17 0 4 -15.8427 0.3062
-17 0 6 11.2938 -1.0754
-17 0 8 -10.0657 -1.0127
-17 0 10 6.2196 -0.0946
-17 0 12 -5.3693 0.4668
-17 0 14 -2.4407 0.4290
-17 0 16 0.1838 -0.0520
-17 0 18 7.6821 -0.2489
-17 0 20 -0.5694 0.1450
-17 0 22 -0.3802 0.2193
-17 0 24 -1.6999 -0.7494
-17 1 1 7.4779 0.3854
-17 1 2 -5.3590 -0.0459
-17 1 3 -4.5269 -0.0154
-17 1 4 3.1222 0.0739
-17 1 5 -4.1086 0.1332
-17 1 6 -4.0200 0.3522
-17 1 7 -0.7394 0.1965
-17 1 8 0.3230 -0.1726
-17 1 9 8.1389 0.0522
-17 1 10 7.5630 -0.4072
-17 1 11 0.3937 -0.2454
-17 1 12 -0.6450 0.2832
-17 1 13 2.6642 -0.2042
-17 1 14 -3.9999 0.8324
-17 1 15 -3.2012 -0.0740
-17 1 16 -10.8394 0.2849
-17 1 17 -3.2505 -0.2374
-17 1 18 13.6634 -0.6234
-17 1 19 -0.7467 -0.1586
-17 1 20 -2.6148 -0.6349
-17 1 21 0.2747 0.1854
-17 1 22 -9.4243 -0.0979
-17 1 23 2.4328 0.2171
-17 1 24 6.5033 0.2363
-17 2 1 -4.5729 0.0533
-17 2 2 -1.1850 -0.5640
-17 2 3 5.3715 -0.0919
-17 2 4 12.2092 0.1268
-17 2 5 4.4323 -0.0075
-17 2 6 0.3709 0.6950
-17 2 7 -4.0581 0.1003
-17 2 8 -11.6330 0.5918
-17 2 9 -3.0576 0.0999
-17 2 10 8.4427 0.2621
-17 2 11 -7.7280 -0.0016
-17 2 12 -2.1126 -0.1203
-17 2 13 6.5674 -0.0478
-17 2 14 2.1658 -0.2574
-17 2 15 -0.0348 0.0457
-17 2 16 -1.4196 -0.3320
-17 2 17 9.4088 -0.0025
-17 2 18 12.4358 -0.1398
-17 2 19 -10.0841 -0.0210
-17 2 20 -12.1220 0.0554
-17 2 21 6.3838 0.0907
-17 2 22 -0.7393 0.0433
-17 2 23 -1.1715 0.1431
-17 2 24 -1.0334 -0.5515
-17 3 1 -5.1267 0.0668
-17 3 2 2.8859 0.5059
-17 3 3 -1.8047 -0.3490
-17 3 4 -2.0589 -0.0715
-17 3 5 -10.7420 -0.1880
-17 3 6 7.8212 -0.0422
-17 3 7 -4.7335 0.1009
-17 3 8 -2.1700 0.0526
-17 3 9 8.4562 0.2444
-17 3 10 6.2047 -0.0111
-17 3 11 -8.2719 0.0746
-17 3 12 -5.1888 -0.2362
-17 3 13 -1.8070 -0.0107
-17 3 14 3.9899 -0.1767
-17 3 15 -2.5471 0.0732
-17 3 16 2.9626 0.0481
-17 3 17 6.4618 0.0490
-17 3 18 0.8181 0.0442
-17 3 19 -3.7707 0.1151
-17 3 20 1.5910 -0.0457
-17 3 21 5.5670 0.0878
-17 3 22 -7.3768 0.1945
-17 3 23 3.9878 0.0526
-17 4 1 -7.6317 0.1709
-17 4 2 -0.1320 0.0978
-17 4 3 6.4548 -0.1894
-17 4 4 12.3057 0.1376
-17 4 5 -7.9261 -0.1804
-17 4 6 -0.5165 -0.1080
-17 4 7 -5.1899 0.0212
-17 4 8 4.2497 -0.2337
-17 4 9 -5.1310 0.1023
-17 4 10 3.6857 0.0196
-17 4 11 1.5747 0.0669
-17 4 12 2.3490 0.1193
-17 4 13 -6.1164 -0.0072
-17 4 14 -3.6753 -0.0081
-17 4 15 7.9869 -0.1246
-17 4 16 -5.6012 -0.0705
-17 4 17 -5.8501 -0.2824
-17 4 18 -0.6258 -0.0690
-17 4 19 2.4538 -0.1263
-17 4 20 -1.1449 0.1239
-17 4 21 -0.0731 0.1520
-17 4 22 1.1267 -0.0732
-17 4 23 6.1518 0.5637
-17 5 1 5.2485 -0.0847
-17 5 2 9.2562 0.3277
-17 5 3 -2.6926 0.0016
-17 5 4 2.6316 -0.0711
-17 5 5 3.0360 -0.0068
-17 5 6 10.6615 -0.2034
-17 5 7 -5.2014 -0.0771
-17 5 8 4.5024 -0.2330
-17 5 9 4.0559 -0.1803
-17 5 10 -4.8490 -0.0774
-17 5 11 -4.2732 -0.2443
-17 5 12 -2.1498 0.0393
-17 5 13 4.0951 -0.1544
-17 5 14 3.4556 0.2148
-17 5 15 4.7704 0.0968
-17 5 16 -6.3956 0.0771
-17 5 17 -0.0134 0.2314
-17 5 18 6.9442 -0.3470
-17 5 19 1.2260 0.1390
-17 5 20 -3.6839 -0.2558
-17 5 21 1.9498 -0.2071
-17 5 22 -2.6115 -0.0767
-17 6 1 -6.8652 -0.0153
-17 6 2 -6.3474 -0.2579
-17 6 3 -1.4907 -0.0229
-17 6 4 0.4155 -0.0171
-17 6 5 -0.7878 0.0060
-17 6 6 -6.8276 0.1770
-17 6 7 -4.2478 0.0257
-17 6 8 -1.3669 0.1439
-17 6 9 -5.7133 -0.0436
-17 6 10 -0.4862 -0.0277
-17 6 11 5.2080 -0.1090
-17 6 12 -4.3985 -0.1714
-17 6 13 0.4816 0.0385
-17 6 14 0.5676 0.0725
-17 6 15 1.2043 0.2106
-17 6 16 -3.1813 0.0919
-17 6 17 -7.7866 0.2103
-17 6 18 -0.3714 0.0635
-17 6 19 8.5546 0.0479
-17 6 20 3.5126 0.0728
-17 6 21 -8.3085 0.3483
-17 6 22 -6.1608 -0.5120
-17 7 1 -1.2618 -0.0553
-17 7 2 -0.7046 0.2211
-17 7 3 5.7477 -0.0514
-17 7 4 -1.3650 -0.1032
-17 7 5 1.2219 -0.1299
-17 7 6 1.3302 -0.0983
-17 7 7 5.3352 -0.0560
-17 7 8 -1.7365 0.0493
-17 7 9 -4.0531 -0.0823
-17 7 10 0.1164 0.0014
-17 7 11 2.0287 -0.0260
-17 7 12 -3.3750 -0.0581
-17 7 13 0.5852 0.0369
-17 7 14 7.7145 0.0217
-17 7 15 0.2750 0.2548
-17 7 16 -1.4378 -0.0188
-17 7 17 -7.2309 0.2181
-17 7 18 0.5608 -0.0386
-17 7 19 5.7573 -0.2067
-17 7 20 1.6260 -0.3009
-17 7 21 0.1196 -0.5208
-17 8 1 -1.0594 0.1363
-17 8 2 -3.4304 -0.0776
-17 8 3 -2.0645 0.1469
-17 8 4 -7.0387 -0.0666
-17 8 5 0.0434 0.0448
-17 8 6 0.0507 -0.0086
-17 8 7 21.1679 0.0816
-17 8 8 15.7290 -0.0382
-17 8 9 -7.4759 0.1060
-17 8 10 2.5113 -0.0499
-17 8 11 -6.3726 0.0778
-17 8 12 1.2090 -0.1311
-17 8 13 3.9878 -0.0256
-17 8 14 1.5600 -0.0686
-17 8 15 2.8758 0.1337
-17 8 16 2.5501 0.2419
-17 8 17 -4.6902 -0.0118
-17 8 18 -0.1856 0.3952
-17 8 19 -4.4029 0.2634
-17 8 20 5.3104 -0.5628
-17 9 1 -0.8501 0.1356
-17 9 2 9.3661 0.0708
-17 9 3 -0.5057 0.0044
-17 9 4 4.2425 0.2323
-17 9 5 -5.1949 0.0624
-17 9 6 -9.7578 0.0616
-17 9 7 1.9993 0.2004
-17 9 8 0.2888 -0.0790
-17 9 9 -5.1885 0.1363
-17 9 10 4.8942 -0.1547
-17 9 11 3.5140 -0.0440
-17 9 12 -5.5310 -0.0207
-17 9 13 -13.8706 -0.1258
-17 9 14 -9.9113 0.1647
-17 9 15 -1.6391 0.0120
-17 9 16 8.9868 0.2577
-17 9 17 -2.4977 -0.0003
-17 9 18 -1.8358 -0.2904
-17 10 1 -3.2921 -0.0008
-17 10 2 -3.8742 -0.3174
-17 10 3 -1.7849 0.0215
-17 10 4 4.2791 -0.1621
-17 10 5 -2.4822 0.1808
-17 10 6 1.9264 0.3688
-17 10 7 8.9511 0.2073
-17 10 8 -2.4432 0.7025
-17 10 9 -3.7992 0.0472
-17 10 10 -3.0028 0.2472
-17 10 11 1.5551 -0.3003
-17 10 12 3.8086 -0.2577
-17 10 13 7.0005 -0.5700
-17 10 14 -0.0483 -0.1529
-17 10 15 3.3442 -0.3062
-17 10 16 -1.1167 0.2768
-17 10 17 2.7222 0.2902
-17 11 1 -2.6036 0.0776
-17 11 2 -7.0340 -0.4426
-17 11 3 8.0785 -0.4819
-17 11 4 -3.2339 -0.6061
-17 11 5 -0.9857 -0.3820
-17 11 6 -1.3739 -0.2843
-17 11 7 -2.0903 0.0046
-17 11 8 0.3235 0.2099
-17 11 9 8.7013 0.0167
-17 11 10 -1.4578 0.3977
-17 11 11 -0.8098 -0.3284
-17 11 12 -3.2562 0.3152
-17 11 13 -11.1731 -0.3038
-17 11 14 -3.3678 -0.0237
-17 11 15 15.5457 0.0288
-17 12 3 1.9857 0.3097
-17 12 4 -6.4509 -0.2870
-17 12 5 -2.8036 -0.3545
-17 12 6 -2.7819 -0.2067
-17 12 7 -2.6059 -0.2996
-17 12 8 1.7425 -0.1226
-17 12 9 2.0970 0.1545
-17 12 10 -5.2013 -0.1015
-17 12 11 5.3983 -0.3403
-16 0 2 9.0523 1.9883
-16 0 4 -2.9149 -0.5685
-16 0 6 -5.0238 -1.2933
-16 0 8 -3.8333 -0.5068
-16 0 10 -7.5145 0.2775
-16 0 12 2.8203 0.1582
-16 0 14 -4.7213 -0.2296
-16 0 16 -3.0230 -0.3345
-16 0 18 -12.5398 0.2338
-16 0 20 1.3438 0.7849
-16 0 22 -1.7786 0.3095
-16 0 24 -0.5621 -0.6795
-16 0 26 3.2458 -0.9063
-16 1 1 -10.1442 0.3160
-16 1 2 -3.5218 0.3602
-16 1 3 6.0437 -0.0751
-16 1 4 5.6574 0.2124
-16 1 5 -0.5106 0.3053
-16 1 6 -6.2701 -0.3157
-16 1 7 14.2238 0.2837
-16 1 8 -5.1716 -0.9326
-16 1 9 -5.7032 -0.0494
-16 1 10 3.9480 -0.3803
-16 1 11 6.5459 -0.1915
-16 1 12 -1.7797 0.7856
-16 1 13 -1.1852 -0.0246
-16 1 14 1.6781 0.7903
-16 1 15 6.8556 0.0954
-16 1 16 -17.1717 -0.0565
-16 1 17 5.4601 -0.1529
-16 1 18 20.1317 -0.4702
-16 1 19 3.4416 -0.2540
-16 1 20 0.2699 -0.2722
-16 1 21 -1.9155 -0.1602
-16 1 22 -4.6952 0.0078
-16 1 23 2.5815 0.1835
-16 1 24 10.4419 0.0314
-16 1 25 1.3130 -0.0160
-16 1 26 -5.2449 -0.1524
-16 2 1 -4.6177 0.4050
-16 2 2 7.7911 -0.7966
-16 2 3 6.2477 -0.0428
-16 2 4 -2.0957 -0.0042
-16 2 5 -10.7909 0.0668
-16 2 6 -0.8935 0.5755
-16 2 7 13.8152 0.1763
-16 2 8 -8.1954 0.3370
-16 2 9 1.3194 -0.0004
-16 2 10 5.0979 0.1434
-16 2 11 10.1830 -0.1415
-16 2 12 -10.1290 0.1138
-16 2 13 -5.6991 -0.0849
-16 2 14 2.1675 0.1319
-16 2 15 -1.3678 0.1297
-16 2 16 -16.1473 0.0415
-16 2 17 -1.0395 0.1478
-16 2 18 5.0370 -0.3126
-16 2 19 3.3640 -0.0179
-16 2 20 -0.8410 -0.4363
-16 2 21 0.0306 -0.0418
-16 2 22 5.9823 0.1238
-16 2 23 -6.8535 0.2269
-16 2 24 -5.4864 0.1974
-16 2 25 -6.9409 -0.0989
-16 2 26 5.2641 -0.3365
-16 3 1 -4.0500 0.0594
-16 3 2 8.8055 0.0836
-16 3 3 -1.7465 -0.0866
-16 3 4 9.4283 -0.1846
-16 3 5 -1.5305 0.2546
-16 3 6 0.4144 0.2955
-16 3 7 3.9104 0.2580
-16 3 8 -5.9050 0.4343
-16 3 9 0.4611 0.0383
-16 3 10 -10.7817 0.0404
-16 3 11 11.3170 -0.1445
-16 3 12 6.4798 -0.4184
-16 3 13 -4.1753 -0.0181
-16 3 14 -0.3436 -0.3690
-16 3 15 10.2166 0.1820
-16 3 16 6.3327 0.0005
-16 3 17 -1.9264 0.1029
-16 3 18 -10.0298 0.0181
-16 3 19 6.1557 -0.1374
-16 3 20 7.7743 0.0284
-16 3 21 -8.3379 -0.1169
-16 3 22 1.0329 -0.0167
-16 3 23 5.3194 -0.0200
-16 3 24 2.4779 0.2102
-16 3 25 -8.7545 -0.0714
-16 3 26 -1.3337 -0.2829
-16 4 1 -14.2469 0.2739
-16 4 2 1.2226 0.0916
-16 4 3 -0.6804 -0.4117
-16 4 4 3.2020 -0.0473
-16 4 5 -8.1751 -0.1863
-16 4 6 -1.3476 -0.0916
-16 4 7 3.2617 0.1533
-16 4 8 -3.9189 -0.0234
-16 4 9 -11.4495 0.1729
-16 4 10 -5.1405 0.1632
-16 4 11 16.3535 0.0152
-16 4 12 -9.3206 0.0581
-16 4 13 -9.1831 -0.1339
-16 4 14 7.1857 -0.0279
-16 4 15 -2.6411 -0.0664
-16 4 16 -1.1419 -0.0215
-16 4 17 -1.8232 0.0110
-16 4 18 -4.7011 0.0201
-16 4 19 2.5729 -0.0574
-16 4 20 -5.3619 0.1229
-16 4 21 -2.4140 -0.1482
-16 4 22 9.6040 0.0948
-16 4 23 -0.8316 0.0747
-16 4 24 1.7393 -0.1408
-16 4 25 -7.1160 -0.2092
-16 5 1 0.8527 0.0389
-16 5 2 2.1168 0.1436
-16 5 3 -5.4592 0.0303
-16 5 4 -1.0314 -0.1090
-16 5 5 -8.6376 0.0385
-16 5 6 4.4978 -0.0408
-16 5 7 5.4862 0.0054
-16 5 8 7.3849 0.0168
-16 5 9 6.4951 -0.0762
-16 5 10 -3.3850 0.0044
-16 5 11 -0.9442 -0.1622
-16 5 12 4.9914 -0.0106
-16 5 13 6.8455 -0.2109
-16 5 14 -3.2899 0.0664
-16 5 15 -3.6217 -0.0707
-16 5 16 10.3850 0.0424
-16 5 17 -1.9172 0.0561
-16 5 18 -5.0235 -0.0272
-16 5 19 -0.2777 -0.0010
-16 5 20 1.6705 0.0337
-16 5 21 0.4772 0.2254
-16 5 22 -6.1392 0.1537
-16 5 23 2.9240 0.0604
-16 5 24 8.3738 -0.1136
-16 5 25 0.0814 0.0434
-16 6 1 -6.4542 -0.0924
-16 6 2 2.7248 -0.1858
-16 6 3 4.0060 -0.0971
-16 6 4 8.8773 -0.0852
-16 6 5 -5.0462 0.1098
-16 6 6 2.5925 0.1263
-16 6 7 -2.3316 0.0313
-16 6 8 -1.3635 0.0410
-16 6 9 -4.0934 -0.1170
-16 6 10 0.6067 0.0135
-16 6 11 7.9282 -0.2334
-16 6 12 -3.5936 0.0277
-16 6 13 -5.5202 -0.2412
-16 6 14 -2.4948 -0.1110
-16 6 15 4.9907 0.0774
-16 6 16 5.1088 -0.1900
-16 6 17 -8.9708 0.0900
-16 6 18 5.8536 -0.1136
-16 6 19 6.7702 0.0229
-16 6 20 0.6043 -0.0214
-16 6 21 -3.1213 0.2232
-16 6 22 -8.1571 0.0520
-16 6 23 7.8843 0.3174
-16 6 24 -4.4011 0.0358
-16 7 1 2.6420 0.0311
-16 7 2 6.5743 -0.1595
-16 7 3 -4.5449 -0.0427
-16 7 4 0.0247 -0.1428
-16 7 5 0.2273 -0.1390
-16 7 6 -7.0664 0.1272
-16 7 7 -8.4792 -0.1962
-16 7 8 1.3656 0.2846
-16 7 9 4.2968 -0.0950
-16 7 10 -8.8060 0.1516
-16 7 11 -4.1756 -0.1016
-16 7 12 -1.8935 -0.1799
-16 7 13 6.5648 -0.0532
-16 7 14 -5.6127 -0.1740
-16 7 15 -2.6529 0.1156
-16 7 16 3.0599 0.1384
-16 7 17 0.7728 0.2342
-16 7 18 -1.1653 0.0869
-16 7 19 -9.2038 0.1837
-16 7 20 -3.6755 -0.1867
-16 7 21 3.2197 -0.1480
-16 7 22 -4.1054 -0.0165
-16 7 23 -3.9047 -0.0799
-16 7 24 -9.9975 -0.2826
-16 8 1 -1.7921 -0.1403
-16 8 2 -9.5923 -0.0231
-16 8 3 6.0894 -0.3593
-16 8 4 3.7447 -0.0199
-16 8 5 -1.0836 -0.2995
-16 8 6 -4.3090 -0.0114
-16 8 7 1.3763 -0.1605
-16 8 8 2.0238 0.0784
-16 8 9 6.5418 0.0672
-16 8 10 -3.3093 0.2367
-16 8 11 9.7395 0.1904
-16 8 12 7.8049 0.0345
-16 8 13 1.1972 0.2042
-16 8 14 2.9803 -0.1285
-16 8 15 3.5320 0.1677
-16 8 16 -1.8520 0.0540
-16 8 17 4.0684 -0.0622
-16 8 18 -6.0033 0.0358
-16 8 19 -3.3545 -0.1710
-16 8 20 15.2972 -0.0585
-16 8 21 1.3448 0.0356
-16 8 22 -1.3826 0.0440
-16 8 23 5.1597 0.5048
-16 9 1 1.6451 0.1559
-16 9 2 -1.3673 0.1855
-16 9 3 3.3315 0.2519
-16 9 4 0.5019 0.1345
-16 9 5 3.9983 0.0160
-16 9 6 -5.1030 0.0367
-16 9 7 0.3514 -0.1294
-16 9 8 9.4038 -0.0968
-16 9 9 -6.6274 -0.0028
-16 9 10 -6.5500 -0.0739
-16 9 11 -6.3097 0.0475
-16 9 12 -3.0229 -0.0355
-16 9 13 1.4595 0.0962
-16 9 14 -0.8201 0.1613
-16 9 15 -7.5766 0.2805
-16 9 16 -0.4569 0.0456
-16 9 17 3.7871 0.1498
-16 9 18 3.3790 -0.1495
-16 9 19 -4.0158 -0.2012
-16 9 20 5.9979 -0.0051
-16 9 21 0.9886 -0.4772
-16 9 22 1.3230 -0.5199
-16 10 1 -9.8523 -0.0422
-16 10 2 1.7302 -0.0662
-16 10 3 -3.4753 -0.0903
-16 10 4 4.5542 0.1389
-16 10 5 -1.5419 0.0703
-16 10 6 -4.0150 0.2237
-16 10 7 1.1854 0.0823
-16 10 8 9.0696 -0.0213
-16 10 9 1.1452 0.0388
-16 10 10 -8.5718 -0.1578
-16 10 11 5.7030 0.0890
-16 10 12 11.4577 -0.0440
-16 10 13 0.1260 0.1048
-16 10 14 1.8419 0.1569
-16 10 15 -13.1187 0.0334
-16 10 16 2.1263 0.2334
-16 10 17 0.5317 -0.0839
-16 10 18 -6.5140 -0.0678
-16 10 19 -0.8142 0.1537
-16 10 20 5.5283 -0.6542
-16 11 1 -4.6951 0.0167
-16 11 2 10.2696 -0.0758
-16 11 3 5.2948 0.0914
-16 11 4 5.2242 0.1068
-16 11 5 -1.4895 0.1858
-16 11 6 -1.2991 0.2152
-16 11 7 -5.1165 0.1929
-16 11 8 -1.2123 0.1401
-16 11 9 -0.8455 -0.1858
-16 11 10 -12.4687 0.1163
-16 11 11 -4.5752 -0.4445
-16 11 12 -8.1214 -0.1869
-16 11 13 -1.9208 -0.2650
-16 11 14 5.9129 -0.2196
-16 11 15 -0.3274 0.1769
-16 11 16 1.6340 0.4272
-16 11 17 2.8382 0.0379
-16 11 18 3.2303 0.2408
-16 11 19 -0.2744 -0.4349
-16 12 1 -14.0225 0.0598
-16 12 2 -7.7024 -0.4874
-16 12 3 11.0892 -0.3093
-16 12 4 5.8860 -0.2186
-16 12 5 2.3205 -0.0867
-16 12 6 -3.1367 0.3379
-16 12 7 3.4864 0.2118
-16 12 8 4.1210 0.6058
-16 12 9 4.6648 0.1153
-16 12 10 8.8550 0.3156
-16 12 11 0.8873 -0.2412
-16 12 12 0.2230 -0.1299
-16 12 13 5.1783 -0.5419
-16 12 14 -0.5433 -0.0543
-16 12 15 -0.0082 -0.3091
-16 12 16 2.2974 -0.3219
-16 12 17 -3.1416 0.3403
-16 13 1 3.2919 0.0205
-16 13 2 -15.6120 -0.5767
-16 13 3 -6.9583 -0.2430
-16 13 4 -2.1157 -0.7465
-16 13 5 3.5640 -0.2459
-16 13 6 5.3967 -0.2911
-16 13 7 0.2329 -0.1995
-16 13 8 -12.8821 0.1607
-16 13 9 -0.8768 -0.3046
-16 13 10 -2.5055 0.0706
-16 13 11 -2.6788 -0.2005
-16 13 12 2.0526 -0.0927
-16 13 13 -2.5099 -0.2416
-16 13 14 5.6127 0.2059
-16 14 3 -2.0419 -0.1069
-16 14 4 -2.4956 -0.2060
-16 14 5 -1.1605 0.1651
-16 14 6 -4.9260 -0.1700
-16 14 7 4.9662 0.5178
-16 14 8 5.1155 -0.0958
-15 0 2 8.3720 0.9251
-15 0 4 -4.3635 -0.8480
-15 0 6 4.8384 -0.2139
-15 0 8 13.7129 0.3850
-15 0 10 -16.8591 0.0553
-15 0 12 5.9829 -0.5539
-15 0 14 8.1683 -0.6779
-15 0 16 2.5816 -0.1806
-15 0 18 -5.6930 0.6559
-15 0 20 6.2866 0.7785
-15 0 22 -8.3917 -0.0021
-15 0 24 9.3946 -0.5620
-15 0 26 -1.7121 -0.2203
-15 0 28 -0.6443 -0.0339
-15 1 1 -2.8800 -0.3359
-15 1 2 -2.3603 0.2215
-15 1 3 13.5642 -0.2729
-15 1 4 19.2022 -0.0426
-15 1 5 -11.7260 0.1565
-15 1 6 -11.9312 -0.9559
-15 1 7 -5.9170 0.0716
-15 1 8 10.6152 -1.1248
-15 1 9 -1.0413 -0.0620
-15 1 10 -2.3353 0.0298
-15 1 11 21.2543 0.0318
-15 1 12 11.0137 0.8400
-15 1 13 -16.6468 0.1826
-15 1 14 -3.3901 0.4181
-15 1 15 4.4719 0.0595
-15 1 16 -2.0649 -0.1879
-15 1 17 -8.3974 -0.1569
-15 1 18 8.1556 -0.1413
-15 1 19 5.2303 -0.1748
-15 1 20 -4.1299 0.2035
-15 1 21 -1.3082 0.0045
-15 1 22 -6.1539 0.2119
-15 1 23 0.8329 -0.1663
-15 1 24 5.4832 -0.2626
-15 1 25 -6.6117 -0.1171
-15 1 26 0.0046 -0.4492
-15 1 27 4.4037 0.2396
-15 1 28 -1.9363 0.0487
-15 2 1 -3.1986 0.3617
-15 2 2 -7.2016 -0.3508
-15 2 3 1.8999 0.1393
-15 2 4 -8.4240 0.0070
-15 2 5 -0.5533 0.1972
-15 2 6 -3.7482 0.0649
-15 2 7 2.0452 0.1628
-15 2 8 1.0320 0.0463
-15 2 9 -16.6160 -0.1669
-15 2 10 -6.9246 0.2277
-15 2 11 0.2460 -0.3017
-15 2 12 3.2794 0.3884
-15 2 13 6.5460 -0.0596
-15 2 14 -8.3033 0.3409
-15 2 15 -6.5169 0.2468
-15 2 16 0.2072 0.0152
-15 2 17 -8.2834 0.1579
-15 2 18 -0.7048 -0.3921
-15 2 19 -0.8032 -0.1133
-15 2 20 3.8672 -0.3952
-15 2 21 10.9611 -0.1144
-15 2 22 -3.1025 -0.0790
-15 2 23 -4.9866 0.0467
-15 2 24 11.1771 0.1711
-15 2 25 1.9918 0.0972
-15 2 26 -11.9095 0.1913
-15 2 27 -0.2855 -0.1094
-15 2 28 -1.4583 -0.1469
-15 3 1 -0.9746 0.0774
-15 3 2 -9.0938 -0.3501
-15 3 3 15.6819 0.2377
-15 3 4 -2.2283 0.0679
-15 3 5 -0.9022 0.3008
-15 3 6 -9.2849 0.5732
-15 3 7 17.1976 0.0892
-15 3 8 21.7586 0.4524
-15 3 9 -1.5116 -0.1391
-15 3 10 -10.5855 -0.0057
-15 3 11 4.1771 0.0000
-15 3 12 7.8725 -0.2929
-15 3 13 -4.7300 0.2253
-15 3 14 -5.9108 -0.1632
-15 3 15 10.2183 0.2308
-15 3 16 8.6610 -0.0637
-15 3 17 -6.9519 -0.0042
-15 3 18 -2.6537 -0.1091
-15 3 19 3.1732 -0.1473
-15 3 20 3.8829 -0.2204
-15 3 21 -1.3664 -0.1336
-15 3 22 -14.8549 0.0772
-15 3 23 13.4181 -0.0016
-15 3 24 8.2011 0.1058
-15 3 25 -7.2879 0.0777
-15 3 26 -1.7055 0.1428
-15 3 27 -2.9205 0.1683
-15 3 28 -1.8573 0.2662
-15 4 1 0.8719 0.1351
-15 4 2 2.5367 0.0767
-15 4 3 -2.1446 -0.1731
-15 4 4 1.4079 -0.2001
-15 4 5 11.3266 0.0392
-15 4 6 -14.1928 -0.1008
-15 4 7 -10.9334 0.1062
-15 4 8 -2.9150 0.1345
-15 4 9 7.5368 0.0732
-15 4 10 -2.3305 0.0673
-15 4 11 -2.2973 0.0352
-15 4 12 0.6872 -0.1771
-15 4 13 -3.1725 -0.0528
-15 4 14 -3.1756 -0.1941
-15 4 15 1.9735 0.0492
-15 4 16 1.3172 -0.0170
-15 4 17 11.3811 0.1297
-15 4 18 9.8495 0.2114
-15 4 19 -2.1633 -0.0833
-15 4 20 -4.0381 0.1444
-15 4 21 3.3256 -0.2049
-15 4 22 -9.1858 -0.0143
-15 4 23 5.9658 -0.0966
-15 4 24 2.2642 -0.0577
-15 4 25 -2.3544 -0.0575
-15 4 26 1.3025 -0.0265
-15 4 27 -1.7966 0.0878
-15 5 1 -0.0384 0.1842
-15 5 2 -5.4261 0.0462
-15 5 3 -1.0084 -0.1087
-15 5 4 2.2806 -0.0187
-15 5 5 6.6312 -0.1704
-15 5 6 -4.2668 -0.0756
-15 5 7 -1.9709 -0.0412
-15 5 8 1.0659 -0.0451
-15 5 9 -1.9601 0.0686
-15 5 10 -8.3247 0.0078
-15 5 11 3.1041 0.0396
-15 5 12 9.2466 0.0420
-15 5 13 1.2786 -0.0798
-15 5 14 -12.5374 0.0135
-15 5 15 0.0682 -0.0714
-15 5 16 -4.6404 0.0545
-15 5 17 -5.8096 -0.1642
-15 5 18 -11.5002 0.0126
-15 5 19 0.4127 -0.0522
-15 5 20 6.0518 -0.0271
-15 5 21 -2.2804 -0.0117
-15 5 22 -5.2838 0.0829
-15 5 23 1.8208 0.1770
-15 5 24 1.9325 -0.0602
-15 5 25 -2.9823 0.0305
-15 5 26 -2.0094 -0.2697
-15 5 27 -9.3717 -0.2151
-15 6 1 -6.4425 0.0503
-15 6 2 -5.7424 0.0016
-15 6 3 -4.7054 0.1135
-15 6 4 0.9365 -0.0164
-15 6 5 3.5421 0.1340
-15 6 6 -3.7237 -0.0574
-15 6 7 -4.0792 0.0236
-15 6 8 5.6878 -0.1458
-15 6 9 4.9086 -0.1278
-15 6 10 4.7020 -0.0210
-15 6 11 -6.5892 -0.1977
-15 6 12 6.5222 0.0724
-15 6 13 3.6089 -0.1336
-15 6 14 6.3141 0.0441
-15 6 15 -1.3700 0.0530
-15 6 16 -9.9655 0.0224
-15 6 17 11.1315 0.0065
-15 6 18 8.9896 -0.0011
-15 6 19 2.7104 -0.0637
-15 6 20 -1.3329 -0.0770
-15 6 21 5.1416 0.0650
-15 6 22 2.8555 -0.0487
-15 6 23 -3.2415 0.2260
-15 6 24 -2.3010 0.1840
-15 6 25 8.5437 -0.0901
-15 6 26 7.1091 -0.2506
-15 7 1 3.5489 0.0286
-15 7 2 -1.2476 -0.1760
-15 7 3 -2.8136 0.0222
-15 7 4 10.8736 -0.0728
-15 7 5 2.5793 0.0138
-15 7 6 2.9258 0.1737
-15 7 7 -12.7279 -0.0588
-15 7 8 14.0552 0.2689
-15 7 9 2.2764 -0.0543
-15 7 10 -10.2751 -0.0365
-15 7 11 -2.8426 -0.1269
-15 7 12 12.4673 -0.2782
-15 7 13 -6.8572 -0.1997
-15 7 14 -4.2900 -0.0822
-15 7 15 -8.2453 -0.0323
-15 7 16 8.9629 0.2099
-15 7 17 0.9367 0.2411
-15 7 18 -14.8763 0.0435
-15 7 19 -4.6215 0.2309
-15 7 20 2.1470 -0.0627
-15 7 21 14.0930 0.0982
-15 7 22 -5.9362 0.1231
-15 7 23 1.2168 0.0220
-15 7 24 1.1443 0.1381
-15 7 25 -2.7912 -0.3409
-15 7 26 -12.9203 -0.3983
-15 8 1 -14.3897 -0.0332
-15 8 2 -3.6974 -0.1464
-15 8 3 -3.2170 -0.2258
-15 8 4 5.2962 -0.1767
-15 8 5 3.9865 -0.1158
-15 8 6 -7.1189 -0.0077
-15 8 7 -3.2308 0.0293
-15 8 8 3.9427 0.1884
-15 8 9 -10.9421 -0.0732
-15 8 10 -1.5223 0.1138
-15 8 11 0.2499 -0.1491
-15 8 12 -6.5745 -0.1976
-15 8 13 -4.9342 -0.0554
-15 8 14 9.4172 -0.2597
-15 8 15 1.5753 0.1019
-15 8 16 1.1502 0.0302
-15 8 17 4.7126 0.0804
-15 8 18 -3.7395 0.1182
-15 8 19 -11.0258 -0.0541
-15 8 20 -10.0411 -0.0209
-15 8 21 3.7560 -0.0100
-15 8 22 -5.1923 -0.0293
-15 8 23 2.5176 -0.1059
-15 8 24 5.5893 0.0285
-15 8 25 0.1309 0.1268
-15 9 1 8.7668 0.0584
-15 9 2 -1.7304 -0.0385
-15 9 3 -0.8151 -0.1402
-15 9 4 -11.0150 -0.0777
-15 9 5 5.1187 -0.2472
-15 9 6 -3.9281 0.0394
-15 9 7 -1.1803 -0.0664
-15 9 8 5.9073 0.1118
-15 9 9 9.2743 0.2240
-15 9 10 14.2382 0.0689
-15 9 11 -0.2193 0.1133
-15 9 12 1.0249 0.0220
-15 9 13 9.0282 -0.1347
-15 9 14 -1.9619 -0.0200
-15 9 15 -1.9451 -0.0638
-15 9 16 4.3668 -0.0487
-15 9 17 4.5437 0.0990
-15 9 18 1.6097 0.1351
-15 9 19 -5.7469 0.1150
-15 9 20 -1.0948 0.0675
-15 9 21 7.3493 0.0472
-15 9 22 2.7708 -0.0124
-15 9 23 -5.6279 -0.0473
-15 9 24 -3.7711 -0.2865
-15 10 1 3.4273 0.0229
-15 10 2 -7.9990 0.0570
-15 10 3 10.3491 -0.0691
-15 10 4 0.7773 0.0395
-15 10 5 4.2999 -0.1033
-15 10 6 7.5731 0.0038
-15 10 7 0.9259 -0.1219
-15 10 8 -8.3764 0.1140
-15 10 9 -10.9997 -0.1031
-15 10 10 4.0998 0.1517
-15 10 11 -4.3473 0.0919
-15 10 12 0.6523 0.0941
-15 10 13 -2.2426 0.1713
-15 10 14 -1.9598 0.1524
-15 10 15 -4.3212 0.0980
-15 10 16 -3.7540 0.1182
-15 10 17 -5.8736 0.0411
-15 10 18 -1.5868 -0.1976
-15 10 19 7.8649 -0.0285
-15 10 20 8.9000 -0.3443
-15 10 21 1.7135 -0.0774
-15 10 22 -0.4129 0.0629
-15 10 23 3.4917 0.3969
-15 11 1 -3.1880 0.1253
-15 11 2 -6.5671 0.0499
-15 11 3 -8.7701 0.0348
-15 11 4 -12.0653 0.2302
-15 11 5 2.3682 0.0157
-15 11 6 -4.5016 0.2354
-15 11 7 -6.9508 -0.0087
-15 11 8 8.3761 0.1430
-15 11 9 2.4694 0.0245
-15 11 10 5.0508 -0.0176
-15 11 11 -11.2678 -0.0733
-15 11 12 3.6426 -0.0262
-15 11 13 0.3517 -0.0009
-15 11 14 5.3562 0.0548
-15 11 15 1.4276 0.2693
-15 11 16 -0.2394 -0.0219
-15 11 17 2.6063 -0.0016
-15 11 18 -1.6961 -0.1780
-15 11 19 -10.1898 -0.1262
-15 11 20 -0.5022 -0.4037
-15 11 21 3.1573 -0.0010
-15 11 22 -10.6714 -0.4595
-15 12 1 6.9068 -0.0830
-15 12 2 8.7277 -0.0659
-15 12 3 4.1333 -0.0536
-15 12 4 6.7856 0.0406
-15 12 5 -4.9323 0.0634
-15 12 6 5.8946 0.1201
-15 12 7 -4.7791 0.0433
-15 12 8 -2.6926 0.0932
-15 12 9 3.7485 0.0102
-15 12 10 7.6770 -0.0983
-15 12 11 -0.0557 -0.0212
-15 12 12 -1.8285 0.0530
-15 12 13 -11.4637 0.0230
-15 12 14 -1.5019 0.1301
-15 12 15 -4.9954 0.1533
-15 12 16 3.6938 0.0709
-15 12 17 3.4207 -0.0164
-15 12 18 3.9575 -0.1894
-15 12 19 2.3541 -0.3649
-15 12 20 1.0055 -0.4491
-15 13 1 1.4898 0.1627
-15 13 2 -4.3245 0.0495
-15 13 3 -2.4772 0.0087
-15 13 4 0.9462 0.0055
-15 13 5 -4.2473 -0.0466
-15 13 6 -0.0631 0.1432
-15 13 7 -8.5778 0.0727
-15 13 8 -1.8739 0.0592
-15 13 9 3.8393 0.1923
-15 13 10 3.4628 -0.0625
-15 13 11 -7.2129 -0.1205
-15 13 12 3.6872 -0.2962
-15 13 13 8.3616 -0.2770
-15 13 14 4.7329 -0.1601
-15 13 15 -0.8129 -0.0865
-15 13 16 -1.0947 0.6196
-15 13 17 0.0190 0.0572
-15 13 18 9.7053 0.3221
-15 14 1 4.6042 -0.0236
-15 14 2 1.2785 -0.5270
-15 14 3 7.8262 -0.3076
-15 14 4 -4.1764 -0.2537
-15 14 5 -0.0333 0.0529
-15 14 6 1.8494 0.0730
-15 14 7 -0.1155 0.3547
-15 14 8 6.8159 0.2341
-15 14 9 4.2989 0.0099
-15 14 10 -0.8074 0.1968
-15 14 11 -0.0247 -0.6191
-15 14 12 -1.9875 0.0304
-15 14 13 -10.6434 -0.3422
-15 14 14 -1.5141 -0.1313
-15 14 15 7.6396 0.0585
-15 14 16 0.8997 -0.3605
-15 15 1 11.9478 0.0546
-15 15 2 -0.7103 -0.7401
-15 15 3 -11.4134 -0.3684
-15 15 4 1.7263 -0.6770
-15 15 5 5.9995 -0.5946
-15 15 6 -6.4056 -0.2175
-15 15 7 -2.3945 -0.2642
-15 15 8 3.2436 -0.0597
-15 15 9 -12.0444 -0.2068
-15 15 10 -6.1488 -0.0808
-15 15 11 -1.0690 -0.3556
-15 15 12 7.1089 -0.0651
-15 15 13 6.5125 -0.8348
-14 0 2 -25.0693 -1.4281
-14 0 4 -6.3363 0.0739
-14 0 6 -31.7631 1.5049
-14 0 8 12.0126 0.8692
-14 0 10 -12.5862 -0.6087
-14 0 12 9.1659 -1.0799
-14 0 14 -15.1497 -0.5974
-14 0 16 4.7667 0.2338
-14 0 18 -7.2508 0.6489
-14 0 20 20.7723 0.2207
-14 0 22 -16.2296 -0.2376
-14 0 24 2.7215 0.0007
-14 0 26 -1.3273 0.3101
-14 0 28 0.2456 0.0830
-14 0 30 -6.0544 -0.7357
-14 1 1 -3.9215 -1.0483
-14 1 2 -3.4241 -0.0908
-14 1 3 8.9302 -0.5024
-14 1 4 17.2881 -0.3486
-14 1 5 15.3065 -0.2303
-14 1 6 -2.3102 -0.9678
-14 1 7 6.0017 -0.1717
-14 1 8 -11.9553 -0.6770
-14 1 9 -2.2619 0.0045
-14 1 10 2.2772 0.0934
-14 1 11 3.9980 0.2522
-14 1 12 12.4037 0.0912
-14 1 13 2.6232 0.1743
-14 1 14 -0.6329 -0.1635
-14 1 15 -0.0369 -0.0266
-14 1 16 -0.7534 0.1148
-14 1 17 -2.3706 -0.0564
-14 1 18 8.0101 0.5499
-14 1 19 -3.5547 0.0716
-14 1 20 -13.3688 0.5101
-14 1 21 -0.3959 0.0431
-14 1 22 15.2077 -0.0308
-14 1 23 4.2591 -0.1440
-14 1 24 -7.0110 -0.4816
-14 1 25 -6.7833 -0.2382
-14 1 26 1.7064 -0.3817
-14 1 27 0.7907 0.0427
-14 1 28 1.9668 0.0946
-14 1 29 6.1966 0.0001
-14 1 30 -2.6943 0.3019
-14 2 1 1.4850 0.0850
-14 2 2 -6.8788 0.2007
-14 2 3 -18.6216 0.2301
-14 2 4 5.3961 -0.2371
-14 2 5 8.2813 0.3008
-14 2 6 -5.7322 -0.4605
-14 2 7 -1.5189 0.0213
-14 2 8 2.7263 -0.0007
-14 2 9 15.3301 -0.2605
-14 2 10 -11.2360 0.3653
-14 2 11 -20.0030 -0.2392
-14 2 12 11.4474 0.4029
-14 2 13 24.8060 0.0475
-14 2 14 -6.1410 0.3114
-14 2 15 -7.2317 0.1742
-14 2 16 10.4200 0.0672
-14 2 17 7.3490 0.0161
-14 2 18 1.9845 -0.1890
-14 2 19 -7.4049 -0.1559
-14 2 20 3.1116 -0.2730
-14 2 21 6.4538 -0.0178
-14 2 22 -11.1791 -0.1602
-14 2 23 -5.9718 0.0972
-14 2 24 20.0745 -0.1401
-14 2 25 -0.9910 -0.0118
-14 2 26 0.0670 -0.0425
-14 2 27 0.1798 -0.0083
-14 2 28 0.1099 -0.1609
-14 2 29 5.7319 -0.0673
-14 3 1 9.2249 0.0841
-14 3 2 -1.0752 -0.4215
-14 3 3 1.3976 0.3069
-14 3 4 9.1221 0.3476
-14 3 5 -5.7436 0.0746
-14 3 6 -5.2937 0.5194
-14 3 7 -2.3992 -0.1431
-14 3 8 -1.1520 0.2219
-14 3 9 6.7847 -0.0581
-14 3 10 -3.3665 -0.0276
-14 3 11 -2.8927 0.1206
-14 3 12 -8.5065 0.0719
-14 3 13 -2.2517 0.1449
-14 3 14 -7.6052 0.0507
-14 3 15 -6.1495 0.0977
-14 3 16 -17.1012 -0.1145
-14 3 17 -2.1473 0.0301
-14 3 18 3.6824 -0.3386
-14 3 19 -8.7716 0.0083
-14 3 20 5.3762 -0.2828
-14 3 21 -0.2335 0.1113
-14 3 22 1.1176 0.0681
-14 3 23 -6.5863 0.0056
-14 3 24 -7.0274 0.2315
-14 3 25 -1.6152 -0.0625
-14 3 26 2.6601 -0.0339
-14 3 27 -3.7251 -0.0890
-14 3 28 -1.0537 0.1422
-14 3 29 0.7644 -0.0959
-14 4 1 2.5839 0.0011
-14 4 2 -12.2906 -0.0100
-14 4 3 -9.6932 0.2126
-14 4 4 4.0354 -0.0051
-14 4 5 11.9878 0.1603
-14 4 6 -6.8187 0.3260
-14 4 7 -6.8853 0.0456
-14 4 8 5.8334 0.4334
-14 4 9 8.3778 0.1349
-14 4 10 -1.2689 -0.0147
-14 4 11 -13.5356 0.1225
-14 4 12 7.1286 -0.4002
-14 4 13 16.0276 0.0622
-14 4 14 4.0230 -0.3001
-14 4 15 -5.3629 0.0358
-14 4 16 5.1187 0.0449
-14 4 17 13.6808 0.0051
-14 4 18 -5.2630 0.1037
-14 4 19 -1.4724 -0.1213
-14 4 20 2.8220 0.0127
-14 4 21 -2.0142 -0.1117
-14 4 22 6.8227 -0.0638
-14 4 23 3.8435 0.0042
-14 4 24 7.7452 0.0274
-14 4 25 2.4283 -0.0664
-14 4 26 -3.6056 0.0890
-14 4 27 -4.9600 -0.0188
-14 4 28 2.7766 -0.0144
-14 4 29 15.0815 0.3691
-14 5 1 11.9075 0.0592
-14 5 2 0.2161 0.0703
-14 5 3 1.0996 -0.1963
-14 5 4 1.6933 -0.0134
-14 5 5 4.9145 -0.1779
-14 5 6 0.1028 -0.1560
-14 5 7 -3.0891 0.0063
-14 5 8 -3.3217 -0.0879
-14 5 9 10.9576 0.1395
-14 5 10 1.0874 0.0412
-14 5 11 -8.3232 0.1360
-14 5 12 -6.8131 0.0397
-14 5 13 -7.8472 0.1479
-14 5 14 0.1675 -0.0462
-14 5 15 5.1741 -0.0546
-14 5 16 7.8153 -0.0919
-14 5 17 1.5897 -0.1434
-14 5 18 -3.3696 -0.0503
-14 5 19 6.3696 -0.1446
-14 5 20 -7.2197 0.0198
-14 5 21 -3.8555 -0.0251
-14 5 22 2.5249 0.1397
-14 5 23 -4.1783 0.0108
-14 5 24 -3.5713 -0.0006
-14 5 25 -9.6296 0.1239
-14 5 26 4.8905 -0.0572
-14 5 27 5.2066 -0.0369
-14 5 28 -2.0375 0.1848
-14 5 29 -4.3995 0.1401
-14 6 1 3.8226 0.1313
-14 6 2 -0.3922 0.0801
-14 6 3 -0.4153 0.1110
-14 6 4 -5.2422 0.0593
-14 6 5 9.5030 -0.0525
-14 6 6 -4.4075 -0.1440
-14 6 7 -10.3790 -0.0355
-14 6 8 -7.5580 -0.2249
-14 6 9 10.6423 0.0585
-14 6 10 0.3491 -0.0851
-14 6 11 1.2525 0.0595
-14 6 12 3.6917 0.0452
-14 6 13 21.5323 0.0184
-14 6 14 -6.4834 0.0509
-14 6 15 -18.2461 -0.0664
-14 6 16 -4.8338 0.0019
-14 6 17 14.1129 -0.0519
-14 6 18 1.6794 -0.0059
-14 6 19 -12.3406 -0.0626
-14 6 20 -3.6889 -0.0488
-14 6 21 11.2344 0.1240
-14 6 22 10.0243 -0.0546
-14 6 23 -9.2633 0.0941
-14 6 24 -2.4989 0.0558
-14 6 25 -7.3464 -0.0969
-14 6 26 0.1937 0.1440
-14 6 27 -4.6800 0.0288
-14 6 28 -1.7378 -0.1315
-14 7 1 6.7149 -0.0247
-14 7 2 -3.5593 -0.0493
-14 7 3 -5.4059 0.1760
-14 7 4 -5.8704 0.0389
-14 7 5 7.3669 0.0900
-14 7 6 5.5944 0.0334
-14 7 7 -0.3333 -0.0727
-14 7 8 2.3166 -0.0315
-14 7 9 -3.6618 -0.1487
-14 7 10 -0.9104 -0.1289
-14 7 11 -3.3928 -0.1026
-14 7 12 -11.2762 -0.0745
-14 7 13 3.4052 -0.0308
-14 7 14 1.8403 0.1638
-14 7 15 8.4891 0.0439
-14 7 16 -0.3741 0.0606
-14 7 17 -3.8760 0.0034
-14 7 18 0.2568 -0.1356
-14 7 19 3.7419 -0.0686
-14 7 20 0.9767 -0.1046
-14 7 21 -0.1173 0.0628
-14 7 22 1.8914 0.1620
-14 7 23 -1.0281 0.1648
-14 7 24 3.7216 0.0690
-14 7 25 1.2352 -0.0887
-14 7 26 5.0751 -0.0346
-14 7 27 1.3722 -0.4048
-14 8 1 1.6532 -0.1427
-14 8 2 14.9262 -0.0999
-14 8 3 -0.4673 -0.1094
-14 8 4 -5.7323 0.0596
-14 8 5 -5.9313 0.0131
-14 8 6 11.9454 0.1880
-14 8 7 -7.1860 0.0104
-14 8 8 1.5179 0.1238
-14 8 9 7.9678 -0.1479
-14 8 10 11.1534 -0.1305
-14 8 11 -11.1174 -0.1667
-14 8 12 -2.9353 -0.2388
-14 8 13 0.0957 0.0303
-14 8 14 -0.6320 -0.0530
-14 8 15 -11.1448 0.1371
-14 8 16 -9.3105 0.1212
-14 8 17 14.5508 0.1122
-14 8 18 11.8251 0.1487
-14 8 19 1.8920 0.0727
-14 8 20 -9.2994 -0.0429
-14 8 21 3.2819 -0.0285
-14 8 22 -0.8425 -0.0467
-14 8 23 -6.8887 -0.1333
-14 8 24 -1.0249 0.0373
-14 8 25 6.3636 -0.1505
-14 8 26 3.0750 -0.2352
-14 8 27 -11.8311 0.2738
-14 9 1 -5.3403 -0.1079
-14 9 2 0.3410 -0.2442
-14 9 3 -6.0930 -0.2820
-14 9 4 1.4157 -0.1110
-14 9 5 -2.3029 -0.1555
-14 9 6 7.9234 -0.0271
-14 9 7 -12.1806 0.1189
-14 9 8 -4.3275 -0.0128
-14 9 9 -4.0554 0.1925
-14 9 10 -1.5489 -0.0714
-14 9 11 -9.8929 0.0444
-14 9 12 4.2010 -0.0485
-14 9 13 1.6914 -0.1031
-14 9 14 4.7861 -0.0452
-14 9 15 5.2594 -0.0377
-14 9 16 -1.9131 0.0349
-14 9 17 -5.2104 0.1087
-14 9 18 -9.4291 0.1363
-14 9 19 0.0200 0.0473
-14 9 20 -1.2097 0.0405
-14 9 21 -0.5341 0.1019
-14 9 22 -1.6226 0.0186
-14 9 23 9.5519 0.1841
-14 9 24 -1.0021 0.0139
-14 9 25 -4.5432 -0.5170
-14 9 26 3.9053 -0.3640
-14 10 1 2.7659 -0.0348
-14 10 2 7.8953 0.0118
-14 10 3 -3.5730 -0.0564
-14 10 4 -11.9748 -0.0716
-14 10 5 6.4200 -0.0019
-14 10 6 12.9244 -0.0488
-14 10 7 7.7715 0.0727
-14 10 8 3.1935 -0.0396
-14 10 9 3.4563 0.0479
-14 10 10 10.1940 -0.0256
-14 10 11 3.4843 -0.0264
-14 10 12 -8.6788 -0.0234
-14 10 13 -2.0436 -0.0823
-14 10 14 11.1758 0.0383
-14 10 15 0.2915 -0.0675
-14 10 16 -5.3765 0.0626
-14 10 17 2.8039 0.0486
-14 10 18 5.6114 0.0446
-14 10 19 3.3058 0.0793
-14 10 20 -1.0207 0.0071
-14 10 21 -7.0078 0.0363
-14 10 22 -3.8007 0.0179
-14 10 23 6.4807 -0.0844
-14 10 24 -7.7560 -0.2599
-14 10 25 -2.4429 0.2486
-14 11 1 0.9062 0.0600
-14 11 2 1.7392 0.0232
-14 11 3 6.3026 -0.1802
-14 11 4 -0.7228 0.0392
-14 11 5 0.8236 -0.1361
-14 11 6 -5.6893 -0.0326
-14 11 7 -0.0084 0.0013
-14 11 8 -1.7331 0.0031
-14 11 9 -0.2597 0.0408
-14 11 10 -7.2291 0.0916
-14 11 11 8.3556 -0.0332
-14 11 12 0.7992 0.1624
-14 11 13 -1.9840 -0.0388
-14 11 14 -4.3153 0.1362
-14 11 15 -6.2827 -0.0157
-14 11 16 -0.3632 -0.0381
-14 11 17 1.6223 0.0891
-14 11 18 -4.4562 -0.0513
-14 11 19 5.9510 0.0738
-14 11 20 -0.1648 -0.1706
-14 11 21 0.9991 0.0165
-14 11 22 8.8048 -0.0853
-14 11 23 5.7185 0.0177
-14 11 24 5.9922 0.0289
-14 12 1 -4.0646 0.0486
-14 12 2 2.1951 -0.0934
-14 12 3 -3.1852 0.0725
-14 12 4 -2.0446 0.1546
-14 12 5 -1.9516 -0.0250
-14 12 6 1.4825 0.3476
-14 12 7 2.7326 -0.0280
-14 12 8 -6.5330 0.2649
-14 12 9 -13.0560 -0.1229
-14 12 10 0.6801 0.0541
-14 12 11 2.1158 -0.1042
-14 12 12 -4.8042 -0.0445
-14 12 13 -0.9425 0.1212
-14 12 14 2.0297 0.0665
-14 12 15 7.0666 0.3014
-14 12 16 -12.4303 0.0241
-14 12 17 -2.5447 0.1192
-14 12 18 1.8209 -0.0900
-14 12 19 2.3116 -0.2884
-14 12 20 -7.1073 -0.4295
-14 12 21 -0.7504 -0.1271
-14 12 22 -0.0392 -0.3467
-14 12 23 -5.9440 0.4505
-14 13 1 -11.4538 -0.0451
-14 13 2 8.7536 0.1791
-14 13 3 -1.9841 -0.2190
-14 13 4 8.6305 0.3051
-14 13 5 -2.4951 -0.1340
-14 13 6 4.5240 0.1368
-14 13 7 -7.0483 0.0295
-14 13 8 9.2519 0.1341
-14 13 9 5.0513 0.0829
-14 13 10 4.0172 0.0603
-14 13 11 0.5481 0.0910
-14 13 12 9.7310 -0.0130
-14 13 13 -1.6599 0.0921
-14 13 14 -5.1777 -0.0664
-14 13 15 1.5397 0.0395
-14 13 16 2.5449 -0.1235
-14 13 17 5.1459 -0.0984
-14 13 18 -2.3856 -0.0747
-14 13 19 3.3403 -0.0538
-14 13 20 -1.9968 -0.1430
-14 13 21 8.7492 -0.0564
-14 14 1 8.8365 -0.0592
-14 14 2 5.9261 0.1564
-14 14 3 -18.9387 -0.0705
-14 14 4 11.2819 -0.0040
-14 14 5 -0.0325 0.1204
-14 14 6 0.4011 -0.2334
-14 14 7 4.1676 0.2280
-14 14 8 -4.8693 -0.1236
-14 14 9 -10.5527 0.1341
-14 14 10 5.2960 -0.0404
-14 14 11 -1.6621 -0.0180
-14 14 12 -3.1447 -0.0437
-14 14 13 -9.3538 -0.0741
-14 14 14 3.7035 0.1332
-14 14 15 7.7700 -0.0150
-14 14 16 1.2630 0.2096
-14 14 17 -0.2919 -0.2409
-14 14 18 -1.3359 -0.2372
-14 14 19 2.3993 -0.4873
-14 15 1 -1.3000 0.1422
-14 15 2 -8.3154 -0.4346
-14 15 3 -12.8419 0.2212
-14 15 4 2.4881 -0.1983
-14 15 5 -2.8658 0.3734
-14 15 6 6.2214 0.0381
-14 15 7 5.9332 0.2382
-14 15 8 -4.3689 0.0631
-14 15 9 2.8231 0.1077
-14 15 10 -1.5887 -0.2829
-14 15 11 -3.5939 -0.3686
-14 15 12 12.4075 -0.1591
-14 15 13 0.1553 -0.4759
-14 15 14 -3.4878 0.2283
-14 15 15 5.1993 -0.2150
-14 15 16 3.5593 0.2678
-14 15 17 -9.5191 0.1257
-14 16 1 -0.5574 -0.3860
-14 16 2 4.2285 -0.8937
-14 16 3 21.0202 -0.1285
-14 16 4 2.2044 -0.8515
-14 16 5 -12.8936 0.2768
-14 16 6 1.0919 -0.2490
-14 16 7 5.1587 0.1465
-14 16 8 7.6751 0.1276
-14 16 9 -9.1385 -0.3238
-14 16 10 -0.4605 -0.1126
-14 16 11 -1.3843 -0.5233
-14 16 12 -14.0743 -0.4624
-14 16 13 -12.4129 -0.1406
-14 16 14 13.8703 -0.1729
-13 0 2 -10.0657 -3.1456
-13 0 4 13.3518 1.6097
-13 0 6 -2.0548 2.4612
-13 0 8 -2.4253 0.4815
-13 0 10 -15.9327 -1.1318
-13 0 12 -1.7847 -0.8966
-13 0 14 5.3376 -0.0263
-13 0 16 -7.1343 0.3237
-13 0 18 -9.5448 -0.0605
-13 0 20 -5.8288 -0.4070
-13 0 22 7.2240 0.0038
-13 0 24 -2.0152 0.5704
-13 0 26 3.2266 0.4873
-13 0 28 -5.8335 -0.1734
-13 0 30 7.2224 -0.7105
-13 1 1 19.5194 -1.2373
-13 1 2 2.1431 -0.4500
-13 1 3 -11.0674 -0.5127
-13 1 4 -13.5541 -0.4338
-13 1 5 14.8758 -0.3670
-13 1 6 -0.6169 -0.2170
-13 1 7 -21.0535 -0.3238
-13 1 8 8.4293 0.1622
-13 1 9 25.5294 -0.0304
-13 1 10 -4.1123 -0.2775
-13 1 11 -15.8559 0.2334
-13 1 12 -9.0445 -0.9161
-13 1 13 5.4750 0.1844
-13 1 14 -5.2591 -0.5232
-13 1 15 -20.8547 0.0278
-13 1 16 -4.2179 0.4784
-13 1 17 19.7463 0.0680
-13 1 18 8.2473 0.9206
-13 1 19 -11.4973 0.0769
-13 1 20 -6.4428 0.4780
-13 1 21 9.1590 -0.0008
-13 1 22 -6.5966 -0.1475
-13 1 23 -8.3814 -0.1829
-13 1 24 2.0040 -0.2954
-13 1 25 -0.7332 -0.1112
-13 1 26 -2.5986 -0.1041
-13 1 27 -1.8769 0.0196
-13 1 28 -0.4037 -0.0760
-13 1 29 10.0024 -0.0260
-13 1 30 -7.6723 -0.0154
-13 1 31 -11.1647 -0.0424
-13 2 1 10.3072 -0.4860
-13 2 2 -10.4629 0.3937
-13 2 3 5.4205 -0.0495
-13 2 4 0.0622 -0.5192
-13 2 5 7.2545 0.0800
-13 2 6 -7.6247 -0.7928
-13 2 7 -3.1752 -0.1076
-13 2 8 3.8618 -0.1922
-13 2 9 5.2493 -0.1475
-13 2 10 10.6438 0.1799
-13 2 11 -3.2572 -0.0324
-13 2 12 9.4860 0.3375
-13 2 13 8.3160 0.1364
-13 2 14 5.9230 0.3296
-13 2 15 -2.0634 0.0464
-13 2 16 2.0754 0.2439
-13 2 17 -1.7266 -0.1340
-13 2 18 7.3970 0.1014
-13 2 19 5.8579 -0.0910
-13 2 20 3.2876 -0.0036
-13 2 21 9.0723 0.0807
-13 2 22 1.4448 -0.2144
-13 2 23 -3.1494 0.0832
-13 2 24 3.1255 -0.3758
-13 2 25 1.5988 -0.0912
-13 2 26 5.4587 -0.1431
-13 2 27 -0.4091 -0.0725
-13 2 28 -7.8678 0.1136
-13 2 29 0.9348 0.0467
-13 2 30 4.3198 -0.2175
-13 2 31 -5.5527 -0.1075
-13 3 1 15.5382 0.1084
-13 3 2 4.9949 -0.1431
-13 3 3 -3.9030 0.2341
-13 3 4 -8.4390 0.2810
-13 3 5 12.8583 -0.1348
-13 3 6 9.2953 0.1135
-13 3 7 -11.2125 -0.2785
-13 3 8 -13.5911 -0.0424
-13 3 9 6.6187 -0.0869
-13 3 10 10.3461 0.1003
-13 3 11 -5.2757 0.1012
-13 3 12 -12.1134 0.2688
-13 3 13 6.2496 0.1269
-13 3 14 12.1335 0.1786
-13 3 15 -5.2712 0.0418
-13 3 16 -3.2974 -0.0981
-13 3 17 4.4532 0.0537
-13 3 18 6.4998 -0.2160
-13 3 19 -12.6872 0.0881
-13 3 20 -13.2751 -0.2068
-13 3 21 7.5202 0.0871
-13 3 22 8.0582 -0.0586
-13 3 23 -5.7588 0.0398
-13 3 24 -4.5415 -0.0132
-13 3 25 3.0501 -0.1033
-13 3 26 8.3899 0.0705
-13 3 27 -10.4519 0.0644
-13 3 28 -0.6732 0.0940
-13 3 29 1.7663 -0.0547
-13 3 30 8.8737 0.0453
-13 3 31 -0.7584 0.1027
-13 4 1 6.4549 0.0228
-13 4 2 0.3960 -0.0576
-13 4 3 -9.3234 0.3915
-13 4 4 9.7343 0.2702
-13 4 5 3.3313 0.1607
-13 4 6 -6.5207 0.5262
-13 4 7 -5.9513 0.0101
-13 4 8 4.1397 0.3133
-13 4 9 4.9742 0.1265
-13 4 10 -1.2716 -0.2014
-13 4 11 7.4671 0.1153
-13 4 12 -6.3215 -0.3108
-13 4 13 -3.5524 0.0870
-13 4 14 -11.8606 -0.0436
-13 4 15 -3.2651 0.0647
-13 4 16 2.8170 0.0829
-13 4 17 -7.4840 -0.0206
-13 4 18 2.0001 -0.0608
-13 4 19 0.7604 -0.1201
-13 4 20 3.5905 -0.2028
-13 4 21 -8.7083 -0.0220
-13 4 22 -5.7097 -0.0408
-13 4 23 8.2792 0.0152
-13 4 24 9.7405 0.1308
-13 4 25 -5.6052 -0.1394
-13 4 26 -3.8775 0.1074
-13 4 27 1.8530 -0.0952
-13 4 28 -7.2157 0.0427
-13 4 29 -8.8504 -0.0055
-13 4 30 2.4811 -0.3464
-13 5 1 -6.3200 -0.0306
-13 5 2 -3.3245 0.0024
-13 5 3 -4.7987 -0.1370
-13 5 4 4.5759 0.0988
-13 5 5 -0.7132 -0.0642
-13 5 6 1.1016 0.0747
-13 5 7 -5.2898 0.0418
-13 5 8 -1.0275 0.1259
-13 5 9 -11.4128 0.0587
-13 5 10 -2.2818 0.0067
-13 5 11 -1.1600 0.0623
-13 5 12 -7.7847 -0.1398
-13 5 13 3.7843 0.0362
-13 5 14 6.7626 -0.1277
-13 5 15 1.4929 -0.0603
-13 5 16 -18.0418 0.0033
-13 5 17 -4.7617 -0.0512
-13 5 18 15.8614 0.1011
-13 5 19 -3.3225 0.0364
-13 5 20 -3.2096 0.0545
-13 5 21 1.1945 -0.0707
-13 5 22 11.5216 -0.0472
-13 5 23 -1.5350 -0.0553
-13 5 24 -10.7911 -0.0335
-13 5 25 4.8469 -0.0313
-13 5 26 12.7440 -0.1153
-13 5 27 6.6339 0.1300
-13 5 28 -3.9194 0.1937
-13 5 29 -4.8515 0.0227
-13 5 30 6.0606 -0.2751
-13 6 1 1.4657 0.0287
-13 6 2 7.9301 0.2316
-13 6 3 -9.1019 -0.1924
-13 6 4 -4.0086 0.0111
-13 6 5 4.4020 -0.1682
-13 6 6 9.7281 -0.1627
-13 6 7 3.6603 0.1123
-13 6 8 3.2558 0.0057
-13 6 9 7.7390 0.2726
-13 6 10 6.3658 0.1008
-13 6 11 0.3407 0.1061
-13 6 12 -1.9635 0.0155
-13 6 13 6.3665 -0.0669
-13 6 14 6.4308 -0.0907
-13 6 15 12.3742 -0.1365
-13 6 16 3.1621 -0.0544
-13 6 17 6.6294 -0.0834
-13 6 18 -6.1328 -0.0161
-13 6 19 -9.2806 0.0360
-13 6 20 -1.0759 -0.0249
-13 6 21 -0.5700 0.0862
-13 6 22 4.7905 -0.0140
-13 6 23 2.5033 0.0756
-13 6 24 -1.8433 -0.0077
-13 6 25 -3.2671 -0.0136
-13 6 26 -2.2377 -0.0400
-13 6 27 -3.8195 0.0402
-13 6 28 -0.1934 0.1294
-13 6 29 -4.2353 0.2173
-13 7 1 -5.7268 0.1936
-13 7 2 10.8168 0.0889
-13 7 3 11.1919 0.1462
-13 7 4 -13.0160 0.0302
-13 7 5 -14.6518 -0.0063
-13 7 6 2.3579 -0.0953
-13 7 7 9.3088 -0.0787
-13 7 8 -21.3408 -0.1094
-13 7 9 -3.2483 -0.0400
-13 7 10 7.8345 -0.0913
-13 7 11 12.0688 -0.0199
-13 7 12 -17.8699 0.1210
-13 7 13 -1.1926 0.0280
-13 7 14 4.7861 0.1221
-13 7 15 2.6369 -0.0338
-13 7 16 -20.0385 -0.1894
-13 7 17 -8.1316 -0.0580
-13 7 18 8.1963 -0.2874
-13 7 19 8.6418 0.0029
-13 7 20 -1.7065 0.0336
-13 7 21 -2.8700 0.0705
-13 7 22 -0.9721 0.1457
-13 7 23 -1.9050 0.2031
-13 7 24 -3.6462 0.0793
-13 7 25 1.7933 0.1394
-13 7 26 10.0882 0.0399
-13 7 27 6.8647 -0.3559
-13 7 28 -5.8989 0.0738
-13 7 29 -1.0758 0.0173
-13 8 1 -6.5531 -0.0838
-13 8 2 -3.0749 0.1244
-13 8 3 12.2402 0.0030
-13 8 4 4.1971 0.1079
-13 8 5 -1.3160 0.0182
-13 8 6 7.9432 0.0841
-13 8 7 5.1418 -0.0842
-13 8 8 -7.7647 -0.0341
-13 8 9 12.0863 -0.1449
-13 8 10 -14.5544 -0.1519
-13 8 11 15.8711 -0.0638
-13 8 12 5.1099 -0.1098
-13 8 13 3.1355 0.0469
-13 8 14 -1.0824 -0.0528
-13 8 15 9.0481 0.0229
-13 8 16 2.2818 -0.0097
-13 8 17 4.2796 0.1058
-13 8 18 -8.4740 0.0066
-13 8 19 -5.6072 0.0553
-13 8 20 2.2814 -0.0038
-13 8 21 1.7403 0.0586
-13 8 22 -2.2451 0.0240
-13 8 23 -2.9538 -0.0594
-13 8 24 3.2402 0.2142
-13 8 25 4.5051 -0.1709
-13 8 26 -1.2396 0.0773
-13 8 27 -8.4706 -0.0100
-13 8 28 -5.1481 0.0642
-13 9 1 -10.1661 -0.1510
-13 9 2 7.3466 -0.0387
-13 9 3 1.2800 -0.1917
-13 9 4 -9.4237 0.0246
-13 9 5 -17.5802 -0.0414
-13 9 6 5.5182 0.0045
-13 9 7 8.7101 0.0500
-13 9 8 -5.9828 -0.0808
-13 9 9 -12.9863 0.0284
-13 9 10 -4.2321 -0.1793
-13 9 11 15.5332 -0.0276
-13 9 12 -17.3114 -0.1751
-13 9 13 -15.1299 0.0783
-13 9 14 -9.3784 -0.0636
-13 9 15 12.9670 0.1606
-13 9 16 -7.2984 0.0708
-13 9 17 0.0187 -0.0124
-13 9 18 5.1839 0.0629
-13 9 19 11.7126 -0.1666
-13 9 20 2.4123 -0.0099
-13 9 21 -8.7286 -0.0988
-13 9 22 -0.3309 -0.0440
-13 9 23 0.4349 0.1477
-13 9 24 2.0894 -0.0249
-13 9 25 -4.1476 -0.0502
-13 9 26 4.3294 -0.0822
-13 9 27 3.8666 -0.2437
-13 10 1 -10.7670 -0.1520
-13 10 2 14.1416 -0.0276
-13 10 3 4.2381 -0.1592
-13 10 4 6.5228 -0.0574
-13 10 5 -13.7564 -0.0344
-13 10 6 9.4010 -0.0257
-13 10 7 -10.7026 0.1441
-13 10 8 2.4604 -0.0246
-13 10 9 -7.4386 0.1948
-13 10 10 -2.6656 -0.0593
-13 10 11 7.9196 0.0724
-13 10 12 6.8964 -0.0094
-13 10 13 9.7468 -0.0456
-13 10 14 -0.5706 0.0461
-13 10 15 9.1726 -0.1186
-13 10 16 -7.1211 0.0357
-13 10 17 0.7832 0.0713
-13 10 18 -2.5493 0.1335
-13 10 19 -3.0050 0.1332
-13 10 20 -1.9487 0.0630
-13 10 21 -2.6857 0.0225
-13 10 22 -2.1604 0.0347
-13 10 23 5.6227 -0.1616
-13 10 24 4.1253 -0.1350
-13 10 25 -7.2163 -0.0460
-13 10 26 3.4016 -0.3623
-13 10 27 5.9339 0.1974
-13 11 1 -17.6082 -0.0554
-13 11 2 -6.0272 0.0378
-13 11 3 8.8347 -0.1623
-13 11 4 8.5797 -0.0793
-13 11 5 -7.3816 -0.1059
-13 11 6 12.8820 -0.1463
-13 11 7 7.4854 0.0246
-13 11 8 3.1648 -0.1308
-13 11 9 -9.3250 0.0444
-13 11 10 1.9857 -0.0055
-13 11 11 -0.9825 -0.0366
-13 11 12 2.4653 0.1680
-13 11 13 -5.5044 -0.0701
-13 11 14 -12.2583 0.1088
-13 11 15 16.4527 -0.0207
-13 11 16 6.3961 0.0425
-13 11 17 -7.3481 0.0633
-13 11 18 -2.1343 -0.0516
-13 11 19 1.6855 0.1144
-13 11 20 0.7330 0.0375
-13 11 21 -4.7977 0.0185
-13 11 22 -4.7837 -0.0088
-13 11 23 6.8057 -0.0358
-13 11 24 -1.9525 0.0688
-13 11 25 -9.7889 -0.2527
-13 11 26 -1.2212 -0.4864
-13 12 1 -4.0079 0.1344
-13 12 2 0.5245 -0.1063
-13 12 3 4.7030 0.0471
-13 12 4 -5.7506 -0.0288
-13 12 5 8.3750 0.0591
-13 12 6 0.1088 0.1255
-13 12 7 0.4054 0.0396
-13 12 8 0.5636 0.1020
-13 12 9 4.8335 -0.0488
-13 12 10 -7.1494 0.0940
-13 12 11 4.7260 -0.1041
-13 12 12 -5.9788 0.0505
-13 12 13 0.4735 -0.0228
-13 12 14 5.3283 0.0357
-13 12 15 3.9169 0.0466
-13 12 16 -5.7357 0.0017
-13 12 17 -3.2114 0.0651
-13 12 18 -0.7278 0.0168
-13 12 19 1.7295 0.0088
-13 12 20 7.8740 -0.0249
-13 12 21 5.5371 -0.0527
-13 12 22 2.4337 -0.1900
-13 12 23 -4.0550 0.3239
-13 12 24 2.5093 -0.3949
-13 13 1 -6.3316 -0.0094
-13 13 2 -2.0775 -0.0613
-13 13 3 1.5023 -0.1155
-13 13 4 4.3768 -0.0778
-13 13 5 2.7303 -0.0875
-13 13 6 -16.9964 0.0899
-13 13 7 -2.6753 0.0069
-13 13 8 -2.2474 0.2560
-13 13 9 -0.2394 -0.0057
-13 13 10 -6.3809 0.1767
-13 13 11 6.7471 -0.0469
-13 13 12 -0.4763 0.0271
-13 13 13 -4.7864 0.0703
-13 13 14 -10.8013 -0.0107
-13 13 15 5.7632 0.1663
-13 13 16 -3.0282 -0.0665
-13 13 17 -1.9123 0.1353
-13 13 18 -5.8502 -0.2269
-13 13 19 -2.9586 -0.1004
-13 13 20 2.5398 -0.0648
-13 13 21 -5.4376 -0.0207
-13 13 22 -4.4033 0.3210
-13 13 23 7.1879 0.1034
-13 14 1 5.5102 0.0720
-13 14 2 1.6979 0.1816
-13 14 3 -4.7920 -0.1080
-13 14 4 -3.6622 0.1885
-13 14 5 -3.3065 -0.1191
-13 14 6 4.0704 0.2299
-13 14 7 -0.6509 0.0382
-13 14 8 -0.2705 0.0687
-13 14 9 4.9103 0.0588
-13 14 10 3.5173 -0.0446
-13 14 11 -2.0589 0.0557
-13 14 12 5.4447 -0.0330
-13 14 13 7.9603 0.1480
-13 14 14 -5.0886 -0.0171
-13 14 15 3.3696 0.1605
-13 14 16 -5.4836 0.0549
-13 14 17 2.8938 -0.0169
-13 14 18 9.3900 -0.1292
-13 14 19 6.8439 -0.2609
-13 14 20 -7.6878 -0.6308
-13 14 21 5.0648 0.1818
-13 15 1 1.3822 -0.1272
-13 15 2 -2.7341 0.0855
-13 15 3 3.7426 0.0059
-13 15 4 10.3969 0.0743
-13 15 5 -1.1022 -0.0330
-13 15 6 -1.0049 -0.0184
-13 15 7 1.5007 0.0229
-13 15 8 5.4867 0.0067
-13 15 9 -1.6981 0.2332
-13 15 10 1.5514 0.0941
-13 15 11 3.1258 0.1589
-13 15 12 2.2401 0.0674
-13 15 13 1.8304 -0.0884
-13 15 14 -5.4884 0.0401
-13 15 15 2.4036 -0.1732
-13 15 16 4.2012 -0.0653
-13 15 17 -0.3890 -0.3611
-13 15 18 -7.0196 -0.1193
-13 15 19 2.6465 -0.5140
-13 16 1 -16.6127 0.0827
-13 16 2 2.6600 -0.1277
-13 16 3 -6.1906 0.2218
-13 16 4 -0.2114 -0.1000
-13 16 5 -3.3647 0.1622
-13 16 6 -10.6906 -0.0827
-13 16 7 -9.5430 0.0341
-13 16 8 -3.1165 -0.1178
-13 16 9 -5.4509 -0.4002
-13 16 10 2.9994 -0.1466
-13 16 11 3.7624 -0.6545
-13 16 12 -9.2709 -0.0582
-13 16 13 -0.2322 -0.0419
-13 16 14 9.6935 0.2732
-13 16 15 6.7637 -0.0272
-13 16 16 2.5062 0.2615
-13 16 17 -5.5593 -0.1868
-13 17 1 3.0346 -0.3333
-13 17 2 7.0368 -0.5548
-13 17 3 2.8707 0.0305
-13 17 4 6.8163 -0.0928
-13 17 5 6.7418 0.6838
-13 17 6 11.6230 0.0128
-13 17 7 -0.2223 0.5542
-13 17 8 9.4626 -0.1733
-13 17 9 -2.0259 -0.2669
-13 17 10 -6.5886 -0.1879
-13 17 11 -4.4710 -0.7683
-13 17 12 -7.9097 -0.1415
-13 17 13 3.0631 -0.8522
-13 18 2 -3.7308 -1.0257
-13 18 3 3.9440 -0.4471
-13 18 4 1.1095 -0.4845
-13 18 5 -6.3719 -0.1366
-13 18 6 -12.3783 -0.1246
-13 18 7 0.8832 0.1313
-12 0 2 0.4199 -2.9925
-12 0 4 -32.0453 2.4343
-12 0 6 24.1420 1.8936
-12 0 8 -6.6306 -0.2599
-12 0 10 32.4587 -0.7649
-12 0 12 -2.9267 0.0515
-12 0 14 24.0786 0.4401
-12 0 16 -11.8849 -0.2136
-12 0 18 24.7276 -0.9194
-12 0 20 -15.1127 -0.5755
-12 0 22 13.1600 0.4926
-12 0 24 -3.5140 0.7897
-12 0 26 5.3260 0.2018
-12 0 28 -5.7643 -0.2874
-12 0 30 10.7887 -0.3064
-12 0 32 -7.9104 -0.1114
-12 1 1 12.3389 -0.6203
-12 1 2 24.0759 -0.2738
-12 1 3 -0.1378 -0.2984
-12 1 4 0.0546 0.2177
-12 1 5 12.2950 -0.2992
-12 1 6 -3.4468 0.9687
-12 1 7 -16.7989 -0.1365
-12 1 8 -3.9256 0.5831
-12 1 9 -8.1372 0.0364
-12 1 10 -4.5800 -0.9390
-12 1 11 -6.3755 0.0643
-12 1 12 -2.7431 -1.4389
-12 1 13 2.8344 0.0739
-12 1 14 -2.1428 -0.3388
-12 1 15 -2.6384 0.1040
-12 1 16 -7.9972 0.6876
-12 1 17 -13.0652 0.2057
-12 1 18 -4.6270 0.5841
-12 1 19 -7.1532 0.1290
-12 1 20 2.2035 0.0532
-12 1 21 5.0009 -0.0950
-12 1 22 -5.2581 -0.0487
-12 1 23 0.5825 -0.1395
-12 1 24 -0.2114 0.2039
-12 1 25 -9.6755 -0.0640
-12 1 26 -0.7713 0.2431
-12 1 27 7.6795 -0.0593
-12 1 28 1.1085 -0.0583
-12 1 29 6.7561 -0.0406
-12 1 30 -0.9076 -0.4313
-12 1 31 -3.4745 0.0919
-12 1 32 1.0011 -0.1598
-12 2 1 -19.9407 -1.0370
-12 2 2 19.2452 0.0428
-12 2 3 2.7765 -0.4354
-12 2 4 -14.2130 -0.7497
-12 2 5 -0.9316 -0.0729
-12 2 6 15.3784 -0.7480
-12 2 7 23.1851 -0.0326
-12 2 8 -20.3408 -0.3159
-12 2 9 -8.5594 -0.0728
-12 2 10 18.2537 -0.1083
-12 2 11 3.2767 0.0065
-12 2 12 -18.4471 0.0271
-12 2 13 -6.3157 0.0453
-12 2 14 11.1254 0.2037
-12 2 15 14.0028 -0.0234
-12 2 16 -14.1144 0.2913
-12 2 17 -12.0133 -0.0871
-12 2 18 18.7957 0.4094
-12 2 19 -2.9692 -0.0516
-12 2 20 -10.7527 0.2407
-12 2 21 -4.6853 0.0520
-12 2 22 -0.9595 -0.1636
-12 2 23 0.7362 0.0258
-12 2 24 -1.3051 -0.3288
-12 2 25 3.5446 -0.1146
-12 2 26 5.2510 -0.1597
-12 2 27 4.4576 -0.0671
-12 2 28 -15.5011 0.0347
-12 2 29 1.9930 0.1814
-12 2 30 2.5812 0.0010
-12 2 31 -1.0209 -0.1083
-12 2 32 -11.2750 -0.1042
-12 3 1 14.5816 -0.0686
-12 3 2 0.1249 0.0247
-12 3 3 -1.7308 -0.0925
-12 3 4 -18.6954 -0.0360
-12 3 5 2.2264 -0.2622
-12 3 6 -3.5711 -0.2072
-12 3 7 1.4003 -0.1529
-12 3 8 -15.7957 -0.0103
-12 3 9 8.9946 -0.0025
-12 3 10 8.1644 0.3057
-12 3 11 -1.8625 0.0032
-12 3 12 -2.2259 0.3493
-12 3 13 -1.4989 0.0121
-12 3 14 -6.0657 0.1791
-12 3 15 2.9137 0.0418
-12 3 16 6.8578 0.0040
-12 3 17 5.2049 0.0882
-12 3 18 11.3443 -0.0741
-12 3 19 2.7202 0.1053
-12 3 20 5.7431 -0.0512
-12 3 21 3.5748 0.0571
-12 3 22 -3.7323 -0.1501
-12 3 23 -2.4968 -0.0715
-12 3 24 1.7674 -0.1791
-12 3 25 3.7784 -0.0819
-12 3 26 0.5570 -0.0211
-12 3 27 5.9375 -0.0277
-12 3 28 0.9964 0.1911
-12 3 29 3.7803 0.0343
-12 3 30 1.4615 0.1882
-12 3 31 -2.2129 -0.0304
-12 3 32 -4.5363 -0.1400
-12 4 1 -0.0746 -0.0301
-12 4 2 5.6284 0.0829
-12 4 3 22.0555 0.2265
-12 4 4 2.3588 0.4326
-12 4 5 -2.4135 0.0911
-12 4 6 0.8550 0.3720
-12 4 7 22.4526 0.0048
-12 4 8 -13.3915 -0.0147
-12 4 9 -1.2488 -0.0450
-12 4 10 7.5794 -0.2252
-12 4 11 20.5767 -0.0112
-12 4 12 3.9920 0.0635
-12 4 13 -6.9170 0.1650
-12 4 14 11.8856 0.2276
-12 4 15 13.8240 0.1867
-12 4 16 -6.6788 -0.0364
-12 4 17 -13.9496 -0.0432
-12 4 18 -0.3116 -0.2895
-12 4 19 13.6700 -0.1201
-12 4 20 -2.5807 -0.2034
-12 4 21 -10.6288 -0.0510
-12 4 22 0.0184 0.1123
-12 4 23 11.6307 -0.0127
-12 4 24 -0.9135 0.1674
-12 4 25 -13.1671 -0.0764
-12 4 26 -1.7615 0.0061
-12 4 27 2.4559 -0.0158
-12 4 28 -5.4884 -0.1191
-12 4 29 -2.8593 0.0763
-12 4 30 1.6940 0.0592
-12 4 31 0.6463 -0.0828
-12 5 1 -4.2073 -0.1598
-12 5 2 9.2732 -0.1134
-12 5 3 -2.9830 0.0100
-12 5 4 -23.8069 0.2150
-12 5 5 -6.2325 0.1317
-12 5 6 0.4869 0.3500
-12 5 7 3.4890 0.0894
-12 5 8 -17.4531 0.1477
-12 5 9 -4.4582 0.0171
-12 5 10 -3.7950 -0.1813
-12 5 11 -6.4905 0.0420
-12 5 12 -14.8851 -0.2572
-12 5 13 -6.7980 0.0201
-12 5 14 7.6536 -0.0285
-12 5 15 -7.8056 -0.0391
-12 5 16 3.4615 0.1159
-12 5 17 0.9020 0.0301
-12 5 18 -7.8014 0.1204
-12 5 19 -0.3840 -0.0000
-12 5 20 -1.0435 0.0041
-12 5 21 -1.3670 -0.1008
-12 5 22 3.5231 -0.0703
-12 5 23 -5.0874 -0.1381
-12 5 24 0.9665 -0.1169
-12 5 25 14.2975 -0.0354
-12 5 26 3.1053 0.0663
-12 5 27 -5.9667 0.0476
-12 5 28 -7.8924 0.0934
-12 5 29 -0.1254 -0.0043
-12 5 30 4.7467 -0.2042
-12 5 31 0.6618 -0.0648
-12 6 1 -8.1126 -0.2179
-12 6 2 9.8735 0.1461
-12 6 3 19.0046 -0.2926
-12 6 4 7.3147 -0.0849
-12 6 5 -6.8349 -0.0090
-12 6 6 -2.4288 -0.0627
-12 6 7 9.9604 0.2751
-12 6 8 -2.1051 0.0700
-12 6 9 11.9696 0.1964
-12 6 10 0.3851 0.0684
-12 6 11 -9.2779 -0.0489
-12 6 12 0.8875 -0.0280
-12 6 13 -12.6985 -0.0427
-12 6 14 -0.0090 -0.0406
-12 6 15 5.5800 -0.0038
-12 6 16 6.2594 0.0352
-12 6 17 -16.5142 -0.0437
-12 6 18 -0.8344 0.0489
-12 6 19 12.6431 -0.0593
-12 6 20 6.5258 -0.0475
-12 6 21 -13.7378 -0.0701
-12 6 22 -6.9093 -0.0959
-12 6 23 -1.4117 -0.0100
-12 6 24 6.5462 -0.0332
-12 6 25 -9.5752 -0.0396
-12 6 26 -7.1607 -0.0891
-12 6 27 10.4342 0.0910
-12 6 28 4.1356 -0.0462
-12 6 29 -6.3742 0.0095
-12 6 30 -1.6102 -0.0694
-12 6 31 5.4535 0.1366
-12 7 1 -16.4277 0.1305
-12 7 2 -3.9788 0.0378
-12 7 3 1.3959 -0.0766
-12 7 4 -4.4284 -0.0273
-12 7 5 -4.9867 0.0094
-12 7 6 1.8214 -0.1379
-12 7 7 1.2146 0.1760
-12 7 8 4.2902 -0.1129
-12 7 9 -3.7179 0.1455
-12 7 10 -5.8947 0.0906
-12 7 11 7.2576 -0.0101
-12 7 12 2.6196 0.2220
-12 7 13 0.9030 -0.1648
-12 7 14 13.2916 0.0940
-12 7 15 1.3033 -0.1258
-12 7 16 7.2367 -0.1757
-12 7 17 -0.1808 0.0066
-12 7 18 11.4131 -0.0846
-12 7 19 -2.5149 0.1273
-12 7 20 0.7269 0.0748
-12 7 21 4.7984 0.0407
-12 7 22 6.8941 0.0441
-12 7 23 -1.4395 0.0608
-12 7 24 3.6025 -0.0973
-12 7 25 4.2391 0.0460
-12 7 26 4.4395 -0.0489
-12 7 27 -7.2513 0.0695
-12 7 28 -8.7715 0.1192
-12 7 29 0.8037 -0.1273
-12 7 30 -9.8753 -0.2909
-12 8 1 -4.5702 0.0451
-12 8 2 -7.3175 0.1785
-12 8 3 10.1016 0.1122
-12 8 4 5.6886 0.0836
-12 8 5 -4.9644 -0.0125
-12 8 6 -6.7584 0.0170
-12 8 7 12.1056 -0.1134
-12 8 8 17.1326 0.0269
-12 8 9 -9.6832 -0.1573
-12 8 10 -10.8435 0.0743
-12 8 11 15.7178 -0.0982
-12 8 12 10.4690 0.0538
-12 8 13 -10.8433 -0.0225
-12 8 14 -15.3519 -0.0420
-12 8 15 -11.5202 0.0031
-12 8 16 4.9241 -0.1326
-12 8 17 -14.4976 0.0246
-12 8 18 -6.0800 -0.1341
-12 8 19 4.0814 0.1100
-12 8 20 8.5923 -0.0188
-12 8 21 -12.0813 0.0827
-12 8 22 -14.9680 0.1540
-12 8 23 10.3100 0.0703
-12 8 24 7.1250 0.1214
-12 8 25 -5.5070 0.0268
-12 8 26 -2.6871 -0.0580
-12 8 27 8.4225 -0.0795
-12 8 28 0.3683 0.1385
-12 8 29 4.3041 0.1069
-12 9 1 0.6661 -0.0535
-12 9 2 -3.3995 0.0914
-12 9 3 10.1737 -0.0779
-12 9 4 -8.6845 0.1024
-12 9 5 -0.2250 -0.0441
-12 9 6 5.2068 0.0757
-12 9 7 6.8856 -0.0891
-12 9 8 -13.9588 -0.0342
-12 9 9 0.0976 -0.1803
-12 9 10 -3.3449 -0.1487
-12 9 11 6.1451 -0.1099
-12 9 12 3.0215 -0.1986
-12 9 13 6.9631 0.0720
-12 9 14 7.6665 -0.1503
-12 9 15 6.0662 0.1970
-12 9 16 2.4545 -0.0400
-12 9 17 -15.1647 0.0388
-12 9 18 4.6108 0.0121
-12 9 19 6.8310 -0.1205
-12 9 20 1.4455 0.0785
-12 9 21 2.7363 -0.0100
-12 9 22 5.1570 0.0357
-12 9 23 1.3756 0.0897
-12 9 24 -4.5362 0.1066
-12 9 25 2.5844 -0.0022
-12 9 26 -0.9258 0.0422
-12 9 27 -2.0194 -0.1330
-12 9 28 -9.0293 -0.1639
-12 9 29 4.1385 0.0018
-12 10 1 -8.6579 -0.2056
-12 10 2 -22.0487 0.0351
-12 10 3 2.3920 -0.1632
-12 10 4 4.1263 -0.0818
-12 10 5 8.5490 -0.0477
-12 10 6 -13.3575 -0.1504
-12 10 7 13.2605 0.1109
-12 10 8 2.1224 -0.0924
-12 10 9 6.3662 0.0938
-12 10 10 -15.8993 -0.1002
-12 10 11 -3.4358 0.0419
-12 10 12 4.3644 -0.0832
-12 10 13 0.1850 -0.0003
-12 10 14 -17.2499 -0.0535
-12 10 15 -7.0201 0.0039
-12 10 16 2.0266 0.0315
-12 10 17 -1.1119 0.0559
-12 10 18 8.5344 0.0432
-12 10 19 0.2639 0.0823
-12 10 20 0.6746 0.0865
-12 10 21 -4.3883 -0.0867
-12 10 22 -5.2340 0.0618
-12 10 23 -0.0004 -0.0108
-12 10 24 8.4558 -0.0121
-12 10 25 1.1632 -0.0179
-12 10 26 -11.6342 0.0491
-12 10 27 -8.1317 -0.0366
-12 10 28 2.2957 0.0914
-12 11 1 -0.4901 -0.0466
-12 11 2 -3.0708 0.0033
-12 11 3 3.6131 -0.0151
-12 11 4 -8.5451 -0.0598
-12 11 5 -12.1587 -0.0114
-12 11 6 -9.5239 -0.1009
-12 11 7 -3.1610 0.0863
-12 11 8 -0.7733 -0.1342
-12 11 9 3.5542 0.0339
-12 11 10 7.4909 -0.0584
-12 11 11 3.6052 -0.0136
-12 11 12 -3.2503 -0.0082
-12 11 13 0.1983 -0.0229
-12 11 14 1.5120 0.0203
-12 11 15 7.2911 -0.0250
-12 11 16 3.5514 0.0782
-12 11 17 -3.9440 -0.0377
-12 11 18 7.2702 0.0855
-12 11 19 -0.5809 -0.0469
-12 11 20 -1.1662 -0.1164
-12 11 21 1.0481 0.1271
-12 11 22 -3.2940 -0.0002
-12 11 23 -2.0639 -0.0467
-12 11 24 7.4769 -0.0119
-12 11 25 4.7927 -0.1801
-12 11 26 3.6718 -0.3220
-12 11 27 -13.9921 0.1200
-12 12 1 6.2225 -0.0179
-12 12 2 -5.3229 -0.0344
-12 12 3 1.1752 0.0611
-12 12 4 15.2206 0.0330
-12 12 5 3.2179 0.0857
-12 12 6 3.7775 -0.0949
-12 12 7 -5.0866 -0.0236
-12 12 8 -1.9429 -0.0691
-12 12 9 -5.7872 -0.0644
-12 12 10 0.6465 0.0121
-12 12 11 -2.0704 0.0007
-12 12 12 12.5798 0.1981
-12 12 13 3.9768 0.0474
-12 12 14 -6.3120 0.1212
-12 12 15 -13.2482 0.0902
-12 12 16 6.4609 -0.0813
-12 12 17 4.5471 0.0828
-12 12 18 -9.6954 -0.1602
-12 12 19 -9.9516 0.0809
-12 12 20 0.4051 0.1328
-12 12 21 1.2942 0.0231
-12 12 22 0.5645 0.1190
-12 12 23 -6.3687 -0.0953
-12 12 24 10.0505 -0.2760
-12 12 25 -0.7468 -0.2369
-12 12 26 -5.5622 -0.4470
-12 13 1 -0.5553 0.0478
-12 13 2 -1.4129 -0.0973
-12 13 3 1.7684 0.0351
-12 13 4 3.3268 0.0058
-12 13 5 2.1489 0.0090
-12 13 6 1.9026 0.0802
-12 13 7 5.5464 -0.0542
-12 13 8 3.1070 0.1718
-12 13 9 -0.0776 -0.1609
-12 13 10 -3.5810 0.1465
-12 13 11 0.2852 -0.0155
-12 13 12 -2.4885 0.0282
-12 13 13 -5.2725 0.0954
-12 13 14 7.7872 0.0734
-12 13 15 5.4676 0.1391
-12 13 16 6.7638 0.1138
-12 13 17 -5.4993 -0.0140
-12 13 18 9.3907 -0.0953
-12 13 19 2.2186 0.1110
-12 13 20 -2.3393 -0.1613
-12 13 21 3.2915 0.0016
-12 13 22 2.1485 0.0681
-12 13 23 -2.8018 0.0440
-12 13 24 6.3177 -0.1803
-12 13 25 5.7737 0.0867
-12 14 1 8.8523 -0.0878
-12 14 2 3.0973 -0.0612
-12 14 3 -1.5872 -0.1289
-12 14 4 -5.1638 0.0201
-12 14 5 -0.7043 0.0096
-12 14 6 -5.8949 0.2675
-12 14 7 -8.6915 0.0840
-12 14 8 -7.2235 0.2937
-12 14 9 11.2783 0.0216
-12 14 10 -1.0472 0.0778
-12 14 11 -5.5782 -0.1806
-12 14 12 -11.4181 -0.0349
-12 14 13 7.2326 -0.1020
-12 14 14 4.1947 -0.0918
-12 14 15 -18.4792 0.1336
-12 14 16 -2.4412 0.0674
-12 14 17 7.4055 0.0418
-12 14 18 -3.0791 0.0527
-12 14 19 -10.9109 -0.0469
-12 14 20 -2.9193 0.0164
-12 14 21 2.0553 -0.0217
-12 14 22 -4.3922 -0.2164
-12 14 23 -6.9489 -0.0307
-12 15 1 -6.4937 0.2060
-12 15 2 1.4084 -0.1389
-12 15 3 6.1135 -0.0157
-12 15 4 4.3520 -0.1041
-12 15 5 4.2909 -0.0825
-12 15 6 0.6168 0.0953
-12 15 7 8.3170 -0.0166
-12 15 8 -4.4155 0.2284
-12 15 9 -0.7620 -0.0106
-12 15 10 3.8279 0.1598
-12 15 11 6.8647 0.2460
-12 15 12 -4.9237 0.1232
-12 15 13 2.7084 0.1525
-12 15 14 -0.1256 -0.0708
-12 15 15 6.0350 0.0230
-12 15 16 -1.5963 -0.1024
-12 15 17 -0.8062 -0.0973
-12 15 18 8.9599 -0.3925
-12 15 19 3.7264 -0.3232
-12 15 20 -8.0758 0.2209
-12 15 21 0.8244 0.0997
-12 15 22 5.4972 0.1229
-12 16 1 4.4514 0.1290
-12 16 2 -0.4425 0.0982
-12 16 3 -3.4856 -0.0341
-12 16 4 -7.8890 0.1143
-12 16 5 2.2066 -0.0129
-12 16 6 -5.0786 0.0202
-12 16 7 0.7925 -0.0263
-12 16 8 5.4801 -0.0444
-12 16 9 7.2399 0.0249
-12 16 10 3.2872 0.0086
-12 16 11 -7.4107 0.0869
-12 16 12 -3.0653 0.0515
-12 16 13 11.2175 -0.0912
-12 16 14 0.0025 -0.0119
-12 16 15 -5.4359 -0.2502
-12 16 16 7.7806 0.1132
-12 16 17 4.2174 -0.3204
-12 16 18 -10.5800 -0.3693
-12 16 19 4.3763 -0.0074
-12 17 1 4.2212 -0.1676
-12 17 2 -6.0121 -0.0323
-12 17 3 -0.7118 -0.0471
-12 17 4 1.9816 0.0901
-12 17 5 -1.6940 0.1131
-12 17 6 3.0868 0.0957
-12 17 7 0.8570 -0.0710
-12 17 8 -6.9834 -0.0254
-12 17 9 -4.4490 -0.2625
-12 17 10 -6.3529 -0.2573
-12 17 11 -1.5388 -0.2755
-12 17 12 6.7621 0.1118
-12 17 13 1.5432 -0.0171
-12 17 14 5.5971 0.0527
-12 17 15 -12.0900 -0.1949
-12 17 16 -5.6572 -0.0197
-12 18 1 -4.3578 -0.0684
-12 18 2 -7.3016 -0.2285
-12 18 3 -0.3001 0.2184
-12 18 4 0.4336 0.1566
-12 18 5 7.1073 0.2647
-12 18 6 6.8916 0.1901
-12 18 7 -9.1889 -0.0846
-12 18 8 -3.0013 -0.4846
-12 18 9 11.3816 -0.4210
-12 18 10 4.6043 -0.7124
-12 18 11 -1.5604 -0.4779
-12 18 12 -11.2395 0.0365
-12 18 13 -7.9373 -0.0779
-12 19 2 3.9918 -0.7143
-12 19 3 -0.6989 -0.2561
-12 19 4 -16.6719 -0.3933
-12 19 5 13.1854 0.1877
-12 19 6 6.8557 0.1617
-12 19 7 -5.2535 0.1093
-11 0 2 24.8600 -1.6569
-11 0 4 -5.2800 1.4182
-11 0 6 -6.4773 0.1968
-11 0 8 -26.4653 -0.4587
-11 0 10 19.0320 0.3120
-11 0 12 4.4239 0.9362
-11 0 14 3.1585 0.3513
-11 0 16 -9.4832 -0.9255
-11 0 18 17.0536 -1.2135
-11 0 20 5.4896 -0.1632
-11 0 22 5.9714 0.6728
-11 0 24 -8.0156 0.3832
-11 0 26 -4.3787 -0.1633
-11 0 28 -11.9112 -0.1193
-11 0 30 7.5857 0.1761
-11 0 32 0.2508 0.0971
-11 1 1 -20.1544 0.4805
-11 1 2 -28.7724 0.3369
-11 1 3 12.2701 -0.1304
-11 1 4 3.6181 1.1479
-11 1 5 -28.3525 -0.0763
-11 1 6 8.9483 1.5819
-11 1 7 19.7515 0.0845
-11 1 8 -2.3681 0.2043
-11 1 9 -22.0161 0.0167
-11 1 10 1.4558 -1.2667
-11 1 11 19.2067 -0.2357
-11 1 12 12.7920 -0.9152
-11 1 13 -32.5698 -0.1516
-11 1 14 7.6476 0.1868
-11 1 15 25.8588 0.1393
-11 1 16 7.9781 0.2923
-11 1 17 -18.6404 0.2972
-11 1 18 -17.0842 -0.2055
-11 1 19 14.6432 0.1792
-11 1 20 4.1861 -0.1752
-11 1 21 -12.7048 0.0040
-11 1 22 6.4370 0.3663
-11 1 23 8.3582 -0.0714
-11 1 24 7.1770 0.6198
-11 1 25 -13.7028 -0.0483
-11 1 26 -0.7182 0.3062
-11 1 27 19.6253 -0.0394
-11 1 28 0.7012 -0.2684
-11 1 29 -2.7578 -0.2643
-11 1 30 -1.4425 -0.4921
-11 1 31 -3.3209 -0.0584
-11 1 32 1.6310 -0.1167
-11 1 33 4.1871 0.0366
-11 2 1 -5.6343 -0.9908
-11 2 2 17.5481 -0.3302
-11 2 3 13.7351 -0.5555
-11 2 4 -0.7295 -0.3957
-11 2 5 -20.3737 -0.0467
-11 2 6 31.0915 -0.3192
-11 2 7 7.6523 0.0916
-11 2 8 -2.2702 -0.3040
-11 2 9 0.4175 -0.0175
-11 2 10 16.5191 -0.4580
-11 2 11 0.9142 -0.1094
-11 2 12 4.3090 -0.3948
-11 2 13 -16.9168 -0.0581
-11 2 14 0.7811 -0.0562
-11 2 15 -4.8401 -0.0354
-11 2 16 -5.5229 0.3598
-11 2 17 0.4528 -0.0529
-11 2 18 9.1000 0.5835
-11 2 19 15.5584 0.0564
-11 2 20 -11.8072 0.3199
-11 2 21 -9.5330 0.0585
-11 2 22 3.0813 -0.1115
-11 2 23 -8.1390 -0.0408
-11 2 24 1.9444 -0.2329
-11 2 25 0.4348 -0.0829
-11 2 26 -5.0918 -0.0429
-11 2 27 -8.9969 0.0096
-11 2 28 -0.8199 -0.1157
-11 2 29 0.4560 -0.0376
-11 2 30 -0.3683 -0.2038
-11 2 31 3.7803 -0.1374
-11 2 32 -4.5806 -0.0199
-11 2 33 4.0609 0.1622
-11 3 1 -25.0024 -0.3190
-11 3 2 -11.9109 0.0649
-11 3 3 14.2014 -0.4959
-11 3 4 12.6720 -0.5822
-11 3 5 -11.1356 -0.1547
-11 3 6 -17.6679 -0.4998
-11 3 7 -6.1782 0.1753
-11 3 8 18.5234 0.0261
-11 3 9 -18.0297 0.0681
-11 3 10 -19.5310 0.4205
-11 3 11 3.4543 -0.1674
-11 3 12 13.5237 0.3406
-11 3 13 -6.3496 -0.1336
-11 3 14 -5.9695 0.1544
-11 3 15 -2.2489 0.0396
-11 3 16 -0.9771 0.0498
-11 3 17 -20.0171 0.1765
-11 3 18 -9.5700 0.0835
-11 3 19 5.6247 0.1956
-11 3 20 7.0054 0.0283
-11 3 21 -3.0143 0.0485
-11 3 22 -4.3512 -0.1044
-11 3 23 2.7114 -0.0989
-11 3 24 9.5377 -0.1972
-11 3 25 -4.1697 -0.0348
-11 3 26 4.6746 -0.1144
-11 3 27 11.6291 0.0260
-11 3 28 -1.4388 0.1808
-11 3 29 2.7847 -0.1256
-11 3 30 -0.9509 -0.0053
-11 3 31 -1.5986 -0.1106
-11 3 32 -1.2692 0.1016
-11 3 33 1.6131 0.0918
-11 4 1 -4.2811 -0.0453
-11 4 2 -9.4880 0.1214
-11 4 3 21.5675 -0.0569
-11 4 4 -7.3660 0.2176
-11 4 5 -5.6248 -0.0039
-11 4 6 -3.6855 -0.0495
-11 4 7 18.7447 -0.0801
-11 4 8 6.6592 -0.2031
-11 4 9 -5.2034 -0.1384
-11 4 10 6.3949 0.0443
-11 4 11 0.6997 -0.0020
-11 4 12 -15.4734 0.3232
-11 4 13 -2.9895 0.1409
-11 4 14 8.7011 0.1394
-11 4 15 6.3361 0.1282
-11 4 16 8.4232 -0.2546
-11 4 17 0.1064 -0.0037
-11 4 18 8.2337 -0.3176
-11 4 19 -1.8089 -0.0127
-11 4 20 -10.0676 -0.0002
-11 4 21 4.6688 -0.0062
-11 4 22 10.7177 0.1714
-11 4 23 -11.7374 -0.0083
-11 4 24 3.0882 0.1221
-11 4 25 2.6683 -0.0814
-11 4 26 -0.4523 0.0266
-11 4 27 -2.0182 -0.0447
-11 4 28 -9.0383 0.0044
-11 4 29 -1.4681 0.0029
-11 4 30 -1.7802 0.0017
-11 4 31 8.0497 0.0647
-11 4 32 -3.4803 -0.0884
-11 5 1 5.4890 -0.0171
-11 5 2 -26.2458 0.0030
-11 5 3 7.3686 0.1848
-11 5 4 9.5464 0.2577
-11 5 5 4.6008 0.1479
-11 5 6 -20.1089 0.3030
-11 5 7 -3.5321 0.0276
-11 5 8 4.9919 0.0207
-11 5 9 9.2821 -0.0145
-11 5 10 5.7047 -0.1447
-11 5 11 8.9410 0.0692
-11 5 12 16.0585 -0.0861
-11 5 13 14.0698 0.0647
-11 5 14 -17.3984 0.0451
-11 5 15 -6.5695 0.0510
-11 5 16 15.8476 0.0571
-11 5 17 0.4217 0.0112
-11 5 18 -11.3043 -0.0626
-11 5 19 3.3547 -0.0448
-11 5 20 15.3112 -0.0623
-11 5 21 5.9449 -0.1215
-11 5 22 -10.0402 0.0695
-11 5 23 3.1371 -0.1218
-11 5 24 8.8447 0.0890
-11 5 25 1.1551 -0.0112
-11 5 26 -0.1072 0.0082
-11 5 27 2.2251 0.0698
-11 5 28 9.9784 -0.0182
-11 5 29 -1.9445 0.1122
-11 5 30 -11.5849 -0.1298
-11 5 31 0.7092 -0.1500
-11 5 32 -4.5763 -0.0282
-11 6 1 -9.7639 -0.3165
-11 6 2 -13.9246 0.0772
-11 6 3 13.1907 -0.1699
-11 6 4 -1.1896 0.0454
-11 6 5 3.3198 0.1909
-11 6 6 -2.4120 0.1334
-11 6 7 -6.3575 0.1981
-11 6 8 0.0013 0.0645
-11 6 9 -13.1692 -0.0436
-11 6 10 -13.5646 -0.1605
-11 6 11 -0.1862 -0.0653
-11 6 12 -6.0516 -0.1275
-11 6 13 -5.3110 0.0909
-11 6 14 5.7961 0.0253
-11 6 15 6.2263 0.1154
-11 6 16 -16.3935 0.1321
-11 6 17 -6.9124 -0.0783
-11 6 18 -3.8851 0.0505
-11 6 19 -2.4763 -0.2148
-11 6 20 -8.5526 -0.0691
-11 6 21 -2.8347 -0.1400
-11 6 22 -2.1642 -0.0550
-11 6 23 8.9708 -0.0507
-11 6 24 -9.2553 -0.0186
-11 6 25 -4.7642 0.0725
-11 6 26 1.9265 -0.0345
-11 6 27 1.4476 0.0600
-11 6 28 -0.1099 0.0251
-11 6 29 -7.4657 -0.0302
-11 6 30 -2.3983 0.1138
-11 6 31 6.3829 0.1260
-11 6 32 7.4933 -0.3973
-11 7 1 13.0528 -0.0973
-11 7 2 -17.2810 0.0118
-11 7 3 -7.1579 -0.1540
-11 7 4 1.1562 -0.0778
-11 7 5 10.3953 0.1403
-11 7 6 -22.4145 -0.1086
-11 7 7 7.4233 0.3185
-11 7 8 16.0230 -0.0865
-11 7 9 5.3796 0.2290
-11 7 10 -3.6717 0.1208
-11 7 11 -7.5974 0.0003
-11 7 12 12.8355 0.1909
-11 7 13 4.3008 -0.1836
-11 7 14 -18.4156 0.0054
-11 7 15 -0.1522 -0.1453
-11 7 16 15.4531 -0.0534
-11 7 17 14.7175 0.0692
-11 7 18 1.6588 0.0371
-11 7 19 -0.4997 0.0358
-11 7 20 3.3935 0.0893
-11 7 21 0.7029 -0.1116
-11 7 22 -11.5970 -0.0816
-11 7 23 -7.0260 -0.0816
-11 7 24 0.0341 -0.1669
-11 7 25 5.3246 0.0636
-11 7 26 -5.6234 0.0076
-11 7 27 0.2988 0.1702
-11 7 28 11.1882 0.1098
-11 7 29 -3.3127 0.0657
-11 7 30 -8.7714 -0.0928
-11 7 31 -7.5811 -0.2933
-11 8 1 -2.5766 0.1858
-11 8 2 5.0164 0.0437
-11 8 3 23.2829 0.1776
-11 8 4 4.9779 -0.0290
-11 8 5 -1.7097 0.1249
-11 8 6 -13.8419 -0.0712
-11 8 7 5.8483 0.0428
-11 8 8 -6.6512 0.0250
-11 8 9 -0.4882 -0.0651
-11 8 10 0.4265 0.1696
-11 8 11 0.5449 -0.1472
-11 8 12 5.4231 0.1568
-11 8 13 -8.1639 -0.0573
-11 8 14 4.8036 0.0501
-11 8 15 0.6720 -0.0002
-11 8 16 -3.5807 -0.0676
-11 8 17 -3.5658 -0.0527
-11 8 18 3.5304 -0.1403
-11 8 19 3.7094 -0.0037
-11 8 20 -1.3548 -0.1107
-11 8 21 -11.3739 0.0569
-11 8 22 3.8813 0.1402
-11 8 23 7.9194 0.0470
-11 8 24 6.9598 0.0895
-11 8 25 -2.2370 -0.0001
-11 8 26 -0.1126 -0.0625
-11 8 27 -2.2039 -0.0739
-11 8 28 4.0260 -0.0174
-11 8 29 -0.1266 0.0412
-11 8 30 3.8554 -0.2291
-11 9 1 3.8015 -0.0035
-11 9 2 -17.2721 0.0215
-11 9 3 -18.0179 0.0626
-11 9 4 1.7741 0.0730
-11 9 5 8.8672 0.0711
-11 9 6 2.2448 0.1138
-11 9 7 -11.1969 -0.0995
-11 9 8 9.6779 0.0134
-11 9 9 19.3503 -0.2222
-11 9 10 -9.5986 -0.0155
-11 9 11 -16.4231 -0.1287
-11 9 12 14.0213 -0.0118
-11 9 13 6.5624 0.0270
-11 9 14 3.7853 -0.0465
-11 9 15 -6.0521 0.0842
-11 9 16 4.4466 -0.1494
-11 9 17 5.9880 0.0732
-11 9 18 -2.8545 -0.0924
-11 9 19 -11.9727 0.0166
-11 9 20 2.8660 0.0808
-11 9 21 9.3694 0.0720
-11 9 22 -2.6184 0.1234
-11 9 23 -11.2319 0.0687
-11 9 24 10.7006 -0.0061
-11 9 25 0.1328 -0.0550
-11 9 26 -2.2358 -0.0104
-11 9 27 -0.3813 -0.0017
-11 9 28 -0.1399 0.1114
-11 9 29 -2.7628 -0.2182
-11 9 30 -5.8813 -0.2279
-11 10 1 6.7620 -0.0458
-11 10 2 1.3358 0.0130
-11 10 3 7.9689 -0.0313
-11 10 4 12.4454 0.0147
-11 10 5 -7.5660 -0.0015
-11 10 6 -0.3535 0.0240
-11 10 7 -5.9396 -0.0662
-11 10 8 0.6770 -0.0038
-11 10 9 4.1992 -0.0835
-11 10 10 -4.5048 -0.1054
-11 10 11 -0.1668 0.0204
-11 10 12 -1.7387 -0.2307
-11 10 13 -11.0996 0.0488
-11 10 14 -5.8926 -0.0899
-11 10 15 -4.3013 0.1236
-11 10 16 -0.0881 0.0310
-11 10 17 1.6305 0.0452
-11 10 18 -4.8964 0.0024
-11 10 19 -0.4521 -0.0558
-11 10 20 4.7995 0.0003
-11 10 21 2.1394 -0.0393
-11 10 22 -3.8702 0.0617
-11 10 23 1.0137 0.0772
-11 10 24 1.9655 -0.0061
-11 10 25 3.1965 0.0981
-11 10 26 1.7282 0.1296
-11 10 27 1.5518 -0.0117
-11 10 28 -5.2626 -0.0463
-11 10 29 5.5262 0.3210
-11 11 1 3.9582 -0.1293
-11 11 2 2.4466 -0.0040
-11 11 3 -6.1887 -0.2236
-11 11 4 -4.4696 -0.0971
-11 11 5 16.3406 -0.1127
-11 11 6 -1.6164 -0.0749
-11 11 7 0.2021 0.0504
-11 11 8 1.1157 -0.0422
-11 11 9 9.7874 0.0828
-11 11 10 2.3810 -0.0490
-11 11 11 -2.7555 -0.0510
-11 11 12 -2.3823 -0.0885
-11 11 13 19.1920 -0.0495
-11 11 14 3.5733 -0.0979
-11 11 15 -8.1934 0.0297
-11 11 16 -1.7007 0.0316
-11 11 17 11.0347 -0.0463
-11 11 18 4.9123 0.0682
-11 11 19 -0.0043 -0.0541
-11 11 20 -6.6426 0.0423
-11 11 21 9.3791 0.0651
-11 11 22 0.3591 0.0216
-11 11 23 -3.4400 0.0970
-11 11 24 -4.9511 0.0868
-11 11 25 2.0376 -0.1103
-11 11 26 -5.5363 0.0052
-11 11 27 0.6511 -0.1594
-11 11 28 -2.5498 0.0046
-11 12 1 5.2641 -0.0126
-11 12 2 -15.1864 0.0231
-11 12 3 -9.7706 0.0392
-11 12 4 3.2037 -0.1323
-11 12 5 2.2703 -0.0621
-11 12 6 -9.4755 -0.1407
-11 12 7 4.4854 -0.0810
-11 12 8 -2.8106 -0.1329
-11 12 9 -3.0620 -0.0465
-11 12 10 -11.2771 -0.0204
-11 12 11 -7.2347 -0.0115
-11 12 12 -6.2329 0.1295
-11 12 13 5.3107 -0.0301
-11 12 14 -9.7186 0.1032
-11 12 15 -0.9770 0.0059
-11 12 16 1.1586 -0.0586
-11 12 17 4.0217 -0.0099
-11 12 18 -1.2030 -0.0297
-11 12 19 0.4350 0.0037
-11 12 20 -1.2314 -0.0202
-11 12 21 4.4868 0.1319
-11 12 22 -9.6629 0.1081
-11 12 23 -1.1787 -0.0055
-11 12 24 1.2543 -0.0952
-11 12 25 -2.6103 -0.3440
-11 12 26 -1.4759 -0.3408
-11 12 27 3.0772 0.2089
-11 13 1 8.5471 0.1651
-11 13 2 5.8819 -0.0658
-11 13 3 1.9464 0.0920
-11 13 4 7.2142 0.0347
-11 13 5 2.8962 0.0361
-11 13 6 -4.1360 0.0625
-11 13 7 -9.4792 -0.0783
-11 13 8 2.1668 -0.0299
-11 13 9 5.1447 -0.1014
-11 13 10 12.0229 -0.0635
-11 13 11 0.0539 0.0270
-11 13 12 -4.6001 0.0252
-11 13 13 3.6301 0.2248
-11 13 14 6.7394 0.1682
-11 13 15 2.7799 0.1146
-11 13 16 -9.1125 0.1366
-11 13 17 6.0433 0.1029
-11 13 18 -0.3716 -0.1187
-11 13 19 -4.8914 0.0272
-11 13 20 -4.0078 -0.1419
-11 13 21 -1.0398 0.0212
-11 13 22 12.7243 -0.0197
-11 13 23 1.8328 -0.2052
-11 13 24 -14.2155 -0.1512
-11 13 25 2.3577 -0.1621
-11 13 26 9.1755 -0.1267
-11 14 1 -6.3443 -0.0917
-11 14 2 -6.4811 -0.1508
-11 14 3 -11.1608 -0.0174
-11 14 4 9.1251 0.0457
-11 14 5 4.0283 0.0174
-11 14 6 4.2330 0.1474
-11 14 7 3.1298 0.0373
-11 14 8 6.7622 0.0877
-11 14 9 -13.8632 -0.0742
-11 14 10 -2.5612 0.1054
-11 14 11 -0.4925 -0.0377
-11 14 12 5.2847 0.0395
-11 14 13 -6.3082 0.0910
-11 14 14 -1.5951 0.0195
-11 14 15 0.3275 0.2098
-11 14 16 4.3271 -0.0679
-11 14 17 0.4780 -0.0347
-11 14 18 -1.4241 0.1135
-11 14 19 5.6948 0.0831
-11 14 20 5.5823 0.0493
-11 14 21 -1.8829 0.0779
-11 14 22 1.0311 0.0044
-11 14 23 8.4284 -0.2093
-11 14 24 2.7539 -0.4847
-11 14 25 -14.7580 -0.2791
-11 15 1 10.3145 -0.0013
-11 15 2 16.0941 -0.0335
-11 15 3 -6.4269 -0.1503
-11 15 4 -2.4747 0.0303
-11 15 5 -4.5096 0.0359
-11 15 6 -2.8808 0.2081
-11 15 7 0.5574 0.1488
-11 15 8 -3.0042 0.1716
-11 15 9 -3.7876 0.1278
-11 15 10 15.2360 0.0017
-11 15 11 -4.1107 -0.0836
-11 15 12 -5.6185 0.0155
-11 15 13 0.9633 -0.1063
-11 15 14 -4.3472 0.1512
-11 15 15 -4.5069 0.0587
-11 15 16 6.9327 0.0314
-11 15 17 -5.8996 0.0865
-11 15 18 -12.4163 0.1206
-11 15 19 -1.1117 -0.0324
-11 15 20 -0.6213 -0.0207
-11 15 21 -13.6292 -0.0273
-11 15 22 3.3166 0.0059
-11 15 23 6.4280 0.2414
-11 16 1 -5.3771 -0.0046
-11 16 2 -2.5263 -0.0965
-11 16 3 7.3918 -0.0269
-11 16 4 1.2036 -0.0949
-11 16 5 -3.8445 0.0261
-11 16 6 8.2807 0.0871
-11 16 7 6.1789 0.0791
-11 16 8 -2.2363 0.1888
-11 16 9 5.4232 0.0053
-11 16 10 -1.6090 0.2395
-11 16 11 -2.8235 0.1577
-11 16 12 5.9261 0.0695
-11 16 13 9.0548 -0.0170
-11 16 14 0.9455 -0.2068
-11 16 15 7.9100 -0.0764
-11 16 16 -0.8492 -0.1227
-11 16 17 0.1144 -0.3398
-11 16 18 -2.1263 -0.0919
-11 16 19 -4.2383 -0.0326
-11 16 20 2.3309 0.1701
-11 16 21 -3.4961 0.0096
-11 17 1 1.5406 0.3954
-11 17 2 -13.3962 0.0345
-11 17 3 3.6061 0.0829
-11 17 4 -10.3925 0.0843
-11 17 5 -2.9479 -0.2940
-11 17 6 4.8970 0.1838
-11 17 7 -4.0916 -0.1637
-11 17 8 -7.4288 0.0968
-11 17 9 -12.9399 -0.0221
-11 17 10 6.5690 0.1670
-11 17 11 5.9934 -0.0539
-11 17 12 -2.1224 0.0739
-11 17 13 -1.6406 0.0194
-11 17 14 2.9409 -0.2053
-11 17 15 10.5771 -0.0952
-11 17 16 -17.8018 -0.1682
-11 17 17 3.1510 -0.6897
-11 17 18 12.3614 -0.2834
-11 17 19 4.7170 -0.4813
-11 18 1 0.6329 -0.1859
-11 18 2 8.4372 0.0575
-11 18 3 2.4588 -0.0449
-11 18 4 3.1717 0.1972
-11 18 5 7.4231 0.0470
-11 18 6 2.8066 0.0693
-11 18 7 -13.9466 0.0524
-11 18 8 2.2334 -0.1929
-11 18 9 9.7934 -0.3814
-11 18 10 0.5853 -0.2855
-11 18 11 -3.4402 -0.1996
-11 18 12 2.3112 0.1256
-11 18 13 -5.9419 -0.0817
-11 18 14 4.1794 0.0175
-11 18 15 0.0463 -0.0566
-11 18 16 -0.7983 -0.1364
-11 19 1 1.7473 -0.1866
-11 19 2 -4.3121 -0.1427
-11 19 3 -0.5645 0.1184
-11 19 4 -5.6855 -0.2612
-11 19 5 -5.8130 0.1230
-11 19 6 2.1882 -0.5553
-11 19 7 0.5571 -0.0657
-11 19 8 2.4638 -0.5503
-11 19 9 -8.1485 -0.1928
-11 19 10 -11.1859 -0.5387
-11 19 11 2.8694 -0.0358
-11 19 12 3.2227 -0.2531
-10 0 2 -16.8333 -1.0088
-10 0 4 31.9097 -0.8639
-10 0 6 -1.0724 -0.9848
-10 0 8 47.3378 0.1356
-10 0 10 -21.8583 1.2615
-10 0 12 12.6616 1.0354
-10 0 14 -26.1944 -0.1618
-10 0 16 20.7671 -1.0161
-10 0 18 -17.9237 -0.6256
-10 0 20 -13.0178 0.2183
-10 0 22 -6.9257 0.2063
-10 0 24 6.9985 -0.3248
-10 0 26 -8.5158 -0.2274
-10 0 28 7.2454 0.3228
-10 0 30 -4.0936 0.4685
-10 0 32 7.6243 0.0902
-10 0 34 2.8092 -0.5605
-10 1 1 -17.8379 1.2707
-10 1 2 -15.1206 0.8743
-10 1 3 18.5037 0.1759
-10 1 4 -14.6433 1.4417
-10 1 5 -25.1099 0.2372
-10 1 6 -34.9748 1.0457
-10 1 7 -6.8375 0.2393
-10 1 8 3.0476 -0.2478
-10 1 9 -22.7902 -0.1347
-10 1 10 3.5607 -0.4986
-10 1 11 11.6847 -0.3442
-10 1 12 -2.0107 0.1800
-10 1 13 -5.6176 -0.1455
-10 1 14 -7.4026 0.1284
-10 1 15 5.6769 0.1650
-10 1 16 15.9745 -0.6461
-10 1 17 -11.4878 0.2008
-10 1 18 8.0539 -0.8180
-10 1 19 14.8048 0.0722
-10 1 20 6.6527 -0.0266
-10 1 21 -0.6283 0.0214
-10 1 22 -11.9641 0.6526
-10 1 23 8.6425 0.0210
-10 1 24 -0.1463 0.6917
-10 1 25 -4.3257 0.0541
-10 1 26 -2.1383 0.1471
-10 1 27 16.2023 -0.0312
-10 1 28 -4.0120 -0.2811
-10 1 29 -10.9176 -0.1378
-10 1 30 10.0287 -0.1405
-10 1 31 0.7569 -0.0924
-10 1 32 -5.4530 0.0516
-10 1 33 -12.6791 -0.3102
-10 1 34 1.5483 0.0407
-10 2 1 13.0370 -0.4462
-10 2 2 -22.1978 -0.1874
-10 2 3 15.9429 -0.3600
-10 2 4 19.3757 0.2758
-10 2 5 13.7180 0.1087
-10 2 6 -8.0711 0.1578
-10 2 7 -8.9418 0.2329
-10 2 8 20.5512 -0.4061
-10 2 9 2.8348 0.0806
-10 2 10 -4.3473 -0.7141
-10 2 11 -14.2175 -0.0980
-10 2 12 24.8437 -0.6305
-10 2 13 21.1941 -0.1718
-10 2 14 -8.4547 -0.1411
-10 2 15 -11.5488 -0.0897
-10 2 16 12.9447 0.3650
-10 2 17 -2.9481 0.0143
-10 2 18 -10.9895 0.4419
-10 2 19 -15.2589 0.0950
-10 2 20 16.5633 0.1930
-10 2 21 -5.0168 0.0222
-10 2 22 -17.4474 0.0254
-10 2 23 2.2942 -0.1272
-10 2 24 5.8849 0.0353
-10 2 25 10.1747 -0.0508
-10 2 26 -12.0880 -0.0116
-10 2 27 4.0362 0.0933
-10 2 28 -3.5406 -0.2167
-10 2 29 -3.4702 0.0298
-10 2 30 8.6212 -0.1788
-10 2 31 1.8358 -0.0703
-10 2 32 3.4850 -0.1966
-10 2 33 -5.2915 0.0270
-10 3 1 -14.5223 -0.3917
-10 3 2 -25.3143 -0.1831
-10 3 3 -3.0349 -0.5387
-10 3 4 30.8152 -0.8567
-10 3 5 -9.5313 0.1079
-10 3 6 -13.9021 -0.5210
-10 3 7 4.2609 0.2687
-10 3 8 26.7391 0.0013
-10 3 9 -21.1013 -0.0889
-10 3 10 1.5639 0.1345
-10 3 11 -2.5397 -0.3471
-10 3 12 12.4718 0.0715
-10 3 13 -9.5738 -0.1193
-10 3 14 -9.0144 0.1262
-10 3 15 4.9998 0.1303
-10 3 16 15.8950 0.2903
-10 3 17 -1.4009 0.1878
-10 3 18 1.4136 0.2895
-10 3 19 9.9982 0.0723
-10 3 20 8.7843 0.0770
-10 3 21 1.8063 -0.0101
-10 3 22 -6.6577 -0.1575
-10 3 23 -3.2322 -0.0025
-10 3 24 -6.5109 -0.2979
-10 3 25 1.5303 0.0826
-10 3 26 0.8944 -0.1428
-10 3 27 7.8743 0.0294
-10 3 28 -3.0068 0.0570
-10 3 29 -3.7062 -0.1746
-10 3 30 -4.4924 -0.0142
-10 3 31 -1.3994 -0.0680
-10 3 32 0.4892 -0.0113
-10 3 33 -6.6176 -0.2401
-10 4 1 15.7203 -0.1990
-10 4 2 7.8055 -0.0102
-10 4 3 -21.4369 -0.3312
-10 4 4 17.2100 -0.2242
-10 4 5 10.0521 -0.0502
-10 4 6 2.5874 -0.3345
-10 4 7 -24.4440 -0.0138
-10 4 8 1.7651 -0.0529
-10 4 9 4.4916 -0.0621
-10 4 10 3.6145 0.4114
-10 4 11 -24.8041 -0.0275
-10 4 12 3.2927 0.3791
-10 4 13 4.4857 -0.0451
-10 4 14 -2.2488 -0.0207
-10 4 15 -18.4144 -0.0028
-10 4 16 -0.8458 -0.2652
-10 4 17 13.5329 0.1295
-10 4 18 -6.2048 -0.0798
-10 4 19 -29.1165 0.1709
-10 4 20 -6.8834 0.1084
-10 4 21 12.1795 0.1107
-10 4 22 -4.7701 0.0374
-10 4 23 -2.1163 -0.0805
-10 4 24 -1.6321 -0.1244
-10 4 25 5.5001 -0.1449
-10 4 26 -4.4779 -0.0256
-10 4 27 -0.4102 -0.0408
-10 4 28 0.4501 0.0782
-10 4 29 4.7320 -0.0917
-10 4 30 3.9559 0.1091
-10 4 31 10.5154 -0.0906
-10 4 32 -0.3255 0.1220
-10 4 33 -3.6905 0.2505
-10 5 1 -5.2319 0.2178
-10 5 2 -25.6867 0.0906
-10 5 3 8.5125 0.1938
-10 5 4 23.1879 0.0799
-10 5 5 2.0161 0.0685
-10 5 6 -16.7745 0.1175
-10 5 7 5.8311 -0.1086
-10 5 8 18.0802 -0.0008
-10 5 9 -1.8546 -0.0550
-10 5 10 -2.5772 0.0105
-10 5 11 -2.4581 0.0303
-10 5 12 0.0339 0.0396
-10 5 13 -11.0149 0.1218
-10 5 14 4.4601 0.0410
-10 5 15 2.5515 0.1121
-10 5 16 17.1623 -0.0970
-10 5 17 8.7569 0.0306
-10 5 18 1.8252 -0.1545
-10 5 19 4.0850 -0.0272
-10 5 20 12.9387 0.0066
-10 5 21 -14.7386 -0.0615
-10 5 22 -0.5283 0.1696
-10 5 23 6.3958 -0.0259
-10 5 24 2.4924 0.0742
-10 5 25 1.3240 -0.0452
-10 5 26 5.4521 -0.0481
-10 5 27 6.8568 -0.0335
-10 5 28 -6.4507 -0.0061
-10 5 29 -9.6707 -0.0220
-10 5 30 -2.5269 -0.0837
-10 5 31 -2.8209 -0.1231
-10 5 32 -1.7660 0.1168
-10 5 33 -2.0680 -0.0395
-10 6 1 39.9442 -0.2114
-10 6 2 -4.2879 -0.1048
-10 6 3 -19.3711 0.0076
-10 6 4 -13.4424 0.1130
-10 6 5 8.5038 0.1164
-10 6 6 -11.4947 0.2285
-10 6 7 -10.2776 -0.0405
-10 6 8 6.3921 -0.0362
-10 6 9 22.9664 -0.1566
-10 6 10 5.5708 -0.2189
-10 6 11 -11.7131 0.0163
-10 6 12 -2.1324 -0.1592
-10 6 13 6.5822 0.1749
-10 6 14 4.8044 0.0084
-10 6 15 -25.7778 0.1384
-10 6 16 -9.2666 0.0409
-10 6 17 10.0813 -0.0686
-10 6 18 3.5334 0.0512
-10 6 19 -5.6448 -0.1541
-10 6 20 5.7368 -0.0217
-10 6 21 2.6094 -0.0747
-10 6 22 13.3211 0.0201
-10 6 23 -10.7259 -0.0031
-10 6 24 -0.8050 0.0531
-10 6 25 2.8247 -0.0469
-10 6 26 7.7111 0.0286
-10 6 27 -0.9954 0.0234
-10 6 28 0.3501 -0.0107
-10 6 29 -1.8227 -0.0249
-10 6 30 4.1842 -0.0510
-10 6 31 -7.7597 0.2197
-10 6 32 0.0709 0.0269
-10 7 1 1.7145 -0.2251
-10 7 2 -13.4023 -0.0409
-10 7 3 4.9917 -0.0644
-10 7 4 16.6326 -0.0844
-10 7 5 -6.3457 0.1745
-10 7 6 -7.6044 -0.0077
-10 7 7 -12.7410 0.2269
-10 7 8 2.3187 0.0170
-10 7 9 1.9464 0.2068
-10 7 10 -15.1828 0.0508
-10 7 11 2.0937 0.0933
-10 7 12 17.8408 -0.0032
-10 7 13 5.9179 -0.0449
-10 7 14 -6.5119 -0.0266
-10 7 15 1.9451 -0.0162
-10 7 16 3.9099 0.0780
-10 7 17 -7.1557 0.0188
-10 7 18 -20.7044 0.0990
-10 7 19 10.5732 -0.0850
-10 7 20 13.3867 -0.0155
-10 7 21 -4.7927 -0.1509
-10 7 22 -16.2404 -0.1262
-10 7 23 -6.0122 -0.0766
-10 7 24 8.2064 -0.0800
-10 7 25 2.9581 -0.0067
-10 7 26 4.4757 0.0475
-10 7 27 -3.1139 0.1236
-10 7 28 -5.1753 0.0256
-10 7 29 -6.5768 0.1382
-10 7 30 0.6750 -0.0001
-10 7 31 0.7205 -0.2050
-10 7 32 1.3766 -0.1358
-10 8 1 18.5011 0.1660
-10 8 2 2.3224 -0.0002
-10 8 3 -7.2206 0.1232
-10 8 4 -14.4861 -0.0142
-10 8 5 6.3560 0.1731
-10 8 6 17.4544 -0.0968
-10 8 7 1.0480 0.2186
-10 8 8 -6.0753 0.0278
-10 8 9 11.1544 0.0628
-10 8 10 4.0418 0.1854
-10 8 11 -14.7893 -0.0708
-10 8 12 -21.9190 0.1191
-10 8 13 6.6193 -0.0819
-10 8 14 16.2002 0.0235
-10 8 15 -6.4582 -0.0276
-10 8 16 -6.4787 -0.0160
-10 8 17 20.7317 -0.0634
-10 8 18 6.8457 -0.0832
-10 8 19 -1.6570 -0.0221
-10 8 20 -19.4516 -0.0527
-10 8 21 15.2329 0.0447
-10 8 22 6.3909 0.0041
-10 8 23 -8.6520 0.0328
-10 8 24 -5.4423 0.0028
-10 8 25 0.3156 0.0113
-10 8 26 4.0249 -0.0521
-10 8 27 -2.8122 0.0057
-10 8 28 -13.5423 0.1336
-10 8 29 3.1766 -0.1024
-10 8 30 16.9394 -0.0743
-10 8 31 -1.0111 0.0996
-10 9 1 18.9459 0.1098
-10 9 2 -9.1948 0.0611
-10 9 3 6.6644 0.1408
-10 9 4 -4.7939 0.0925
-10 9 5 17.9115 0.0169
-10 9 6 -9.8162 0.0639
-10 9 7 -2.9802 -0.1451
-10 9 8 7.2704 0.0015
-10 9 9 9.5175 -0.1044
-10 9 10 0.1120 0.0607
-10 9 11 6.1396 -0.0794
-10 9 12 6.1701 0.0976
-10 9 13 7.2958 -0.0207
-10 9 14 -5.9891 -0.0093
-10 9 15 -7.5121 -0.0062
-10 9 16 11.9096 -0.1556
-10 9 17 -0.5281 -0.0218
-10 9 18 -13.0829 -0.0625
-10 9 19 -7.3545 0.0010
-10 9 20 -3.1877 0.1099
-10 9 21 5.4155 0.0545
-10 9 22 -10.3633 0.0719
-10 9 23 -4.9415 0.0002
-10 9 24 7.7839 -0.0139
-10 9 25 6.9161 -0.0910
-10 9 26 5.1268 -0.0280
-10 9 27 -4.1601 0.0214
-10 9 28 0.1834 0.0268
-10 9 29 2.1207 -0.1522
-10 9 30 -1.7534 -0.1893
-10 9 31 -1.1563 -0.2512
-10 10 1 -7.2958 0.0647
-10 10 2 -5.4103 -0.0507
-10 10 3 1.3130 0.1314
-10 10 4 -9.1535 0.1117
-10 10 5 -1.1106 0.0820
-10 10 6 -3.5101 0.1770
-10 10 7 -11.5496 -0.1427
-10 10 8 -17.1901 0.0390
-10 10 9 4.5089 -0.1938
-10 10 10 -0.1008 -0.1619
-10 10 11 -12.6291 -0.0467
-10 10 12 -10.2681 -0.1719
-10 10 13 1.7075 0.0879
-10 10 14 9.5833 0.0017
-10 10 15 -1.5619 0.0719
-10 10 16 -5.6688 0.0526
-10 10 17 -5.8715 -0.0338
-10 10 18 19.1322 -0.0519
-10 10 19 -0.3547 -0.0700
-10 10 20 -10.7175 -0.0323
-10 10 21 1.2609 0.0957
-10 10 22 10.0292 0.0789
-10 10 23 8.2519 0.0647
-10 10 24 0.1235 0.0971
-10 10 25 -6.8000 -0.0845
-10 10 26 12.2552 0.0274
-10 10 27 -0.2133 -0.1145
-10 10 28 -16.1695 -0.0511
-10 10 29 0.9406 0.0508
-10 10 30 7.1243 -0.5151
-10 11 1 12.5696 -0.2129
-10 11 2 7.2951 -0.0647
-10 11 3 -9.8028 -0.1750
-10 11 4 7.0537 0.0058
-10 11 5 1.0592 0.0117
-10 11 6 12.1873 -0.0186
-10 11 7 10.0872 0.0830
-10 11 8 5.7366 -0.0720
-10 11 9 1.7244 -0.0240
-10 11 10 10.3692 -0.0159
-10 11 11 -2.0581 -0.0614
-10 11 12 -2.6126 -0.1626
-10 11 13 6.2938 0.0256
-10 11 14 -1.4005 -0.1055
-10 11 15 -5.8422 0.0936
-10 11 16 -5.4066 -0.0124
-10 11 17 -3.5870 -0.0314
-10 11 18 7.3597 0.0879
-10 11 19 -12.7751 -0.0257
-10 11 20 -0.0195 0.1399
-10 11 21 12.8513 0.1069
-10 11 22 -2.3269 0.0795
-10 11 23 -14.0384 0.0237
-10 11 24 5.0859 -0.0697
-10 11 25 5.2967 0.1263
-10 11 26 -7.6491 -0.0258
-10 11 27 1.3663 0.1183
-10 11 28 5.5231 0.2454
-10 11 29 -10.2261 -0.1488
-10 12 1 -6.9467 -0.0405
-10 12 2 8.4702 -0.0161
-10 12 3 2.6740 -0.0793
-10 12 4 -13.4295 -0.0348
-10 12 5 -4.8591 -0.0904
-10 12 6 11.2487 -0.0171
-10 12 7 -0.7866 -0.0399
-10 12 8 -7.6005 -0.0890
-10 12 9 -9.7166 0.0453
-10 12 10 5.3284 -0.1029
-10 12 11 12.2911 0.0309
-10 12 12 -4.5853 -0.0555
-10 12 13 -2.4861 -0.0654
-10 12 14 6.0395 -0.0060
-10 12 15 8.7432 -0.0951
-10 12 16 2.6360 -0.0281
-10 12 17 -5.9429 -0.1015
-10 12 18 1.1499 -0.0552
-10 12 19 11.3171 0.0031
-10 12 20 -2.6048 -0.0140
-10 12 21 -5.0800 0.1132
-10 12 22 7.6337 0.0389
-10 12 23 6.0118 0.0435
-10 12 24 0.7852 0.1688
-10 12 25 -6.3742 -0.0260
-10 12 26 6.9136 0.0432
-10 12 27 3.4152 0.1231
-10 12 28 -14.5377 -0.3823
-10 13 1 1.0183 -0.0276
-10 13 2 2.8742 -0.0155
-10 13 3 -0.4201 -0.0441
-10 13 4 -4.5767 -0.0369
-10 13 5 7.6623 -0.0858
-10 13 6 3.9673 -0.1062
-10 13 7 4.1820 -0.1308
-10 13 8 -9.1104 -0.0573
-10 13 9 7.6596 -0.0445
-10 13 10 -3.4994 -0.0119
-10 13 11 -5.9680 0.1176
-10 13 12 -9.2361 0.0224
-10 13 13 6.1101 -0.0207
-10 13 14 -3.4944 0.0514
-10 13 15 -5.0360 0.0032
-10 13 16 -1.3809 -0.0299
-10 13 17 6.7488 0.0344
-10 13 18 -1.6392 -0.0012
-10 13 19 -4.9203 0.1059
-10 13 20 -5.3654 0.0051
-10 13 21 -4.1990 0.0979
-10 13 22 -3.4270 -0.0222
-10 13 23 -5.3657 0.0248
-10 13 24 -5.3034 -0.1953
-10 13 25 2.9505 -0.0176
-10 13 26 6.3504 0.2507
-10 13 27 2.4942 0.0759
-10 14 1 1.0535 0.0974
-10 14 2 0.8852 -0.0259
-10 14 3 3.3427 0.0360
-10 14 4 -5.0688 0.0772
-10 14 5 1.4572 -0.0815
-10 14 6 -8.1403 0.0326
-10 14 7 -7.3347 -0.1403
-10 14 8 -10.7077 -0.1055
-10 14 9 -2.9299 -0.1146
-10 14 10 0.2576 -0.0743
-10 14 11 12.9606 0.0665
-10 14 12 -5.7678 0.0993
-10 14 13 0.1930 0.3002
-10 14 14 0.8822 0.1372
-10 14 15 11.4892 0.1402
-10 14 16 -2.6689 0.0672
-10 14 17 -5.2527 -0.0629
-10 14 18 1.0607 -0.0661
-10 14 19 14.7203 -0.0390
-10 14 20 6.4240 -0.0260
-10 14 21 -13.9698 0.0386
-10 14 22 -6.5570 -0.0648
-10 14 23 9.9564 -0.2394
-10 14 24 8.9511 -0.2266
-10 14 25 -1.5734 -0.0527
-10 14 26 -0.3256 -0.6077
-10 15 1 -4.9763 -0.1621
-10 15 2 8.6799 0.0185
-10 15 3 2.9920 0.0037
-10 15 4 1.4169 0.2227
-10 15 5 5.9743 0.0696
-10 15 6 9.4618 0.2152
-10 15 7 -7.4589 0.0524
-10 15 8 -0.5969 0.0267
-10 15 9 -0.2937 0.0561
-10 15 10 0.9280 -0.0451
-10 15 11 1.8583 0.0038
-10 15 12 -4.7533 0.0483
-10 15 13 2.2800 0.0607
-10 15 14 -3.3921 0.1034
-10 15 15 -2.9430 0.1618
-10 15 16 8.0574 0.0697
-10 15 17 8.7625 0.0584
-10 15 18 -2.4447 0.1266
-10 15 19 -2.9934 0.0185
-10 15 20 -1.3902 -0.0202
-10 15 21 1.3853 -0.1694
-10 15 22 -1.5479 -0.2159
-10 15 23 -11.2510 -0.4667
-10 15 24 8.9666 -0.0035
-10 16 1 -4.9291 0.0205
-10 16 2 7.4641 -0.0461
-10 16 3 1.4481 -0.0940
-10 16 4 1.1020 -0.0318
-10 16 5 -9.7383 0.0529
-10 16 6 4.0935 0.0328
-10 16 7 16.3115 0.1568
-10 16 8 8.1396 0.1023
-10 16 9 -16.7484 0.1194
-10 16 10 -0.1487 0.0354
-10 16 11 -3.9857 0.0674
-10 16 12 -3.0522 0.0327
-10 16 13 -0.7559 0.0358
-10 16 14 -1.1020 0.2346
-10 16 15 -4.8926 -0.0370
-10 16 16 4.2092 -0.0945
-10 16 17 -4.1219 0.0766
-10 16 18 -3.3875 -0.1254
-10 16 19 -1.4281 0.1012
-10 16 20 2.7507 0.1657
-10 16 21 1.9330 -0.0003
-10 16 22 -0.1375 -0.0952
-10 16 23 -3.7580 -0.0139
-10 17 1 -3.0892 0.0940
-10 17 2 -3.3756 -0.0821
-10 17 3 -3.2595 0.0897
-10 17 4 2.4023 0.0291
-10 17 5 -2.5688 0.1708
-10 17 6 4.8328 -0.0145
-10 17 7 -0.4694 0.1562
-10 17 8 1.7802 0.0018
-10 17 9 8.1288 0.0289
-10 17 10 5.7541 0.1996
-10 17 11 1.4033 -0.0712
-10 17 12 1.8885 0.1187
-10 17 13 -2.4588 -0.0548
-10 17 14 3.3662 -0.0690
-10 17 15 -0.5158 -0.0142
-10 17 16 1.8550 -0.3092
-10 17 17 5.5623 -0.2430
-10 17 18 0.2275 -0.0039
-10 17 19 -12.8114 -0.0119
-10 17 20 3.5789 -0.0874
-10 18 1 5.7873 0.2065
-10 18 2 -7.2794 0.0034
-10 18 3 16.8569 0.1793
-10 18 4 2.3537 -0.0029
-10 18 5 -12.2369 -0.0714
-10 18 6 -0.6480 0.2175
-10 18 7 -14.5414 -0.1844
-10 18 8 2.1157 0.2145
-10 18 9 12.2275 -0.0054
-10 18 10 -1.4203 0.0616
-10 18 11 -4.0597 0.0123
-10 18 12 2.7516 0.1127
-10 18 13 -3.4011 -0.2748
-10 18 14 -7.2300 -0.1059
-10 18 15 8.3446 -0.2174
-10 18 16 -2.8262 -0.4082
-10 18 17 -5.9567 -0.4154
-10 18 18 -1.5754 0.1003
-10 19 1 -3.2847 -0.0328
-10 19 2 -9.2880 0.1924
-10 19 3 -1.9117 -0.0695
-10 19 4 3.6526 0.0921
-10 19 5 -3.9271 -0.2234
-10 19 6 1.1113 -0.0062
-10 19 7 0.6717 -0.3223
-10 19 8 -0.3494 -0.3657
-10 19 9 -3.6183 -0.2380
-10 19 10 0.5240 -0.2478
-10 19 11 2.7778 0.0779
-10 19 12 4.2794 0.1210
-10 19 13 3.0970 -0.0604
-10 19 14 -1.2182 0.1859
-10 19 15 -1.5897 -0.7060
-10 20 1 -7.3902 -0.3893
-10 20 2 -3.2731 -0.3117
-10 20 3 2.6919 0.0553
-10 20 4 4.4989 -0.1371
-10 20 5 -3.0281 -0.0593
-10 20 6 5.5958 -0.3167
-10 20 7 -7.2003 -0.3712
-10 20 8 0.0285 -0.5847
-10 20 9 3.3990 -0.5822
-10 20 10 -7.3757 -0.4496
-10 20 11 -3.2569 -0.2394
-9 0 2 28.3136 -1.8764
-9 0 4 55.6467 -2.5861
-9 0 6 -21.8426 -0.7956
-9 0 8 -10.6616 0.9597
-9 0 10 10.4664 1.2191
-9 0 12 3.9401 0.3309
-9 0 14 -30.7115 -0.4025
-9 0 16 17.0380 -0.2279
-9 0 18 -2.6902 0.3342
-9 0 20 10.1224 0.1391
-9 0 22 -24.1549 -0.6826
-9 0 24 8.8843 -0.7012
-9 0 26 -13.7258 0.1007
-9 0 28 14.6901 0.5793
-9 0 30 3.3604 0.3261
-9 0 32 -3.3289 -0.1098
-9 0 34 -10.2560 -0.3486
-9 1 1 3.5498 1.2187
-9 1 2 7.2064 0.6399
-9 1 3 -34.2055 0.4208
-9 1 4 31.4380 0.5979
-9 1 5 9.5211 0.3220
-9 1 6 16.2669 0.0129
-9 1 7 -10.1663 0.2010
-9 1 8 -10.3750 -0.0033
-9 1 9 14.5268 -0.2002
-9 1 10 6.8126 0.8265
-9 1 11 -25.8320 -0.2196
-9 1 12 3.2369 0.7829
-9 1 13 25.9208 -0.0490
-9 1 14 -12.7102 -0.4981
-9 1 15 -10.4119 -0.0077
-9 1 16 -9.5408 -1.2930
-9 1 17 16.0284 -0.0483
-9 1 18 -11.4468 -0.6601
-9 1 19 -7.9256 0.0052
-9 1 20 0.9623 0.2438
-9 1 21 19.1551 0.0907
-9 1 22 -3.6888 0.4893
-9 1 23 -9.8921 0.1301
-9 1 24 8.0636 0.2551
-9 1 25 15.8487 0.0635
-9 1 26 -1.9347 0.0147
-9 1 27 -9.9531 0.0091
-9 1 28 -1.3603 0.0104
-9 1 29 -3.3871 0.0001
-9 1 30 0.0496 0.1991
-9 1 31 -2.4382 -0.0859
-9 1 32 -0.5796 0.0439
-9 1 33 7.4360 -0.3407
-9 1 34 -8.7044 -0.3571
-9 2 1 18.2759 0.1449
-9 2 2 -21.7972 0.5014
-9 2 3 -28.8745 -0.0403
-9 2 4 25.7668 0.9007
-9 2 5 2.8501 0.2071
-9 2 6 -24.8833 0.3280
-9 2 7 -18.0263 0.2260
-9 2 8 10.5272 -0.3857
-9 2 9 37.8897 -0.0070
-9 2 10 -19.5549 -0.5588
-9 2 11 -26.8047 -0.0702
-9 2 12 18.7138 -0.4964
-9 2 13 -6.0208 -0.0638
-9 2 14 -14.3289 -0.2723
-9 2 15 -5.2801 -0.0260
-9 2 16 2.2961 -0.0185
-9 2 17 18.0485 0.0386
-9 2 18 -14.8964 0.0795
-9 2 19 -1.0766 -0.0040
-9 2 20 0.4938 0.1880
-9 2 21 0.4021 -0.0507
-9 2 22 -6.1649 0.3411
-9 2 23 -10.0376 -0.0441
-9 2 24 2.3965 0.3431
-9 2 25 9.7879 0.0768
-9 2 26 -8.5184 0.0326
-9 2 27 -4.4925 0.1223
-9 2 28 13.5744 -0.1425
-9 2 29 -1.5763 -0.0214
-9 2 30 8.1308 -0.1897
-9 2 31 3.0571 -0.0761
-9 2 32 -2.9533 -0.2633
-9 2 33 0.8139 0.0339
-9 2 34 1.1838 -0.1760
-9 3 1 26.9970 -0.2446
-9 3 2 -2.6206 -0.3683
-9 3 3 -7.4887 -0.1729
-9 3 4 -11.1151 -0.5022
-9 3 5 7.5143 0.2464
-9 3 6 18.3243 -0.2200
-9 3 7 -6.2017 0.1753
-9 3 8 -28.3138 -0.1503
-9 3 9 18.2838 -0.1946
-9 3 10 18.8746 -0.3423
-9 3 11 12.8974 -0.1964
-9 3 12 -10.9059 -0.2893
-9 3 13 6.6896 -0.0784
-9 3 14 38.5674 0.1638
-9 3 15 -8.0562 0.0536
-9 3 16 -12.9341 0.4587
-9 3 17 7.7273 -0.0179
-9 3 18 11.5646 0.3397
-9 3 19 -9.2253 -0.0667
-9 3 20 -5.1260 0.0453
-9 3 21 14.6628 -0.0022
-9 3 22 8.1440 -0.1738
-9 3 23 -9.3882 0.1391
-9 3 24 9.9506 -0.1798
-9 3 25 2.9089 0.1315
-9 3 26 -5.1068 -0.0847
-9 3 27 -5.2986 -0.0472
-9 3 28 -0.3734 -0.0810
-9 3 29 -6.3334 -0.0770
-9 3 30 6.4677 -0.1012
-9 3 31 -11.2067 0.0059
-9 3 32 -0.9057 0.0598
-9 3 33 2.5847 -0.2551
-9 3 34 8.9300 -0.1190
-9 4 1 19.9441 -0.4341
-9 4 2 -17.0880 -0.2441
-9 4 3 -27.5055 -0.2601
-9 4 4 8.1463 -0.5504
-9 4 5 24.9181 0.0129
-9 4 6 3.1083 -0.3730
-9 4 7 -35.7543 0.0417
-9 4 8 17.2375 0.1860
-9 4 9 28.2376 0.0048
-9 4 10 -26.8536 0.4871
-9 4 11 -24.2746 -0.0606
-9 4 12 -7.6468 0.1897
-9 4 13 6.2654 -0.1021
-9 4 14 3.3026 -0.1471
-9 4 15 -21.2721 -0.0004
-9 4 16 11.4839 -0.0454
-9 4 17 4.5164 0.1698
-9 4 18 -15.3176 0.2106
-9 4 19 -4.4655 0.1633
-9 4 20 -1.4693 0.1394
-9 4 21 1.4317 0.0421
-9 4 22 -1.6104 -0.1505
-9 4 23 -10.2598 -0.1011
-9 4 24 9.6934 -0.2070
-9 4 25 4.0098 -0.0717
-9 4 26 -3.4547 -0.0432
-9 4 27 0.6491 0.0671
-9 4 28 3.1765 0.1262
-9 4 29 -2.9369 -0.0215
-9 4 30 7.7607 0.1133
-9 4 31 -3.3095 -0.1487
-9 4 32 -5.8228 -0.0176
-9 4 33 -0.1023 -0.1405
-9 4 34 -2.7806 -0.1374
-9 5 1 2.1781 0.2501
-9 5 2 39.2325 0.0328
-9 5 3 -9.1325 0.0563
-9 5 4 -9.2500 -0.1481
-9 5 5 -17.3540 -0.0243
-9 5 6 2.0205 -0.1520
-9 5 7 -12.6713 -0.1081
-9 5 8 8.9487 0.0909
-9 5 9 -3.3414 -0.1179
-9 5 10 20.8492 0.1760
-9 5 11 8.2389 -0.0369
-9 5 12 -12.3440 0.0872
-9 5 13 -1.8049 -0.0029
-9 5 14 16.7820 -0.0515
-9 5 15 -0.4747 0.1012
-9 5 16 -5.9022 -0.1303
-9 5 17 -2.0262 0.0597
-9 5 18 17.3240 -0.1208
-9 5 19 4.5801 0.0022
-9 5 20 -18.5447 0.0518
-9 5 21 1.2667 0.0502
-9 5 22 3.3433 0.0965
-9 5 23 1.0749 0.0482
-9 5 24 -6.1381 -0.0417
-9 5 25 -5.5783 -0.0478
-9 5 26 -1.9684 -0.0276
-9 5 27 3.7271 -0.1268
-9 5 28 -6.3455 -0.0360
-9 5 29 4.6009 -0.0745
-9 5 30 -5.4168 -0.0678
-9 5 31 1.9066 0.0266
-9 5 32 5.0972 0.0475
-9 5 33 -1.6260 -0.0808
-9 6 1 14.9085 0.0395
-9 6 2 14.2851 -0.1942
-9 6 3 -11.5765 0.1424
-9 6 4 4.8236 0.1527
-9 6 5 26.0034 -0.1187
-9 6 6 12.3654 0.2076
-9 6 7 -34.8865 -0.2634
-9 6 8 -3.7919 -0.0132
-9 6 9 7.8531 -0.0960
-9 6 10 3.1854 -0.1139
-9 6 11 -29.1706 0.0878
-9 6 12 6.4166 -0.1176
-9 6 13 25.1842 0.1566
-9 6 14 1.4891 -0.0424
-9 6 15 -17.6880 0.0650
-9 6 16 8.4762 -0.0224
-9 6 17 -2.2614 -0.0172
-9 6 18 -5.9004 0.0055
-9 6 19 -15.1539 0.0234
-9 6 20 8.0575 0.0620
-9 6 21 12.5421 0.0828
-9 6 22 -1.5601 0.0512
-9 6 23 -4.3706 -0.0256
-9 6 24 7.9758 0.0185
-9 6 25 8.0349 -0.0851
-9 6 26 -3.2803 -0.0520
-9 6 27 7.8215 -0.0740
-9 6 28 1.2526 -0.0262
-9 6 29 5.2445 -0.0202
-9 6 30 -7.5232 0.0148
-9 6 31 2.7606 0.0635
-9 6 32 -1.4969 0.0900
-9 6 33 1.1260 0.0823
-9 7 1 -4.7123 -0.2345
-9 7 2 5.2958 -0.0267
-9 7 3 10.7814 -0.0509
-9 7 4 -24.1182 -0.0150
-9 7 5 -1.5839 0.0430
-9 7 6 13.6110 0.0974
-9 7 7 9.8823 0.0323
-9 7 8 7.4368 0.0932
-9 7 9 -7.9787 0.1025
-9 7 10 14.3933 -0.0995
-9 7 11 0.6781 0.0880
-9 7 12 -16.8072 -0.2141
-9 7 13 -11.6528 0.0648
-9 7 14 8.2314 -0.0040
-9 7 15 9.5910 0.1102
-9 7 16 -4.3043 0.2122
-9 7 17 -16.4659 -0.0320
-9 7 18 24.6915 0.1179
-9 7 19 0.9723 -0.2135
-9 7 20 -3.5791 -0.1083
-9 7 21 -16.6296 -0.1127
-9 7 22 5.6615 -0.1188
-9 7 23 13.0062 0.0367
-9 7 24 -4.2059 0.0175
-9 7 25 -11.6896 -0.0444
-9 7 26 5.1223 0.0916
-9 7 27 8.2136 0.0503
-9 7 28 -14.0956 0.0352
-9 7 29 -0.6051 0.0411
-9 7 30 2.5986 -0.1045
-9 7 31 -4.9088 -0.2048
-9 7 32 -7.6218 -0.0814
-9 7 33 6.4936 0.1980
-9 8 1 0.6537 -0.0293
-9 8 2 14.1099 -0.1326
-9 8 3 -12.1833 -0.0566
-9 8 4 -16.6735 -0.1403
-9 8 5 -9.8989 0.1573
-9 8 6 -3.2844 -0.0407
-9 8 7 -17.9453 0.2523
-9 8 8 -13.5126 0.1949
-9 8 9 3.9619 0.1619
-9 8 10 11.4812 0.1427
-9 8 11 -7.3046 0.0095
-9 8 12 0.3810 -0.0149
-9 8 13 7.0121 -0.0452
-9 8 14 -1.7270 0.0492
-9 8 15 -8.6881 -0.0527
-9 8 16 -11.2283 0.0539
-9 8 17 12.2273 -0.0778
-9 8 18 15.1079 -0.0290
-9 8 19 -20.4620 -0.0477
-9 8 20 6.1676 -0.0321
-9 8 21 11.9116 0.0155
-9 8 22 -0.3074 -0.0004
-9 8 23 -7.3111 -0.0064
-9 8 24 -2.7175 -0.0882
-9 8 25 5.8311 0.0640
-9 8 26 0.2568 0.0903
-9 8 27 -6.1251 0.1281
-9 8 28 2.2906 0.1391
-9 8 29 9.8143 0.0126
-9 8 30 -4.9839 -0.0671
-9 8 31 -2.4508 0.0909
-9 8 32 -3.0562 -0.0109
-9 9 1 -6.5675 0.2091
-9 9 2 1.1307 0.0025
-9 9 3 -0.4890 0.1669
-9 9 4 23.8885 0.1129
-9 9 5 11.9988 -0.0341
-9 9 6 6.1698 0.0684
-9 9 7 17.3896 -0.0087
-9 9 8 1.8524 -0.0091
-9 9 9 -6.1713 0.0989
-9 9 10 8.1996 0.1537
-9 9 11 6.1484 0.0494
-9 9 12 6.9512 0.1589
-9 9 13 -10.4434 -0.0689
-9 9 14 0.3650 -0.0558
-9 9 15 28.3547 -0.0527
-9 9 16 -7.0308 -0.1657
-9 9 17 -13.5374 -0.0204
-9 9 18 0.5307 -0.0367
-9 9 19 16.4310 0.0224
-9 9 20 4.6845 0.0316
-9 9 21 -23.0047 -0.0007
-9 9 22 2.3543 -0.0655
-9 9 23 9.2460 -0.1054
-9 9 24 -1.3904 -0.0355
-9 9 25 -8.2362 -0.0425
-9 9 26 -8.5714 0.0351
-9 9 27 2.7476 0.0855
-9 9 28 6.3746 0.1051
-9 9 29 -4.4965 -0.0347
-9 9 30 -2.1157 0.0453
-9 9 31 6.2456 -0.1220
-9 10 1 6.8757 0.1315
-9 10 2 4.3290 0.0821
-9 10 3 4.7609 0.1364
-9 10 4 -18.0195 0.1338
-9 10 5 -8.5020 0.0145
-9 10 6 3.2505 0.0984
-9 10 7 2.6807 -0.1868
-9 10 8 -18.0947 0.0433
-9 10 9 12.6008 -0.0627
-9 10 10 6.2001 -0.1093
-9 10 11 -0.8058 0.0320
-9 10 12 -2.9876 -0.0938
-9 10 13 -1.3871 0.0696
-9 10 14 13.3558 0.0180
-9 10 15 -4.9288 0.0301
-9 10 16 -13.4406 -0.0057
-9 10 17 9.1618 -0.0607
-9 10 18 9.7183 -0.0602
-9 10 19 -7.1976 -0.0540
-9 10 20 -14.1896 -0.0188
-9 10 21 -5.8761 -0.0323
-9 10 22 14.3001 0.0455
-9 10 23 -8.9995 0.0420
-9 10 24 -1.9598 0.0401
-9 10 25 6.9791 -0.0462
-9 10 26 1.0527 0.0463
-9 10 27 5.5773 -0.0499
-9 10 28 1.5531 -0.0588
-9 10 29 -4.3097 -0.1164
-9 10 30 4.5375 -0.2860
-9 10 31 2.6677 -0.0547
-9 11 1 -8.2494 -0.0956
-9 11 2 -1.6807 -0.0098
-9 11 3 12.0787 -0.0460
-9 11 4 -1.4396 0.1740
-9 11 5 3.7483 0.0857
-9 11 6 -13.4802 0.0543
-9 11 7 7.3694 0.0121
-9 11 8 -12.4012 -0.1111
-9 11 9 -5.8100 -0.1520
-9 11 10 -12.9134 -0.1514
-9 11 11 5.5690 -0.0414
-9 11 12 -0.8665 -0.1104
-9 11 13 -21.0728 0.1167
-9 11 14 -3.5409 -0.0137
-9 11 15 1.8050 0.0194
-9 11 16 3.8188 0.0395
-9 11 17 -14.8980 -0.0608
-9 11 18 -2.1813 0.0481
-9 11 19 7.9701 -0.0070
-9 11 20 9.1531 0.0874
-9 11 21 -6.8004 0.0361
-9 11 22 -3.2017 0.0717
-9 11 23 2.9888 0.0264
-9 11 24 15.9141 -0.0821
-9 11 25 -7.0649 0.0353
-9 11 26 -8.6440 -0.0819
-9 11 27 7.8588 0.0148
-9 11 28 3.7231 0.0677
-9 11 29 -15.3329 -0.1684
-9 11 30 -6.2292 -0.2521
-9 12 1 -10.4935 -0.1733
-9 12 2 -0.0540 0.0118
-9 12 3 -2.4967 -0.1132
-9 12 4 -11.5542 0.0158
-9 12 5 -1.2999 0.0113
-9 12 6 13.5758 0.0010
-9 12 7 9.2270 0.0250
-9 12 8 -6.3602 -0.0837
-9 12 9 3.1485 0.0666
-9 12 10 12.5297 -0.1588
-9 12 11 5.9614 -0.0888
-9 12 12 -11.0692 -0.1180
-9 12 13 4.3406 -0.1487
-9 12 14 8.7478 -0.0053
-9 12 15 -5.6215 -0.0583
-9 12 16 4.2508 0.0519
-9 12 17 -1.8487 0.0020
-9 12 18 9.3680 0.0416
-9 12 19 4.7704 0.0100
-9 12 20 -4.1096 0.0301
-9 12 21 -6.9971 0.0527
-9 12 22 15.7223 -0.0153
-9 12 23 -0.9939 0.0524
-9 12 24 -11.6948 0.0394
-9 12 25 -2.2601 0.0282
-9 12 26 12.5380 0.0935
-9 12 27 0.2765 -0.0093
-9 12 28 -2.9308 -0.2948
-9 12 29 -7.1038 -0.2598
-9 13 1 -5.8645 -0.0432
-9 13 2 6.6603 -0.0297
-9 13 3 -0.8495 -0.1038
-9 13 4 8.5184 -0.1080
-9 13 5 -3.9376 -0.1265
-9 13 6 -4.3879 -0.0428
-9 13 7 12.6906 -0.0784
-9 13 8 9.2337 0.0010
-9 13 9 -14.3116 0.0645
-9 13 10 4.3287 0.0442
-9 13 11 7.5951 0.0400
-9 13 12 0.0293 0.0058
-9 13 13 -0.6037 -0.0562
-9 13 14 -4.4773 -0.0613
-9 13 15 -1.2011 -0.0945
-9 13 16 6.7810 -0.1359
-9 13 17 -6.9931 0.0261
-9 13 18 -7.6554 0.0525
-9 13 19 6.3091 0.1239
-9 13 20 9.0434 0.2113
-9 13 21 -4.6575 0.1425
-9 13 22 1.7188 -0.0655
-9 13 23 2.8224 0.1218
-9 13 24 -3.7653 -0.0389
-9 13 25 -2.5603 -0.0277
-9 13 26 -8.2377 0.1775
-9 13 27 -0.2904 -0.0888
-9 13 28 5.0410 0.1329
-9 14 1 -15.8562 0.0745
-9 14 2 3.8407 0.0739
-9 14 3 3.2314 -0.0627
-9 14 4 -7.0521 0.0931
-9 14 5 -7.3309 -0.1825
-9 14 6 11.3937 -0.0763
-9 14 7 12.9506 -0.1847
-9 14 8 -8.4335 -0.1033
-9 14 9 -7.9772 -0.0515
-9 14 10 -3.6548 -0.0404
-9 14 11 3.6607 0.1041
-9 14 12 -3.6015 0.0248
-9 14 13 -8.6332 0.1120
-9 14 14 10.2196 0.0099
-9 14 15 5.8239 0.0364
-9 14 16 -2.7266 -0.0517
-9 14 17 0.7977 0.0545
-9 14 18 -3.4985 -0.1065
-9 14 19 -4.4723 0.1217
-9 14 20 5.9747 -0.0513
-9 14 21 0.3268 -0.0066
-9 14 22 -11.4191 0.1274
-9 14 23 5.7745 -0.0845
-9 14 24 4.4600 0.0527
-9 14 25 5.3609 -0.0464
-9 14 26 -5.2734 -0.2129
-9 14 27 4.3539 0.1072
-9 15 1 3.7945 -0.1328
-9 15 2 -6.5429 -0.0084
-9 15 3 -1.8324 0.0512
-9 15 4 12.7189 0.0358
-9 15 5 -3.6796 -0.0426
-9 15 6 -29.9625 0.0030
-9 15 7 7.9241 -0.0502
-9 15 8 1.5214 -0.0967
-9 15 9 4.5565 0.0134
-9 15 10 -1.9239 0.0070
-9 15 11 6.7409 0.0525
-9 15 12 -1.7193 0.0722
-9 15 13 -9.1640 0.1459
-9 15 14 -20.3458 0.0668
-9 15 15 -1.7089 0.1671
-9 15 16 15.6058 -0.0348
-9 15 17 1.7538 0.0024
-9 15 18 -8.0241 0.1046
-9 15 19 -7.3573 -0.0624
-9 15 20 11.9274 0.0264
-9 15 21 3.3074 0.0721
-9 15 22 -6.7899 -0.3541
-9 15 23 1.6499 -0.2424
-9 15 24 -1.0612 0.0337
-9 15 25 12.3216 -0.3067
-9 16 1 0.6369 -0.0656
-9 16 2 -2.4695 0.0387
-9 16 3 3.6936 -0.0104
-9 16 4 9.3373 0.0763
-9 16 5 -3.3006 0.0815
-9 16 6 -5.4892 0.0122
-9 16 7 -3.0791 0.0700
-9 16 8 -12.1107 0.0075
-9 16 9 10.7326 0.0714
-9 16 10 -5.4097 -0.1045
-9 16 11 7.8491 0.0531
-9 16 12 0.8174 0.1231
-9 16 13 21.1723 0.1329
-9 16 14 13.4859 0.1984
-9 16 15 -13.3582 0.0474
-9 16 16 -1.7075 0.1256
-9 16 17 -0.8907 0.0551
-9 16 18 1.8072 -0.0246
-9 16 19 -2.4839 0.0585
-9 16 20 2.9493 -0.0632
-9 16 21 -7.1938 -0.0737
-9 16 22 -4.3393 -0.2676
-9 16 23 -2.7825 -0.0041
-9 16 24 -9.7844 -0.5600
-9 17 1 -10.3221 -0.0446
-9 17 2 -18.7937 -0.0323
-9 17 3 -0.4470 0.0230
-9 17 4 13.7904 0.1171
-9 17 5 3.3811 0.1386
-9 17 6 12.1572 0.1031
-9 17 7 3.8361 0.1989
-9 17 8 -0.9710 0.0534
-9 17 9 -1.0694 0.0437
-9 17 10 -3.9314 0.1135
-9 17 11 3.4124 -0.0745
-9 17 12 -15.9159 0.0500
-9 17 13 -3.9596 -0.0404
-9 17 14 11.8163 0.1008
-9 17 15 -2.6688 0.0854
-9 17 16 4.9283 -0.0170
-9 17 17 2.7084 0.0405
-9 17 18 -8.0737 -0.0886
-9 17 19 -7.6974 0.0792
-9 17 20 11.4784 0.0757
-9 17 21 5.7860 -0.5474
-9 17 22 -5.2751 0.0101
-9 18 1 1.6381 0.1662
-9 18 2 12.2883 -0.1222
-9 18 3 6.6187 0.0985
-9 18 4 -2.6024 0.0657
-9 18 5 -16.1322 -0.0029
-9 18 6 -3.5708 0.1394
-9 18 7 -2.8025 -0.0168
-9 18 8 7.1156 0.2025
-9 18 9 5.7392 0.0788
-9 18 10 -6.8854 0.2171
-9 18 11 -3.2882 -0.0957
-9 18 12 1.8799 0.1465
-9 18 13 7.4778 -0.0014
-9 18 14 -0.0793 -0.0560
-9 18 15 3.4396 -0.3315
-9 18 16 -4.7385 -0.3839
-9 18 17 -5.6590 -0.3058
-9 18 18 10.5208 0.1173
-9 18 19 -5.1343 0.0713
-9 18 20 -3.7078 0.3173
-9 19 1 -6.2356 -0.0597
-9 19 2 -11.9622 -0.0478
-9 19 3 2.8957 0.1227
-9 19 4 14.4964 0.0584
-9 19 5 3.8123 -0.1006
-9 19 6 -3.3028 0.2095
-9 19 7 -2.8212 -0.3310
-9 19 8 -3.9218 0.1216
-9 19 9 6.2503 -0.1573
-9 19 10 -1.2856 -0.0952
-9 19 11 -4.3912 0.1828
-9 19 12 6.9103 -0.1493
-9 19 13 6.2404 -0.1532
-9 19 14 -9.2060 -0.1102
-9 19 15 -2.3301 -0.3517
-9 19 16 0.3611 -0.1995
-9 19 17 2.8786 -0.3650
-9 20 1 -3.7541 -0.2411
-9 20 2 -4.0765 0.1883
-9 20 3 -0.6280 -0.3429
-9 20 4 7.5916 -0.0029
-9 20 5 5.8000 -0.3382
-9 20 6 -13.0009 -0.2886
-9 20 7 0.8716 -0.1379
-9 20 8 -6.2535 -0.2686
-9 20 9 -0.2104 0.1790
-9 20 10 2.6842 -0.0235
-9 20 11 -5.2510 0.2810
-9 20 12 3.2361 -0.2251
-9 20 13 4.2391 0.0274
-9 20 14 -3.5727 -0.4304
-9 21 1 0.6985 -0.5118
-9 21 2 -1.0327 0.1777
-9 21 3 -5.4746 -0.2292
-9 21 4 -3.1540 -0.0839
-9 21 5 -3.7689 -0.1665
-9 21 6 4.1803 -0.7284
-9 21 7 7.7855 -0.2280
-9 21 8 1.9523 -0.8479
-9 21 9 3.7006 -0.2995
-8 0 2 -2.3155 -3.1966
-8 0 4 -14.4481 -2.2055
-8 0 6 28.1447 0.3000
-8 0 8 -22.8697 0.9627
-8 0 10 -8.2477 0.1158
-8 0 12 -22.2637 -0.4637
-8 0 14 18.1036 0.0560
-8 0 16 -12.9688 0.9698
-8 0 18 -10.0422 0.8156
-8 0 20 -7.6135 -0.4386
-8 0 22 9.4103 -1.1993
-8 0 24 3.8427 -0.4589
-8 0 26 -3.6536 0.4702
-8 0 28 11.4741 0.3890
-8 0 30 3.0842 -0.0581
-8 0 32 -10.8196 -0.1941
-8 0 34 1.7512 0.0351
-8 1 1 11.9860 0.4722
-8 1 2 -8.2317 -0.3717
-8 1 3 -33.9716 0.4611
-8 1 4 -7.7940 -0.8526
-8 1 5 10.7541 0.1658
-8 1 6 6.6603 -0.6454
-8 1 7 -37.3848 0.0324
-8 1 8 -5.1827 0.8547
-8 1 9 43.6615 -0.0520
-8 1 10 6.5509 1.7780
-8 1 11 -7.0583 0.0195
-8 1 12 -21.7560 0.6290
-8 1 13 23.5193 -0.0752
-8 1 14 7.1175 -1.0193
-8 1 15 -21.4486 -0.2442
-8 1 16 12.3507 -1.0089
-8 1 17 23.9551 -0.2276
-8 1 18 8.2490 -0.0619
-8 1 19 11.6127 0.0307
-8 1 20 -8.2324 0.1819
-8 1 21 -0.5208 0.2237
-8 1 22 8.0761 -0.1646
-8 1 23 -21.1939 0.1026
-8 1 24 -6.9946 -0.2836
-8 1 25 9.1200 0.0022
-8 1 26 3.6506 0.0338
-8 1 27 -1.8147 0.0005
-8 1 28 -8.2824 0.4672
-8 1 29 -6.2256 0.0428
-8 1 30 8.2992 0.4107
-8 1 31 0.5594 -0.0721
-8 1 32 1.2855 -0.0035
-8 1 33 8.2991 -0.2535
-8 1 34 -5.7411 -0.4124
-8 1 35 -2.4201 -0.1434
-8 2 1 -15.2521 0.4476
-8 2 2 39.4963 1.0754
-8 2 3 -4.3149 0.3379
-8 2 4 8.4196 1.0164
-8 2 5 -7.0267 0.2908
-8 2 6 11.7509 0.3158
-8 2 7 -24.6376 0.0351
-8 2 8 1.0892 -0.0045
-8 2 9 -37.1240 -0.1117
-8 2 10 6.2640 -0.0641
-8 2 11 21.4816 -0.0343
-8 2 12 -14.0607 -0.2451
-8 2 13 -8.8807 0.1842
-8 2 14 -7.9782 -0.4651
-8 2 15 4.3042 0.1630
-8 2 16 -17.2462 -0.4452
-8 2 17 -9.2311 -0.0487
-8 2 18 4.4928 -0.2524
-8 2 19 5.2892 -0.1998
-8 2 20 -14.5461 0.2873
-8 2 21 3.3130 -0.0857
-8 2 22 12.3529 0.5668
-8 2 23 3.2445 0.1229
-8 2 24 -0.0727 0.3195
-8 2 25 1.2014 0.1398
-8 2 26 -2.8881 0.0786
-8 2 27 7.4866 0.0638
-8 2 28 -3.0844 -0.0666
-8 2 29 -2.2738 -0.0650
-8 2 30 5.6890 -0.0483
-8 2 31 0.6966 0.0159
-8 2 32 -13.5438 -0.1273
-8 2 33 -4.3382 0.1170
-8 2 34 -1.3936 -0.0909
-8 2 35 0.9836 -0.0808
-8 3 1 -6.9310 0.1193
-8 3 2 17.2218 -0.1627
-8 3 3 -32.8038 0.1505
-8 3 4 -18.2761 0.1495
-8 3 5 27.1198 0.0495
-8 3 6 56.7194 -0.0083
-8 3 7 -21.5678 -0.0162
-8 3 8 18.4840 -0.3701
-8 3 9 10.6519 -0.1073
-8 3 10 37.7250 -0.6215
-8 3 11 -15.7398 -0.0062
-8 3 12 -18.1933 -0.3505
-8 3 13 26.4063 -0.0023
-8 3 14 8.3617 0.0977
-8 3 15 -3.1803 -0.1281
-8 3 16 -4.7682 0.2947
-8 3 17 9.5972 -0.1735
-8 3 18 3.1600 0.1632
-8 3 19 1.9331 -0.0608
-8 3 20 -20.3797 0.0375
-8 3 21 2.8428 0.1303
-8 3 22 0.8839 0.0347
-8 3 23 -3.6609 0.1347
-8 3 24 -8.2174 0.0336
-8 3 25 6.6861 0.0487
-8 3 26 3.0628 -0.0008
-8 3 27 2.2437 -0.0864
-8 3 28 -6.6156 -0.2092
-8 3 29 -4.5723 0.0293
-8 3 30 4.9497 -0.2804
-8 3 31 7.2565 0.0817
-8 3 32 3.6054 0.0554
-8 3 33 1.4663 -0.1737
-8 3 34 -5.7208 -0.0940
-8 4 1 -11.6945 -0.4498
-8 4 2 20.8543 -0.3357
-8 4 3 20.2973 0.0181
-8 4 4 -1.0410 -0.4964
-8 4 5 -24.6619 0.0323
-8 4 6 -29.6580 -0.1354
-8 4 7 -0.1787 -0.0678
-8 4 8 12.4459 0.2364
-8 4 9 -23.1626 -0.0035
-8 4 10 10.0053 0.1514
-8 4 11 1.2298 -0.0511
-8 4 12 -4.4581 -0.1262
-8 4 13 -2.6747 -0.0335
-8 4 14 -15.6120 -0.0267
-8 4 15 13.1953 0.0303
-8 4 16 2.6831 0.3264
-8 4 17 -11.2532 0.0938
-8 4 18 3.2505 0.2849
-8 4 19 17.2924 0.0400
-8 4 20 -5.0132 -0.0528
-8 4 21 -0.6435 0.0296
-8 4 22 2.7922 -0.2478
-8 4 23 8.9957 0.0427
-8 4 24 -4.8506 -0.1051
-8 4 25 -6.1694 0.0278
-8 4 26 0.5486 0.0778
-8 4 27 9.5633 0.0872
-8 4 28 0.5540 0.1260
-8 4 29 1.9051 -0.1179
-8 4 30 2.2368 0.0449
-8 4 31 -1.2719 -0.1336
-8 4 32 4.8482 -0.1780
-8 4 33 -4.3977 -0.0833
-8 4 34 -4.1836 -0.1156
-8 5 1 -13.6416 -0.0129
-8 5 2 18.6845 -0.0913
-8 5 3 9.3166 -0.1160
-8 5 4 -8.6284 -0.3173
-8 5 5 9.2852 -0.0364
-8 5 6 31.7179 -0.1944
-8 5 7 -4.2962 0.0262
-8 5 8 -39.0421 0.2163
-8 5 9 3.0756 -0.0640
-8 5 10 28.3011 0.2517
-8 5 11 -15.0441 -0.0907
-8 5 12 -13.4076 0.0758
-8 5 13 6.5589 -0.0448
-8 5 14 11.3906 -0.0792
-8 5 15 6.7684 -0.0023
-8 5 16 -20.2316 -0.0976
-8 5 17 5.9720 0.0332
-8 5 18 11.4363 -0.0272
-8 5 19 -14.5350 -0.0100
-8 5 20 -12.3509 0.0593
-8 5 21 8.9556 0.0147
-8 5 22 0.2265 0.0269
-8 5 23 -1.6394 0.0126
-8 5 24 -10.6173 -0.0939
-8 5 25 6.1279 -0.0725
-8 5 26 7.3790 0.0130
-8 5 27 -4.1076 -0.0697
-8 5 28 -6.8481 0.0301
-8 5 29 -5.7783 0.0240
-8 5 30 -5.5761 -0.0581
-8 5 31 1.9467 -0.0743
-8 5 32 -0.7140 0.0194
-8 5 33 -3.1073 -0.2586
-8 5 34 -2.2571 -0.2838
-8 6 1 -23.4966 0.2064
-8 6 2 7.5309 -0.0922
-8 6 3 -16.3109 0.1679
-8 6 4 -3.5215 0.1676
-8 6 5 -18.8328 -0.2497
-8 6 6 -12.1062 0.0748
-8 6 7 4.9518 -0.3163
-8 6 8 8.0103 -0.0252
-8 6 9 -5.8639 -0.0271
-8 6 10 3.3580 0.0487
-8 6 11 1.3570 0.1056
-8 6 12 0.4505 0.0250
-8 6 13 -30.0427 0.0447
-8 6 14 -2.5907 -0.0871
-8 6 15 17.1617 -0.0164
-8 6 16 4.8854 -0.0577
-8 6 17 2.9250 0.0362
-8 6 18 -5.5680 0.0214
-8 6 19 16.9827 0.1173
-8 6 20 9.3946 0.0906
-8 6 21 -11.8847 0.1158
-8 6 22 -12.6438 0.0723
-8 6 23 7.5870 -0.0338
-8 6 24 3.4998 -0.0549
-8 6 25 -4.5547 -0.0938
-8 6 26 -5.9106 -0.0825
-8 6 27 3.8124 0.0002
-8 6 28 13.9271 0.0069
-8 6 29 6.9717 -0.0535
-8 6 30 -4.0544 -0.0685
-8 6 31 -4.6372 0.0612
-8 6 32 -2.4799 -0.0706
-8 6 33 -1.6040 -0.0232
-8 7 1 -13.3072 -0.1674
-8 7 2 28.0597 -0.0295
-8 7 3 20.8591 -0.0085
-8 7 4 12.3242 0.0367
-8 7 5 -18.4059 -0.1669
-8 7 6 -1.3847 0.1318
-8 7 7 11.1388 -0.1474
-8 7 8 -5.3290 -0.0268
-8 7 9 -12.7158 -0.0437
-8 7 10 32.2303 -0.3257
-8 7 11 10.9022 0.0524
-8 7 12 3.8786 -0.2629
-8 7 13 -5.2942 0.1611
-8 7 14 16.1224 0.0845
-8 7 15 -8.1278 0.1457
-8 7 16 -20.6877 0.2128
-8 7 17 -3.2258 -0.0391
-8 7 18 14.6444 0.0136
-8 7 19 3.6874 -0.1534
-8 7 20 -8.0136 -0.0615
-8 7 21 -9.5425 -0.0375
-8 7 22 5.1426 0.0111
-8 7 23 8.6416 0.0093
-8 7 24 0.3886 0.0332
-8 7 25 1.6608 -0.0435
-8 7 26 2.9334 -0.0287
-8 7 27 -3.4856 -0.0320
-8 7 28 -10.6416 -0.1007
-8 7 29 -4.2996 -0.0044
-8 7 30 9.2445 -0.0504
-8 7 32 -1.5591 -0.0183
-8 7 33 0.7942 -0.0845
-8 8 1 -3.3338 -0.2980
-8 8 2 -14.8442 -0.1274
-8 8 3 0.6246 -0.0799
-8 8 4 4.0472 -0.1113
-8 8 5 -5.8469 0.1514
-8 8 6 0.3026 0.0297
-8 8 7 5.8335 0.2221
-8 8 8 6.6378 0.0904
-8 8 9 -3.6403 0.1520
-8 8 10 -16.5328 -0.0236
-8 8 11 -14.0705 0.0448
-8 8 12 6.1699 -0.0315
-8 8 13 -24.8145 0.0370
-8 8 14 5.3830 0.0872
-8 8 15 1.7264 -0.0123
-8 8 16 20.0829 0.1336
-8 8 17 -11.7201 -0.0238
-8 8 18 -17.4954 0.0776
-8 8 19 5.6007 -0.0365
-8 8 20 12.4422 0.0226
-8 8 21 -2.4812 -0.0550
-8 8 22 -7.4247 -0.1206
-8 8 23 -1.2969 0.0286
-8 8 24 7.4126 -0.1377
-8 8 25 -0.9347 0.0608
-8 8 26 -7.7295 0.1260
-8 8 27 7.8823 0.0602
-8 8 28 7.0187 0.1753
-8 8 29 -5.8118 0.0284
-8 8 30 -5.2280 -0.1652
-8 8 31 0.7271 0.0232
-8 8 32 -1.2444 -0.0540
-8 8 33 2.2435 0.0904
-8 9 1 3.3630 0.1267
-8 9 2 2.7631 -0.0290
-8 9 3 12.0684 0.0524
-8 9 4 -10.1530 0.0407
-8 9 5 -24.2478 0.0283
-8 9 6 1.7902 0.0625
-8 9 7 13.7090 0.2410
-8 9 8 -2.5008 0.1288
-8 9 9 -9.9483 0.1676
-8 9 10 12.4414 0.1710
-8 9 11 9.1207 -0.0428
-8 9 12 -3.1673 0.0942
-8 9 13 -20.4098 -0.1048
-8 9 14 13.0971 -0.0532
-8 9 15 -0.2548 -0.0708
-8 9 16 -6.1460 -0.0320
-8 9 17 -9.6480 -0.0061
-8 9 18 12.3291 -0.0273
-8 9 19 13.1613 0.0021
-8 9 20 -17.7286 -0.0930
-8 9 21 0.6901 0.0058
-8 9 22 14.7850 -0.0622
-8 9 23 1.1696 -0.0149
-8 9 24 -1.9344 0.0366
-8 9 25 -9.2073 0.0537
-8 9 26 3.7597 0.0416
-8 9 27 14.0809 0.0884
-8 9 28 -11.6676 -0.0136
-8 9 29 -12.2921 -0.0400
-8 9 30 3.9288 0.0586
-8 9 31 3.5506 -0.0032
-8 9 32 -0.7315 0.0134
-8 10 1 -7.3482 0.1269
-8 10 2 -9.3698 0.0535
-8 10 3 0.9669 0.1250
-8 10 4 10.1285 0.0289
-8 10 5 4.9790 -0.0892
-8 10 6 -0.5245 0.0234
-8 10 7 -3.2081 -0.0878
-8 10 8 12.3626 0.0066
-8 10 9 -2.5337 0.0717
-8 10 10 7.7787 0.0435
-8 10 11 2.7405 0.0699
-8 10 12 10.4146 0.0650
-8 10 13 16.1001 -0.0217
-8 10 14 -4.3174 -0.0030
-8 10 15 5.0009 -0.1042
-8 10 16 17.8984 -0.1573
-8 10 17 1.4163 -0.0050
-8 10 18 -9.8088 -0.0870
-8 10 19 -0.5595 0.0329
-8 10 20 1.7878 0.0738
-8 10 21 5.9945 -0.0179
-8 10 22 -11.8993 0.0183
-8 10 23 -5.5134 -0.0772
-8 10 24 5.4445 -0.0272
-8 10 25 -0.4279 -0.0799
-8 10 26 0.6595 0.0859
-8 10 27 3.6011 0.0519
-8 10 28 2.9323 0.0888
-8 10 29 6.0999 0.0127
-8 10 30 -10.4053 -0.0506
-8 10 31 -3.8662 -0.1015
-8 11 1 1.7060 0.0898
-8 11 2 -0.3786 0.1615
-8 11 3 10.0052 0.0729
-8 11 4 -6.1380 0.1829
-8 11 5 -1.6918 0.0502
-8 11 6 6.0504 0.0752
-8 11 7 3.9702 -0.0463
-8 11 8 -2.9584 -0.0317
-8 11 9 -13.8440 -0.0827
-8 11 10 10.8506 -0.0914
-8 11 11 5.3572 0.0454
-8 11 12 -7.6671 -0.0200
-8 11 13 -6.6663 0.1470
-8 11 14 -8.8262 0.0238
-8 11 15 3.5317 0.0289
-8 11 16 1.1661 0.0094
-8 11 17 -12.0290 -0.0285
-8 11 18 -1.8833 -0.0538
-8 11 19 12.2903 -0.0427
-8 11 20 -11.8005 -0.0214
-8 11 21 -9.8995 -0.1051
-8 11 22 -4.8424 0.0164
-8 11 23 5.3597 -0.0863
-8 11 24 -1.4923 0.0592
-8 11 25 -3.1133 0.0992
-8 11 26 0.9783 0.0472
-8 11 27 14.9765 0.0472
-8 11 28 3.9904 -0.0691
-8 11 29 0.5138 -0.1163
-8 11 30 -3.7695 -0.1531
-8 12 1 16.6759 -0.2095
-8 12 2 -13.8868 0.0187
-8 12 3 1.3836 -0.0604
-8 12 4 -4.2666 0.0843
-8 12 5 7.8458 0.0405
-8 12 6 -14.4943 0.0253
-8 12 7 -0.7579 0.1124
-8 12 8 -0.7041 -0.1139
-8 12 9 -4.1386 -0.0313
-8 12 10 -0.0058 -0.1822
-8 12 11 -2.8543 -0.1477
-8 12 12 6.3531 -0.1644
-8 12 13 -3.4682 -0.0256
-8 12 14 -12.0829 0.0086
-8 12 15 -3.2216 -0.0118
-8 12 16 5.7361 0.0190
-8 12 17 -3.6854 -0.0482
-8 12 18 -0.0494 0.0706
-8 12 19 2.7509 -0.0329
-8 12 20 4.7587 0.0354
-8 12 21 4.9700 0.0010
-8 12 22 -4.4426 -0.0020
-8 12 23 -2.5814 0.0689
-8 12 24 3.7001 0.0409
-8 12 25 3.7558 0.0474
-8 12 26 -6.5490 -0.0492
-8 12 27 -9.0629 -0.0825
-8 12 28 7.7458 -0.1991
-8 12 29 4.2354 -0.3568
-8 12 30 -16.4092 -0.2520
-8 13 1 -3.4924 -0.0634
-8 13 2 -8.1319 0.0084
-8 13 3 14.2241 -0.0092
-8 13 4 -5.6230 -0.1075
-8 13 5 2.7414 0.0400
-8 13 6 -7.7938 -0.0714
-8 13 7 7.3186 0.0914
-8 13 8 1.8880 -0.0458
-8 13 9 -3.5864 0.0096
-8 13 10 -6.7281 -0.0588
-8 13 11 -1.6401 -0.1146
-8 13 12 -3.8561 -0.0086
-8 13 13 -4.7791 -0.1395
-8 13 14 5.3257 -0.0524
-8 13 15 0.2874 -0.0940
-8 13 16 3.4655 -0.0879
-8 13 17 -4.1057 0.0912
-8 13 18 2.2951 0.0911
-8 13 19 1.5401 0.1163
-8 13 20 9.2637 0.1314
-8 13 21 -4.1804 0.1131
-8 13 22 -8.3996 -0.0324
-8 13 23 0.3246 0.0167
-8 13 24 6.9312 -0.1043
-8 13 25 -3.6375 0.0190
-8 13 26 5.3659 0.0967
-8 13 27 2.5558 -0.0805
-8 13 28 -7.3340 -0.0332
-8 13 29 -2.4454 -0.0501
-8 14 1 4.3392 0.0247
-8 14 2 -1.9926 -0.0438
-8 14 3 -13.3526 -0.1366
-8 14 4 -4.7191 -0.0911
-8 14 5 18.3325 -0.1377
-8 14 6 2.8882 -0.0824
-8 14 7 -4.4710 -0.0717
-8 14 8 10.8436 0.0314
-8 14 9 6.6000 -0.0514
-8 14 10 6.0677 0.0343
-8 14 11 11.5910 -0.0639
-8 14 12 3.9987 -0.0751
-8 14 13 -4.1650 -0.0721
-8 14 14 6.5812 -0.0139
-8 14 15 -4.5526 -0.0294
-8 14 16 5.9258 -0.0535
-8 14 17 5.9886 0.1277
-8 14 18 -4.5416 -0.0295
-8 14 19 -1.3330 0.1961
-8 14 20 3.1174 -0.0445
-8 14 21 5.9781 0.0755
-8 14 22 -4.4028 0.0726
-8 14 23 -5.4222 0.1064
-8 14 24 -2.3314 0.1902
-8 14 25 -1.9588 0.1406
-8 14 26 2.4742 -0.0197
-8 14 27 -3.4279 -0.2295
-8 15 1 -3.8093 0.0091
-8 15 2 1.7612 0.0484
-8 15 3 -5.3442 -0.0327
-8 15 4 23.4306 0.1282
-8 15 5 2.7361 -0.1784
-8 15 6 -20.4914 0.0276
-8 15 7 -10.8114 -0.1996
-8 15 8 5.1642 -0.0359
-8 15 9 -6.5457 -0.0243
-8 15 10 -13.2331 0.0108
-8 15 11 -11.6665 0.1242
-8 15 12 10.7745 0.0676
-8 15 13 5.5873 0.1646
-8 15 14 -6.0857 0.0078
-8 15 15 -7.8223 0.0460
-8 15 16 5.4683 -0.0186
-8 15 17 13.0974 -0.0879
-8 15 18 -9.0013 0.0626
-8 15 19 2.7163 0.0749
-8 15 20 -0.3390 -0.0107
-8 15 21 -1.3361 0.0888
-8 15 22 -5.9257 0.0470
-8 15 23 7.5523 -0.0998
-8 15 24 6.6774 -0.0681
-8 15 25 0.4729 -0.1615
-8 15 26 5.9799 0.0485
-8 16 1 0.3692 -0.1497
-8 16 2 1.5796 0.0784
-8 16 3 -4.9974 -0.0030
-8 16 4 -4.6038 0.0649
-8 16 5 4.5788 0.0083
-8 16 6 1.1075 -0.0317
-8 16 7 6.6035 -0.0286
-8 16 8 3.6740 -0.0796
-8 16 9 4.2673 0.0279
-8 16 10 -4.2909 -0.0031
-8 16 11 -6.7924 0.0711
-8 16 12 -3.7684 0.0944
-8 16 13 5.9011 0.1135
-8 16 14 -2.9681 0.1790
-8 16 15 -9.2881 0.0878
-8 16 16 -1.1672 -0.0777
-8 16 17 8.1382 0.0618
-8 16 18 2.8578 0.0088
-8 16 19 -1.3261 -0.0068
-8 16 20 -15.4401 -0.0219
-8 16 21 5.5356 -0.3281
-8 16 22 5.0403 -0.2047
-8 16 23 1.9426 -0.1434
-8 16 24 -1.0214 0.0954
-8 16 25 3.8225 0.1576
-8 17 1 2.6968 -0.0811
-8 17 2 11.9050 0.0092
-8 17 3 2.1133 -0.0630
-8 17 4 -0.3066 0.0717
-8 17 5 10.9048 0.1519
-8 17 6 -23.1062 -0.0295
-8 17 7 -7.1334 0.1090
-8 17 8 2.4509 -0.0438
-8 17 9 9.4157 0.0418
-8 17 10 -1.9999 0.0244
-8 17 11 -0.5419 0.0514
-8 17 12 2.0973 0.0609
-8 17 13 -1.8517 0.0201
-8 17 14 -3.4993 0.0619
-8 17 15 7.6781 -0.0103
-8 17 16 -0.9990 0.1189
-8 17 17 -3.0518 0.2519
-8 17 18 8.9751 -0.0998
-8 17 19 -0.5090 0.2377
-8 17 20 -8.9538 -0.2190
-8 17 21 1.3645 -0.5497
-8 17 22 -10.9739 -0.2004
-8 17 23 -3.6316 -0.7963
-8 18 1 6.6055 0.0797
-8 18 2 3.7824 0.0224
-8 18 3 -8.0028 0.1158
-8 18 4 -1.9295 0.1442
-8 18 5 5.0568 0.0867
-8 18 6 8.6937 0.0389
-8 18 7 2.1833 0.0629
-8 18 8 -0.7237 0.0119
-8 18 9 13.1417 0.0965
-8 18 10 4.0679 0.1366
-8 18 11 -2.1921 0.0439
-8 18 12 -4.5047 0.1749
-8 18 13 -9.9678 -0.0413
-8 18 14 9.7207 0.1260
-8 18 15 16.6636 0.0907
-8 18 16 -12.8556 -0.1049
-8 18 17 -1.3129 -0.1048
-8 18 18 5.6181 0.0434
-8 18 19 -4.7526 0.0604
-8 18 20 6.1612 -0.0582
-8 18 21 8.5848 0.1973
-8 19 1 2.2945 0.1823
-8 19 2 -8.4585 -0.1580
-8 19 3 -7.0191 0.2197
-8 19 4 18.7144 -0.0048
-8 19 5 -0.6815 0.1551
-8 19 6 6.3400 0.1915
-8 19 7 -10.0965 -0.1108
-8 19 8 -11.6947 0.2214
-8 19 9 3.3670 -0.1243
-8 19 10 -4.4074 0.1878
-8 19 11 -3.8801 -0.0465
-8 19 12 6.9397 -0.0863
-8 19 13 5.0964 -0.0825
-8 19 14 -10.4019 -0.2998
-8 19 15 -6.6708 -0.1119
-8 19 16 -4.8198 -0.1860
-8 19 17 0.3120 0.0830
-8 19 18 6.5297 0.3927
-8 20 1 8.4983 -0.0375
-8 20 2 1.0777 0.0118
-8 20 3 -3.9829 -0.0242
-8 20 4 -6.6228 -0.1286
-8 20 5 -8.2784 -0.0923
-8 20 6 3.1094 -0.1738
-8 20 7 -4.7277 -0.3743
-8 20 8 9.7706 0.0876
-8 20 9 2.8517 -0.0030
-8 20 10 -0.3070 0.0179
-8 20 11 -4.4192 0.1695
-8 20 12 -1.0521 -0.2418
-8 20 13 8.4864 -0.2889
-8 20 14 4.9271 -0.4061
-8 20 15 -2.8077 -0.7655
-8 20 16 2.4699 -0.3203
-8 21 1 29.8130 -0.1250
-8 21 2 -0.9561 0.0654
-8 21 3 -3.1836 -0.1413
-8 21 4 2.2851 -0.1857
-8 21 5 -0.6899 -0.2044
-8 21 6 0.0420 -0.3024
-8 21 7 2.7981 -0.0655
-8 21 8 5.4123 -0.1517
-8 21 9 -6.1931 0.0114
-8 21 10 10.1527 0.1514
-8 21 11 -4.8221 0.0711
-8 21 12 -7.0292 -0.1401
-8 22 3 -3.4487 0.1249
-7 0 2 17.6047 -2.8730
-7 0 4 -43.7359 -0.1904
-7 0 6 15.8323 1.0209
-7 0 8 -31.9143 -0.1467
-7 0 10 52.9447 -1.1897
-7 0 12 -35.3260 -0.5417
-7 0 14 0.8303 0.9046
-7 0 16 -17.8950 1.5871
-7 0 18 25.4500 0.5541
-7 0 20 -22.0073 -0.8665
-7 0 22 4.8657 -0.8431
-7 0 24 -15.8227 0.1086
-7 0 26 0.3923 0.3610
-7 0 28 -0.0702 -0.1522
-7 0 30 9.2158 -0.3357
-7 0 32 -10.1942 -0.0444
-7 0 34 3.9284 0.3563
-7 1 1 -23.1788 -0.1779
-7 1 2 7.3034 -1.3075
-7 1 3 23.6604 0.2941
-7 1 4 11.3694 -1.7611
-7 1 5 27.7009 -0.0896
-7 1 6 -11.8537 -0.6536
-7 1 7 12.7046 -0.0149
-7 1 8 -10.7689 1.3641
-7 1 9 -1.2656 0.1370
-7 1 10 -6.9194 1.5665
-7 1 11 12.7542 0.1070
-7 1 12 2.5495 0.0675
-7 1 13 2.7366 -0.1684
-7 1 14 -4.0244 -0.6686
-7 1 15 15.3497 -0.3755
-7 1 16 -18.0757 -0.0709
-7 1 17 -1.8026 -0.2178
-7 1 18 -6.4602 0.2901
-7 1 19 3.0161 0.0769
-7 1 20 -1.5925 -0.2573
-7 1 21 -3.8690 0.1607
-7 1 22 -8.7606 -0.7549
-7 1 23 8.9027 0.0138
-7 1 24 -3.4442 -0.5180
-7 1 25 -0.4683 0.0209
-7 1 26 -4.5905 0.2412
-7 1 27 3.5842 0.0386
-7 1 28 6.4014 0.6671
-7 1 29 1.6336 0.0767
-7 1 30 -6.6599 0.2936
-7 1 31 7.2898 0.0487
-7 1 32 1.2546 -0.2354
-7 1 33 -4.5080 -0.1441
-7 1 34 -1.6917 -0.2402
-7 1 35 -6.1943 -0.1257
-7 2 1 -28.0643 0.3424
-7 2 2 20.9119 0.8526
-7 2 3 -6.4817 0.5150
-7 2 4 -51.6672 0.5505
-7 2 5 4.2481 0.2348
-7 2 6 12.6519 0.3902
-7 2 7 17.2322 -0.1482
-7 2 8 -60.7918 0.5070
-7 2 9 5.8373 -0.1584
-7 2 10 3.3503 0.3865
-7 2 11 -2.4434 0.0846
-7 2 12 -32.4646 0.0004
-7 2 13 -13.4833 0.2992
-7 2 14 15.7596 -0.4823
-7 2 15 15.2482 0.1290
-7 2 16 -19.0055 -0.6980
-7 2 17 16.3211 -0.1898
-7 2 18 9.6622 -0.3598
-7 2 19 -4.2148 -0.2032
-7 2 20 -8.0007 0.2342
-7 2 21 -8.9440 0.0350
-7 2 22 17.2343 0.3615
-7 2 23 13.5470 0.2018
-7 2 24 -16.5951 0.1887
-7 2 25 1.9377 0.0537
-7 2 26 3.9937 0.1249
-7 2 27 4.1889 -0.0734
-7 2 28 -12.8983 0.1210
-7 2 29 -4.3701 -0.0077
-7 2 30 6.0135 0.1423
-7 2 31 2.0248 0.0784
-7 2 32 -11.1044 -0.0761
-7 2 33 9.4574 -0.0797
-7 2 34 6.1294 -0.1507
-7 2 35 -4.7732 0.0022
-7 3 1 -5.0824 0.4224
-7 3 2 15.4066 0.3970
-7 3 3 4.9226 0.1977
-7 3 4 20.2530 0.5948
-7 3 5 -8.6285 -0.2177
-7 3 6 -43.6941 -0.0252
-7 3 7 11.2943 -0.0696
-7 3 8 2.6742 -0.4660
-7 3 9 19.1423 0.0992
-7 3 10 11.4251 -0.4931
-7 3 11 0.9441 0.1067
-7 3 12 -14.5568 -0.1957
-7 3 13 3.4985 -0.0365
-7 3 14 -3.8627 -0.0669
-7 3 15 -7.0596 -0.2325
-7 3 16 8.5921 -0.0803
-7 3 17 10.6505 -0.2106
-7 3 18 -3.9864 -0.0191
-7 3 19 4.0825 -0.0310
-7 3 20 3.0793 0.1720
-7 3 21 -13.5619 0.1315
-7 3 22 -3.8665 0.2933
-7 3 23 -2.0953 0.0977
-7 3 24 2.4084 0.1566
-7 3 25 11.5745 -0.0125
-7 3 26 -6.2700 -0.0081
-7 3 27 1.5742 -0.0139
-7 3 28 2.2976 -0.2495
-7 3 29 -4.6624 0.1118
-7 3 30 -7.1309 -0.1874
-7 3 31 6.3681 0.1359
-7 3 32 1.4159 0.0518
-7 3 33 6.1667 -0.1127
-7 3 34 -1.2460 -0.0568
-7 3 35 -4.4390 -0.1948
-7 4 1 -50.8907 -0.1297
-7 4 2 -8.8543 -0.2168
-7 4 3 15.3497 0.2073
-7 4 4 15.5168 -0.0211
-7 4 5 10.3269 0.0340
-7 4 6 35.2397 0.1144
-7 4 7 -5.1338 -0.0569
-7 4 8 -12.9479 -0.0455
-7 4 9 8.9349 -0.0605
-7 4 10 10.5781 -0.3371
-7 4 11 20.6728 -0.0500
-7 4 12 -2.5090 -0.1777
-7 4 13 -17.0363 0.0171
-7 4 14 13.8308 0.3057
-7 4 15 21.4434 0.0214
-7 4 16 -5.2792 0.4500
-7 4 17 -4.9880 -0.0345
-7 4 18 -4.2947 0.0665
-7 4 19 12.7198 -0.0080
-7 4 20 -5.7564 -0.1923
-7 4 21 -4.0731 0.1438
-7 4 22 12.9509 -0.0966
-7 4 23 8.2819 0.1135
-7 4 24 -0.7441 0.0759
-7 4 25 -7.6749 0.0730
-7 4 26 4.8883 0.0609
-7 4 27 7.1216 0.0241
-7 4 28 -3.0390 -0.0325
-7 4 29 0.3986 -0.1454
-7 4 30 0.3547 -0.0096
-7 4 31 -5.1403 0.0134
-7 4 32 -0.2562 -0.0636
-7 4 33 2.8403 0.0446
-7 4 34 0.4473 -0.0906
-7 4 35 7.9960 -0.0070
-7 5 1 22.1639 -0.2813
-7 5 2 1.1593 -0.1945
-7 5 3 3.2751 -0.1363
-7 5 4 9.1809 -0.3905
-7 5 5 -8.9820 -0.0280
-7 5 6 4.3418 -0.1346
-7 5 7 6.8379 0.0725
-7 5 8 23.3984 0.2751
-7 5 9 11.2552 0.0496
-7 5 10 -10.9848 0.1646
-7 5 11 -4.0491 -0.0188
-7 5 12 -14.7327 -0.0173
-7 5 13 -5.4663 -0.0423
-7 5 14 1.5763 -0.0803
-7 5 15 -10.2329 -0.0830
-7 5 16 -1.2426 0.0043
-7 5 17 8.8552 -0.0131
-7 5 18 -20.5590 0.0891
-7 5 19 -0.8442 0.0067
-7 5 20 -6.6300 0.0182
-7 5 21 -4.5157 0.0022
-7 5 22 -9.7211 -0.1079
-7 5 23 2.6080 -0.0233
-7 5 24 3.7799 -0.0990
-7 5 25 -5.6486 -0.0114
-7 5 26 -5.9826 0.0993
-7 5 27 -1.3910 0.0005
-7 5 28 2.3887 0.0517
-7 5 29 6.7526 -0.0382
-7 5 30 6.6813 -0.0288
-7 5 31 0.0635 -0.0302
-7 5 32 4.1840 0.0361
-7 5 33 -11.9158 -0.2245
-7 5 34 -4.8200 -0.1297
-7 6 1 -10.2480 0.2467
-7 6 2 -7.2839 0.0549
-7 6 3 27.8949 0.0257
-7 6 4 13.0064 0.0314
-7 6 5 -35.4546 -0.1582
-7 6 6 -33.8458 -0.1252
-7 6 7 4.0620 -0.1151
-7 6 8 2.3475 0.0529
-7 6 9 -33.6387 0.0049
-7 6 10 -18.1843 0.1746
-7 6 11 28.6815 -0.0207
-7 6 12 1.0663 0.0682
-7 6 13 -9.4268 -0.0695
-7 6 14 2.9839 -0.1131
-7 6 15 15.9275 -0.0455
-7 6 16 1.1976 -0.1414
-7 6 17 -13.6327 0.0792
-7 6 18 -4.1757 -0.0203
-7 6 19 30.4999 0.1265
-7 6 20 -0.8716 0.0702
-7 6 21 -5.4325 0.0544
-7 6 22 -0.0542 0.0994
-7 6 23 13.5618 -0.0478
-7 6 24 -1.7687 -0.0463
-7 6 25 1.4966 -0.0050
-7 6 26 2.8297 -0.0442
-7 6 27 0.0842 0.0041
-7 6 28 -4.1555 0.0573
-7 6 29 -1.3454 -0.0935
-7 6 30 -0.9307 -0.0371
-7 6 31 -2.7180 0.0245
-7 6 32 3.6655 -0.1948
-7 6 33 -9.3762 -0.0472
-7 6 34 -5.0248 -0.3226
-7 7 1 -3.8117 0.0100
-7 7 2 -9.8655 0.0333
-7 7 3 3.1707 -0.0737
-7 7 4 2.7525 0.0860
-7 7 5 -0.6176 -0.3516
-7 7 6 -4.6144 0.0566
-7 7 7 2.4533 -0.2490
-7 7 8 19.4090 -0.1525
-7 7 9 -2.9380 -0.0232
-7 7 10 -10.0417 -0.3112
-7 7 11 -1.5172 0.0941
-7 7 12 -5.1186 -0.0376
-7 7 13 15.0772 0.1331
-7 7 14 -7.5924 0.0991
-7 7 15 5.4860 0.0019
-7 7 16 3.6552 -0.0153
-7 7 17 7.9395 -0.0249
-7 7 18 -7.7086 -0.0349
-7 7 19 -9.1911 0.0350
-7 7 20 -6.7029 0.0550
-7 7 21 5.7603 0.0446
-7 7 22 -11.5035 0.1071
-7 7 23 -8.1091 -0.0490
-7 7 24 8.1921 -0.0412
-7 7 25 6.2097 -0.0993
-7 7 26 -8.3981 -0.0583
-7 7 27 -4.1605 -0.0476
-7 7 28 -1.6479 -0.1160
-7 7 29 7.8705 -0.0132
-7 7 30 -1.2208 -0.1100
-7 7 31 -6.0489 0.0766
-7 7 32 3.4176 -0.0601
-7 7 33 -5.3356 -0.1568
-7 8 1 -11.9135 -0.3311
-7 8 2 -0.1693 -0.0442
-7 8 3 11.5831 -0.0073
-7 8 4 4.4673 -0.0428
-7 8 5 -14.0976 0.1297
-7 8 6 -18.9237 -0.0112
-7 8 7 -20.0416 0.0502
-7 8 8 38.8599 -0.1087
-7 8 9 -0.1337 0.0460
-7 8 10 -1.5710 -0.1438
-7 8 11 20.7706 0.1141
-7 8 12 -4.7312 0.0139
-7 8 13 -8.3296 0.0905
-7 8 14 -9.5933 0.1276
-7 8 15 21.2446 0.0169
-7 8 16 9.9869 0.1424
-7 8 17 -14.4130 -0.0056
-7 8 18 -0.1961 0.1376
-7 8 19 12.0954 -0.0285
-7 8 20 3.4757 0.0473
-7 8 21 -7.0662 -0.0850
-7 8 22 -8.3157 -0.1123
-7 8 23 19.3362 -0.0102
-7 8 24 2.3508 -0.1163
-7 8 25 -1.1462 0.0439
-7 8 26 1.7476 0.0818
-7 8 27 12.2410 -0.0041
-7 8 28 1.6077 0.0304
-7 8 29 -5.0394 -0.0257
-7 8 30 -5.5521 -0.1837
-7 8 31 2.0932 0.0107
-7 8 32 0.4822 -0.1584
-7 8 33 -5.3120 -0.0579
-7 9 1 13.4028 -0.0813
-7 9 2 1.0208 -0.0507
-7 9 3 0.0347 -0.0635
-7 9 4 8.5530 -0.0627
-7 9 5 12.0070 0.1275
-7 9 6 15.6041 0.0141
-7 9 7 -18.7923 0.3146
-7 9 8 -6.7152 0.1312
-7 9 9 -10.7350 0.1226
-7 9 10 7.6005 0.0921
-7 9 11 -19.5116 -0.1232
-7 9 12 -0.5860 0.0596
-7 9 13 5.2440 -0.0838
-7 9 14 -9.9983 0.0233
-7 9 15 -14.9448 0.0116
-7 9 16 5.0825 0.0429
-7 9 17 4.4567 0.0375
-7 9 18 2.1028 -0.0184
-7 9 19 -10.1198 -0.0194
-7 9 20 -5.7039 -0.1286
-7 9 21 2.4571 -0.0216
-7 9 22 1.0890 -0.0359
-7 9 23 -2.8725 0.0742
-7 9 24 -22.6474 0.0908
-7 9 25 1.2268 0.1036
-7 9 26 -5.6879 0.0805
-7 9 27 -3.1877 0.0402
-7 9 28 5.1522 -0.0606
-7 9 29 4.6483 -0.0809
-7 9 30 0.2548 -0.0146
-7 9 31 -0.0328 0.0986
-7 9 32 3.7110 0.1433
-7 10 1 -7.8093 0.0496
-7 10 2 -13.3994 0.0165
-7 10 3 -0.2353 0.0767
-7 10 4 9.6415 -0.0131
-7 10 5 -11.6884 -0.0359
-7 10 6 -12.8203 0.0049
-7 10 7 21.2860 0.0702
-7 10 8 28.0841 0.0612
-7 10 9 -16.6315 0.1375
-7 10 10 -10.1766 0.1461
-7 10 11 -11.2072 0.0302
-7 10 12 20.1059 0.1125
-7 10 13 2.2041 -0.0927
-7 10 14 -6.7141 -0.0942
-7 10 15 -3.1673 -0.1070
-7 10 16 14.4304 -0.1660
-7 10 17 -5.5308 -0.0126
-7 10 18 -1.6085 -0.0593
-7 10 19 7.5510 0.0982
-7 10 20 8.9213 0.0463
-7 10 21 -3.4007 0.0285
-7 10 22 10.1850 -0.0187
-7 10 23 6.8116 -0.0831
-7 10 24 0.2817 -0.0046
-7 10 25 9.0200 -0.0635
-7 10 26 -12.3959 0.0979
-7 10 27 -2.8095 0.0145
-7 10 28 4.5711 0.0003
-7 10 29 3.0462 0.0189
-7 10 30 0.9420 -0.0245
-7 10 31 -8.1263 -0.0443
-7 10 32 -2.7875 -0.2623
-7 11 1 19.5454 0.1420
-7 11 2 5.0744 0.1440
-7 11 3 -12.0523 0.1342
-7 11 4 -1.3932 0.0341
-7 11 5 -0.1578 0.0282
-7 11 6 -12.1672 -0.0033
-7 11 7 2.1650 -0.0035
-7 11 8 4.7063 0.0230
-7 11 9 3.5010 0.0313
-7 11 10 7.0121 -0.0337
-7 11 11 0.7551 0.1098
-7 11 12 9.4309 0.0745
-7 11 13 0.0896 0.0532
-7 11 14 8.8393 0.0616
-7 11 15 -1.4150 -0.0311
-7 11 16 1.7378 -0.0819
-7 11 17 6.6270 0.0390
-7 11 18 9.5853 -0.1118
-7 11 19 -17.7533 -0.0297
-7 11 20 -3.8560 -0.0637
-7 11 21 8.2452 -0.1327
-7 11 22 5.7286 0.0680
-7 11 23 -7.9986 -0.0632
-7 11 24 -6.2993 0.1162
-7 11 25 10.1085 0.0869
-7 11 26 -8.1134 0.0246
-7 11 27 1.3107 0.0435
-7 11 28 1.1711 -0.0428
-7 11 29 -4.8995 -0.0277
-7 11 30 1.1978 0.1370
-7 11 31 4.3734 0.0251
-7 12 1 -6.8250 0.0032
-7 12 2 -8.8845 0.0490
-7 12 3 -6.1305 0.0594
-7 12 4 2.1418 0.0960
-7 12 5 10.1321 0.0438
-7 12 6 7.8099 0.0081
-7 12 7 -3.6178 -0.0223
-7 12 8 -4.1527 -0.1237
-7 12 9 10.2336 -0.0653
-7 12 10 -9.4697 -0.0786
-7 12 11 -2.1080 0.0096
-7 12 12 11.0466 0.0212
-7 12 13 -2.0756 0.0923
-7 12 14 -5.8402 -0.0284
-7 12 15 -12.3491 0.0079
-7 12 16 8.3732 -0.0145
-7 12 17 4.1918 -0.1422
-7 12 18 -17.5160 -0.0543
-7 12 19 1.5273 -0.0854
-7 12 20 5.9593 -0.0176
-7 12 21 -5.7545 0.0017
-7 12 22 -5.5658 0.0044
-7 12 23 -4.9313 0.0081
-7 12 24 4.5841 0.0285
-7 12 25 12.0226 0.0551
-7 12 26 3.1124 0.0113
-7 12 27 3.6535 0.0695
-7 12 28 -3.0266 -0.0823
-7 12 29 -4.3335 -0.1792
-7 12 30 -3.6733 -0.1145
-7 13 1 3.6678 -0.1611
-7 13 2 23.3349 0.1143
-7 13 3 -0.6410 -0.0062
-7 13 4 -25.3710 0.0352
-7 13 5 -5.2048 0.1658
-7 13 6 7.1761 -0.0481
-7 13 7 2.8664 0.1598
-7 13 8 -4.1922 -0.1149
-7 13 9 -1.8629 -0.0128
-7 13 10 -3.0806 -0.1029
-7 13 11 3.8380 -0.1506
-7 13 12 -6.2064 0.0419
-7 13 13 -7.2204 -0.1400
-7 13 14 -3.4471 0.0081
-7 13 15 -2.7179 -0.0199
-7 13 16 -2.6016 -0.0235
-7 13 17 -3.1712 -0.0017
-7 13 18 -5.9898 0.0435
-7 13 19 9.5114 -0.0033
-7 13 20 -2.2955 0.0430
-7 13 21 -1.9436 -0.0132
-7 13 22 10.7640 0.0135
-7 13 23 -2.5395 -0.0014
-7 13 24 -9.3137 -0.0567
-7 13 25 -3.1094 0.0719
-7 13 26 14.2982 -0.0683
-7 13 27 5.2255 -0.0882
-7 13 28 -7.9415 -0.2302
-7 13 29 -1.5070 -0.2500
-7 14 1 -3.1916 -0.0692
-7 14 2 -9.0227 -0.0472
-7 14 3 0.4958 -0.0786
-7 14 4 6.1134 -0.1816
-7 14 5 27.1249 -0.0089
-7 14 6 -5.0117 -0.0647
-7 14 7 -15.8610 0.0298
-7 14 8 1.3500 0.0224
-7 14 9 3.9743 -0.0488
-7 14 10 -8.1358 0.0006
-7 14 11 -6.4514 -0.1777
-7 14 12 3.9868 -0.0832
-7 14 13 10.3454 -0.1271
-7 14 14 -5.4807 -0.0875
-7 14 15 -11.9820 -0.0197
-7 14 16 3.5966 0.0300
-7 14 17 8.1793 0.1477
-7 14 18 0.1126 0.0121
-7 14 19 -0.5749 0.1453
-7 14 20 3.4935 0.1050
-7 14 21 3.4350 0.0334
-7 14 22 -9.9970 0.0290
-7 14 23 -8.3076 0.0443
-7 14 24 2.3504 0.0253
-7 14 25 2.7742 0.0565
-7 14 26 5.6840 0.0245
-7 14 27 -2.6016 -0.3200
-7 14 28 0.4303 -0.1649
-7 15 1 3.1632 0.1149
-7 15 2 0.7946 0.0605
-7 15 3 1.9538 -0.0865
-7 15 4 -10.6160 -0.0233
-7 15 5 -3.1955 -0.1653
-7 15 6 0.7820 0.0049
-7 15 7 7.9287 -0.1344
-7 15 8 14.5038 0.0291
-7 15 9 -1.8726 -0.1374
-7 15 10 0.7813 0.0003
-7 15 11 -2.9584 -0.0034
-7 15 12 -0.1377 -0.0236
-7 15 13 0.8320 0.0683
-7 15 14 10.5971 -0.1425
-7 15 15 7.0524 0.0003
-7 15 16 4.4196 -0.0159
-7 15 17 -3.9645 0.0598
-7 15 18 -1.9211 0.0671
-7 15 19 4.6493 0.0905
-7 15 20 4.3305 0.0481
-7 15 21 3.5919 0.1205
-7 15 22 0.0801 0.0795
-7 15 23 -5.4851 0.0397
-7 15 24 -4.8112 -0.0046
-7 15 25 2.3879 -0.0484
-7 15 26 0.9643 -0.1054
-7 15 27 -8.4920 -0.1607
-7 16 1 -10.1696 -0.1518
-7 16 2 9.6975 0.0061
-7 16 3 -2.9373 -0.0848
-7 16 4 -5.8445 -0.0348
-7 16 5 10.1415 -0.0863
-7 16 6 4.3553 0.0506
-7 16 7 -20.9131 -0.0938
-7 16 8 3.1011 -0.0517
-7 16 9 10.0523 0.0158
-7 16 10 2.4464 -0.0563
-7 16 11 -15.0439 0.1228
-7 16 12 4.3119 0.0323
-7 16 13 -5.8205 0.0970
-7 16 14 -6.1597 0.0645
-7 16 15 0.5942 0.0775
-7 16 16 -3.6819 0.0364
-7 16 17 1.1617 0.0884
-7 16 18 4.7406 0.0608
-7 16 19 -11.9277 -0.0394
-7 16 20 2.7828 -0.0279
-7 16 21 9.9978 0.0758
-7 16 22 -1.0100 -0.1251
-7 16 23 -1.6429 0.0719
-7 16 24 2.3147 0.2990
-7 16 25 2.4649 0.0453
-7 17 1 -1.7600 -0.0903
-7 17 2 11.3677 0.1065
-7 17 3 -4.1033 -0.0411
-7 17 4 -6.8107 0.0019
-7 17 5 -0.7885 0.0757
-7 17 6 -3.3866 -0.0660
-7 17 7 -4.0211 0.0531
-7 17 8 -5.7619 -0.1177
-7 17 9 -0.2429 0.1207
-7 17 10 17.0890 0.0058
-7 17 11 4.4856 0.1940
-7 17 12 -0.4920 0.1443
-7 17 13 -8.8738 0.0530
-7 17 14 8.1224 0.0177
-7 17 15 4.6580 -0.1106
-7 17 16 -0.4796 0.0296
-7 17 17 -1.2847 0.1471
-7 17 18 2.6187 0.0352
-7 17 19 -0.7785 0.1880
-7 17 20 -12.3536 -0.3503
-7 17 21 -4.0498 -0.1376
-7 17 22 0.8403 -0.1993
-7 17 23 10.6384 -0.3470
-7 17 24 7.2590 -0.1319
-7 18 1 16.9518 0.0748
-7 18 2 2.3064 0.0111
-7 18 3 -3.3295 0.0665
-7 18 4 -8.4421 0.0434
-7 18 5 11.9235 0.1335
-7 18 6 7.0868 -0.0032
-7 18 7 2.1297 0.0694
-7 18 8 -3.0012 -0.0107
-7 18 9 5.6567 0.0510
-7 18 10 2.5503 0.1332
-7 18 11 -10.3011 -0.0149
-7 18 12 3.7887 0.0426
-7 18 13 -8.3914 0.0489
-7 18 14 4.3829 0.0281
-7 18 15 5.0542 0.0907
-7 18 16 -6.9579 0.1565
-7 18 17 -3.7101 -0.0194
-7 18 18 -1.5932 -0.0108
-7 18 19 8.8303 -0.1547
-7 18 20 3.2669 -0.4109
-7 18 21 2.5176 -0.4293
-7 18 22 -9.3799 -0.1190
-7 19 1 5.0337 0.1886
-7 19 2 -14.4308 -0.0847
-7 19 3 0.4396 0.2397
-7 19 4 -4.7484 -0.0507
-7 19 5 1.2437 0.0530
-7 19 6 -2.3420 0.1074
-7 19 7 -2.0320 -0.0089
-7 19 8 -1.1488 -0.0026
-7 19 9 -1.0602 -0.0173
-7 19 10 0.8027 0.1700
-7 19 11 2.1285 -0.0627
-7 19 12 2.0023 0.3051
-7 19 13 3.9613 -0.0600
-7 19 14 -0.4559 -0.0865
-7 19 15 1.9458 0.0125
-7 19 16 0.8703 -0.2236
-7 19 17 -8.4842 0.1908
-7 19 18 -1.5348 0.2716
-7 19 19 4.2299 -0.3311
-7 20 1 0.9373 0.1393
-7 20 2 5.3596 -0.0629
-7 20 3 -3.7525 0.1760
-7 20 4 6.3508 -0.1426
-7 20 5 2.2611 0.0848
-7 20 6 2.1025 0.0862
-7 20 7 6.3674 -0.2805
-7 20 8 -16.2147 0.0769
-7 20 9 -0.0813 -0.2102
-7 20 10 4.2789 0.1448
-7 20 11 -1.5079 0.2115
-7 20 12 -1.9623 -0.3954
-7 20 13 2.1694 0.0506
-7 20 14 6.1494 -0.3494
-7 20 15 -1.3434 -0.1328
-7 20 16 -1.4586 -0.0571
-7 20 17 1.9769 0.0697
-7 21 1 14.1156 -0.1628
-7 21 2 7.8655 -0.0533
-7 21 3 -8.0868 -0.1789
-7 21 4 -1.2137 -0.0310
-7 21 5 -2.3169 -0.0666
-7 21 6 -1.5441 -0.0608
-7 21 7 -1.7184 0.1164
-7 21 8 -0.5405 -0.0734
-7 21 9 -0.6686 0.0832
-7 21 10 -6.3437 -0.1218
-7 21 11 -3.1649 0.0187
-7 21 12 -0.0171 -0.5001
-7 21 13 1.2642 0.0532
-7 21 14 5.7152 -0.4837
-7 22 1 -8.9754 0.0654
-7 22 2 7.7064 0.1093
-7 22 3 -1.8109 -0.3617
-7 22 4 8.9109 -0.2379
-7 22 5 -1.5993 -0.5391
-7 22 6 1.3291 -0.3849
-7 22 7 2.5468 0.1881
-7 22 8 4.3704 -0.3877
-7 22 9 0.4994 0.8864
-6 0 2 -30.2684 -0.2936
-6 0 4 9.1724 1.7025
-6 0 6 -13.9345 0.3253
-6 0 8 -6.8190 -1.5596
-6 0 10 -1.5818 -1.5226
-6 0 12 20.0846 0.1275
-6 0 14 16.4821 1.3222
-6 0 16 -5.8581 1.0868
-6 0 18 20.9928 -0.0763
-6 0 20 21.7228 -0.5156
-6 0 22 9.3376 0.1670
-6 0 24 12.4399 0.4204
-6 0 26 -0.3340 -0.2214
-6 0 28 9.0264 -0.5889
-6 0 30 18.7233 -0.2715
-6 0 32 -14.3523 0.2404
-6 0 34 11.6599 0.3589
-6 1 1 -37.7469 -0.3054
-6 1 2 -13.0907 -1.2998
-6 1 3 37.6625 0.0574
-6 1 4 -15.6738 -1.4636
-6 1 5 -23.6375 -0.2313
-6 1 6 13.9235 -0.2231
-6 1 7 8.3291 0.0941
-6 1 8 11.9553 0.8625
-6 1 9 -0.9882 0.3411
-6 1 10 -4.2567 0.2901
-6 1 11 35.2274 0.0799
-6 1 12 -3.0820 -0.2234
-6 1 13 -34.1541 -0.1756
-6 1 14 15.5190 0.4633
-6 1 15 7.9474 -0.3341
-6 1 16 17.6487 0.8644
-6 1 17 -11.8345 -0.1408
-6 1 18 -23.0490 0.1173
-6 1 19 13.9506 -0.0287
-6 1 20 1.3094 -0.7668
-6 1 21 -24.5898 -0.0928
-6 1 22 3.3543 -0.9096
-6 1 23 5.1700 -0.0887
-6 1 24 4.4896 -0.3112
-6 1 25 -10.6890 0.0074
-6 1 26 -5.5175 0.4012
-6 1 27 -9.2141 0.1470
-6 1 28 8.1161 0.3857
-6 1 29 -11.3177 0.1254
-6 1 30 5.2523 -0.0736
-6 1 31 1.3203 0.0023
-6 1 32 -4.4584 -0.1536
-6 1 33 -2.7989 -0.0618
-6 1 34 3.3321 0.1076
-6 1 35 -2.6670 -0.1822
-6 2 1 -8.5697 0.2118
-6 2 2 -1.2482 -0.1815
-6 2 3 9.8241 0.3271
-6 2 4 27.8044 -0.0967
-6 2 5 -12.8715 0.0414
-6 2 6 -17.8345 0.5104
-6 2 7 -36.7774 -0.1638
-6 2 8 2.4059 0.8907
-6 2 9 16.7927 -0.0556
-6 2 10 -6.3177 0.6268
-6 2 11 12.8198 0.2043
-6 2 12 -16.8204 0.1839
-6 2 13 5.7347 0.2253
-6 2 14 3.9782 -0.3542
-6 2 15 -16.1115 -0.0355
-6 2 16 -9.7879 -0.5830
-6 2 17 16.3976 -0.1927
-6 2 18 -10.3774 -0.2581
-6 2 19 -6.4054 -0.0835
-6 2 20 -4.2313 -0.0308
-6 2 21 11.6313 0.1516
-6 2 22 -1.4542 -0.0591
-6 2 23 -10.2948 0.0879
-6 2 24 3.9080 0.0332
-6 2 25 4.5656 -0.0745
-6 2 26 5.7401 0.2450
-6 2 27 -2.9258 -0.0950
-6 2 28 12.8578 0.3036
-6 2 29 2.8260 0.0721
-6 2 30 -1.1436 0.1252
-6 2 31 -9.2828 0.1264
-6 2 32 4.1420 -0.1505
-6 2 33 -4.3229 -0.0409
-6 2 34 5.9570 -0.1606
-6 2 35 -1.5121 0.0742
-6 3 1 -35.1803 0.4116
-6 3 2 -15.9253 0.8927
-6 3 3 42.1065 0.0359
-6 3 4 20.1678 0.6085
-6 3 5 -2.1462 -0.2661
-6 3 6 4.1742 -0.1118
-6 3 7 28.0658 0.0435
-6 3 8 14.2380 -0.2940
-6 3 9 -38.7436 0.3311
-6 3 10 -29.1443 -0.1527
-6 3 11 28.2605 0.1599
-6 3 12 -8.7403 -0.1335
-6 3 13 -9.6313 -0.0804
-6 3 14 -7.1027 -0.2933
-6 3 15 19.2480 -0.2006
-6 3 16 6.8455 -0.3371
-6 3 17 -15.1133 -0.1582
-6 3 18 -11.2325 -0.0197
-6 3 19 12.7123 -0.0255
-6 3 20 -3.6171 0.2715
-6 3 21 -10.7541 0.0413
-6 3 22 -8.1102 0.2951
-6 3 23 0.1746 -0.0244
-6 3 24 6.0794 0.1051
-6 3 25 -2.2316 -0.0012
-6 3 26 -6.1257 -0.0330
-6 3 27 -3.9514 0.1436
-6 3 28 1.8539 -0.0949
-6 3 29 -4.6909 0.1572
-6 3 30 -2.9255 -0.0289
-6 3 31 -7.3187 0.0314
-6 3 32 -0.3735 -0.0298
-6 3 33 -4.6583 -0.0450
-6 3 34 -0.9991 0.0153
-6 3 35 -5.1851 -0.1584
-6 4 1 -21.6807 0.2544
-6 4 2 -3.1917 0.0807
-6 4 3 -18.0413 0.0699
-6 4 4 -34.2889 0.3730
-6 4 5 -9.4427 -0.0004
-6 4 6 -38.0993 0.0840
-6 4 7 -12.0851 0.0198
-6 4 8 6.3910 -0.4834
-6 4 9 8.4571 -0.0452
-6 4 10 12.4393 -0.5954
-6 4 11 16.4288 -0.0285
-6 4 12 -27.8027 -0.0070
-6 4 13 -3.6392 0.0138
-6 4 14 2.2738 0.4542
-6 4 15 4.1506 -0.0674
-6 4 16 7.1388 0.2222
-6 4 17 5.9684 -0.1359
-6 4 18 19.5669 -0.1906
-6 4 19 -0.0825 0.0553
-6 4 20 -0.8737 -0.1412
-6 4 21 4.2954 0.1739
-6 4 22 -0.9945 0.1978
-6 4 23 1.8638 0.0951
-6 4 24 3.3532 0.1867
-6 4 25 -0.5759 0.0622
-6 4 26 7.2527 -0.0662
-6 4 27 -1.0811 -0.0258
-6 4 28 4.8277 -0.1805
-6 4 29 3.9716 -0.0374
-6 4 30 -2.9266 -0.0554
-6 4 31 4.8604 0.1001
-6 4 32 -1.8268 0.0063
-6 4 33 -4.2294 -0.1423
-6 4 34 6.5801 0.0141
-6 4 35 2.7452 0.0569
-6 5 1 -0.1388 -0.3650
-6 5 2 11.4269 -0.1942
-6 5 3 23.6945 -0.0210
-6 5 4 36.4827 -0.2620
-6 5 5 7.5369 0.0287
-6 5 6 -0.7760 -0.0163
-6 5 7 -1.6907 0.0675
-6 5 8 23.2709 0.1051
-6 5 9 -4.3024 0.1136
-6 5 10 -19.7063 -0.0092
-6 5 11 24.3557 0.0192
-6 5 12 23.8927 -0.0054
-6 5 13 2.9291 -0.1055
-6 5 14 -23.4875 0.0774
-6 5 15 2.2676 -0.1268
-6 5 16 11.0114 0.1415
-6 5 17 -3.2350 -0.0170
-6 5 18 -9.2545 0.1039
-6 5 19 -3.9362 0.0826
-6 5 20 17.2456 -0.0893
-6 5 21 -7.3328 0.0443
-6 5 22 -8.0408 -0.1564
-6 5 23 2.7452 0.0199
-6 5 24 6.1760 -0.0101
-6 5 25 2.0690 0.0339
-6 5 26 -5.8810 0.1500
-6 5 27 -8.1720 0.0391
-6 5 28 3.4024 0.0401
-6 5 29 4.8959 -0.0188
-6 5 30 0.5281 0.0153
-6 5 31 7.7789 -0.0448
-6 5 32 0.6931 -0.0323
-6 5 33 8.4360 -0.0871
-6 5 34 4.4765 0.0326
-6 5 35 -3.9205 -0.2736
-6 6 1 0.7802 0.1397
-6 6 2 17.2292 0.0357
-6 6 3 -25.1967 -0.0673
-6 6 4 14.9535 -0.1986
-6 6 5 -6.5022 0.1312
-6 6 6 20.1589 -0.1117
-6 6 7 11.5799 0.1736
-6 6 8 19.8619 0.2112
-6 6 9 -10.0512 -0.0400
-6 6 10 1.1181 0.2227
-6 6 11 -9.8934 -0.1511
-6 6 12 -4.7357 0.0076
-6 6 13 4.6190 -0.1384
-6 6 14 -6.1125 -0.1085
-6 6 15 -1.2802 -0.0574
-6 6 16 6.2262 -0.0545
-6 6 17 7.6965 0.0678
-6 6 18 -9.1337 -0.0734
-6 6 19 -7.4024 0.0575
-6 6 20 -3.2442 0.0140
-6 6 21 11.1276 -0.0380
-6 6 22 2.9739 0.0537
-6 6 23 -7.9265 -0.0127
-6 6 24 -7.9887 -0.0266
-6 6 25 4.4890 0.1283
-6 6 26 4.3335 -0.0163
-6 6 27 -2.1595 0.0370
-6 6 28 0.3235 0.0673
-6 6 29 -13.9523 -0.1387
-6 6 30 0.3638 0.0181
-6 6 31 4.6304 -0.0273
-6 6 32 -9.2691 -0.0302
-6 6 33 3.0825 -0.0097
-6 6 34 -5.4491 -0.2212
-6 7 1 7.4621 0.1693
-6 7 2 3.8880 0.0492
-6 7 3 -27.9663 -0.1677
-6 7 4 38.7300 0.0179
-6 7 5 5.9225 -0.3596
-6 7 6 -46.2828 -0.0395
-6 7 7 -40.5739 -0.2252
-6 7 8 13.5735 -0.1141
-6 7 9 21.5043 -0.0171
-6 7 10 -0.5870 -0.0416
-6 7 11 -42.0015 0.0441
-6 7 12 12.4042 0.1301
-6 7 13 11.8168 -0.0083
-6 7 14 -32.0098 -0.0559
-6 7 15 -14.3934 -0.0312
-6 7 16 4.9706 -0.2751
-6 7 17 12.6842 0.0890
-6 7 18 -12.1828 -0.0408
-6 7 19 -5.0517 0.1668
-6 7 20 6.5391 0.1837
-6 7 21 6.5663 0.0355
-6 7 22 -16.2764 0.0868
-6 7 23 0.9615 -0.1144
-6 7 24 9.8530 -0.0258
-6 7 25 2.6180 -0.0973
-6 7 26 -7.3883 0.0127
-6 7 27 0.9308 -0.0441
-6 7 28 17.8522 -0.0624
-6 7 29 2.7248 -0.0025
-6 7 30 3.2863 -0.0731
-6 7 31 -6.5935 0.1462
-6 7 32 1.6577 -0.0701
-6 7 33 2.6616 -0.2295
-6 7 34 -11.8179 0.0346
-6 8 1 -19.1350 -0.2003
-6 8 2 5.9739 0.0452
-6 8 3 -9.2240 -0.0411
-6 8 4 -10.7384 0.0382
-6 8 5 4.9843 -0.0854
-6 8 6 7.6120 -0.0764
-6 8 7 -4.9101 -0.1709
-6 8 8 -20.2744 -0.2955
-6 8 9 5.2182 -0.0202
-6 8 10 8.0204 -0.2180
-6 8 11 4.6614 0.1726
-6 8 12 8.6580 0.0665
-6 8 13 5.8807 0.1315
-6 8 14 14.7514 0.1254
-6 8 15 17.5869 -0.0092
-6 8 16 -12.3589 0.0614
-6 8 17 6.5775 -0.0089
-6 8 18 6.2483 0.0707
-6 8 19 7.6032 -0.0422
-6 8 20 1.4288 0.0380
-6 8 21 1.5361 -0.0581
-6 8 22 12.6714 -0.0394
-6 8 23 -3.8620 -0.0494
-6 8 24 -13.2062 -0.0424
-6 8 25 -0.3790 0.0005
-6 8 26 1.4929 -0.0222
-6 8 27 -1.1709 -0.0539
-6 8 28 -6.2541 -0.0727
-6 8 29 -10.4466 -0.0474
-6 8 30 2.3471 -0.0494
-6 8 31 -6.5320 -0.0785
-6 8 32 -9.5762 -0.2884
-6 8 33 12.3874 -0.1412
-6 9 1 9.8310 -0.1893
-6 9 2 -26.5561 -0.0481
-6 9 3 -23.7862 -0.0337
-6 9 4 13.7077 -0.1325
-6 9 5 8.0143 0.2173
-6 9 6 -8.4427 -0.0643
-6 9 7 -13.5889 0.2187
-6 9 8 8.0198 0.0126
-6 9 9 36.3402 0.0170
-6 9 10 -15.6446 0.0076
-6 9 11 -23.0660 -0.0493
-6 9 12 0.9675 0.0989
-6 9 13 4.1698 0.0507
-6 9 14 -7.7890 0.1297
-6 9 15 -10.5516 0.0486
-6 9 16 5.2316 0.0992
-6 9 17 1.9036 0.0054
-6 9 18 -27.8192 0.0411
-6 9 19 -3.2282 0.0056
-6 9 20 -0.1465 -0.0856
-6 9 21 8.8284 -0.0059
-6 9 22 -0.3378 -0.0382
-6 9 23 -11.0894 0.0460
-6 9 24 12.7144 0.0061
-6 9 25 12.7875 0.0916
-6 9 26 5.5837 0.0161
-6 9 27 -0.9873 -0.0072
-6 9 28 3.5989 -0.0506
-6 9 29 7.3286 -0.0020
-6 9 30 1.8996 -0.0157
-6 9 31 -4.1441 0.1278
-6 9 32 -6.2364 0.2074
-6 9 33 2.7293 -0.3383
-6 10 1 11.5857 -0.0245
-6 10 2 11.0089 -0.0392
-6 10 3 5.6751 0.0502
-6 10 4 7.0348 0.0124
-6 10 5 -6.5701 0.1332
-6 10 6 13.2602 0.0577
-6 10 7 -4.3004 0.1668
-6 10 8 2.6776 0.0821
-6 10 9 -2.7409 0.0643
-6 10 10 2.5959 0.1678
-6 10 11 9.9884 -0.0451
-6 10 12 5.0199 0.1064
-6 10 13 -5.3646 -0.1189
-6 10 14 0.2987 -0.1080
-6 10 15 4.3868 -0.0302
-6 10 16 -2.0186 -0.0897
-6 10 17 -0.9672 0.0707
-6 10 18 -0.9534 0.0162
-6 10 19 16.2725 0.0545
-6 10 20 -12.5836 -0.0190
-6 10 21 -2.2140 0.0187
-6 10 22 0.4074 -0.0853
-6 10 23 0.1544 -0.0284
-6 10 24 -0.3254 -0.0214
-6 10 25 -20.0904 -0.0034
-6 10 26 -3.4628 0.0471
-6 10 27 5.1746 0.0163
-6 10 28 2.4417 0.0203
-6 10 29 -16.8083 -0.1265
-6 10 30 6.1630 0.0705
-6 10 31 12.5110 -0.0265
-6 10 32 -10.2722 -0.3400
-6 11 1 -4.8210 0.0540
-6 11 2 -2.7773 0.0149
-6 11 3 -19.9830 0.0294
-6 11 4 7.9666 -0.0783
-6 11 5 6.5004 -0.0376
-6 11 6 12.6867 -0.0038
-6 11 7 -28.0048 0.0089
-6 11 8 5.2872 0.0903
-6 11 9 -8.7562 0.0978
-6 11 10 1.2920 0.0844
-6 11 11 -11.6392 0.0257
-6 11 12 -3.5499 0.0327
-6 11 13 12.9390 -0.0501
-6 11 14 7.4816 -0.0683
-6 11 15 -15.8941 -0.0486
-6 11 16 -10.5556 -0.0934
-6 11 17 15.0388 0.0393
-6 11 18 1.3354 -0.0441
-6 11 19 -3.5507 0.0273
-6 11 20 -8.1527 0.0071
-6 11 21 12.7120 -0.0844
-6 11 22 -4.7659 0.1012
-6 11 23 -8.1426 -0.0152
-6 11 24 5.1401 0.0902
-6 11 25 4.7907 0.0432
-6 11 26 9.4733 0.0149
-6 11 27 1.7548 0.0055
-6 11 28 -0.0253 -0.1093
-6 11 29 0.4031 0.0287
-6 11 30 2.1882 0.2664
-6 11 31 -8.6922 -0.1390
-6 12 1 15.4424 0.1174
-6 12 2 14.6741 0.1283
-6 12 3 -0.3452 0.1118
-6 12 4 -9.5973 0.1173
-6 12 5 -0.2354 0.0178
-6 12 6 12.0389 -0.0451
-6 12 7 -7.1067 -0.0772
-6 12 8 22.1742 -0.0717
-6 12 9 -8.4245 0.0179
-6 12 10 12.3868 0.0231
-6 12 11 4.7119 0.1841
-6 12 12 8.0534 0.0485
-6 12 13 9.5417 0.1290
-6 12 14 2.6084 -0.0574
-6 12 15 -0.4748 -0.0701
-6 12 16 8.2926 -0.0290
-6 12 17 -6.8038 -0.0953
-6 12 18 7.7054 -0.0096
-6 12 19 12.2485 -0.0690
-6 12 20 -3.3392 -0.0019
-6 12 21 -4.6751 -0.0463
-6 12 22 -3.9906 0.0299
-6 12 23 13.3693 -0.0976
-6 12 24 -8.9846 0.0370
-6 12 25 -11.2697 0.0562
-6 12 26 2.6334 -0.0263
-6 12 27 1.1500 0.0752
-6 12 28 0.2515 0.1149
-6 12 29 3.7339 -0.0001
-6 12 30 6.3210 -0.0804
-6 13 1 1.7078 -0.0637
-6 13 2 -0.9394 0.0979
-6 13 3 -12.2660 0.0968
-6 13 4 -19.7388 0.0612
-6 13 5 6.5174 0.1437
-6 13 6 3.3584 -0.0474
-6 13 7 -9.6594 0.1016
-6 13 8 -7.0052 -0.1166
-6 13 9 -1.2008 -0.0135
-6 13 10 8.1592 -0.0698
-6 13 11 -14.8015 -0.0528
-6 13 12 -4.4606 -0.0163
-6 13 13 9.8639 0.0105
-6 13 14 6.0236 -0.0125
-6 13 15 -4.9170 -0.0462
-6 13 16 -11.7180 -0.0255
-6 13 17 -9.0616 -0.0787
-6 13 18 13.9573 -0.0232
-6 13 19 -5.3642 -0.1153
-6 13 20 1.6544 -0.0674
-6 13 21 -3.0606 -0.0562
-6 13 22 -2.7645 0.0179
-6 13 23 0.7301 0.0972
-6 13 24 -7.9636 0.1037
-6 13 25 5.5976 0.0570
-6 13 26 8.1584 -0.0541
-6 13 27 0.7597 -0.0833
-6 13 28 0.4744 -0.2326
-6 13 29 -4.7181 -0.3178
-6 14 1 2.2327 -0.1033
-6 14 2 3.1007 -0.0079
-6 14 3 10.5468 -0.0146
-6 14 4 -3.6237 -0.0751
-6 14 5 7.8029 0.1386
-6 14 6 2.5283 -0.0532
-6 14 7 3.4215 0.0912
-6 14 8 0.5293 -0.0597
-6 14 9 0.2188 -0.0270
-6 14 10 -1.9032 -0.0503
-6 14 11 0.3136 -0.0869
-6 14 12 -0.5560 -0.0354
-6 14 13 -0.8715 -0.1670
-6 14 14 -16.2415 -0.0245
-6 14 15 -2.5995 -0.0590
-6 14 16 -1.7700 0.0059
-6 14 17 3.4458 0.1424
-6 14 18 -1.7793 0.0510
-6 14 19 -11.8773 0.1021
-6 14 20 8.4508 0.0715
-6 14 21 -2.9852 0.0624
-6 14 22 5.8443 0.0213
-6 14 23 0.7528 0.0053
-6 14 24 1.7420 -0.0962
-6 14 25 -1.7601 0.0585
-6 14 26 -3.2567 -0.0171
-6 14 27 4.1377 -0.1883
-6 14 28 -5.2227 -0.1068
-6 15 1 2.3473 0.0080
-6 15 2 -4.4808 -0.0268
-6 15 3 -1.7761 -0.0564
-6 15 4 -17.9711 -0.0453
-6 15 5 1.5727 0.0116
-6 15 6 5.8818 -0.0550
-6 15 7 5.8459 -0.0546
-6 15 8 -8.1399 0.0050
-6 15 9 6.7880 -0.1627
-6 15 10 1.1235 0.0445
-6 15 11 -1.2854 -0.1073
-6 15 12 -7.8290 -0.0748
-6 15 13 -4.8687 -0.0473
-6 15 14 6.5488 -0.1551
-6 15 15 8.7171 0.0316
-6 15 16 -14.6593 -0.0645
-6 15 17 18.8058 0.0814
-6 15 18 3.7194 0.0802
-6 15 19 -5.7595 0.0792
-6 15 20 -1.0684 0.0070
-6 15 21 -13.6006 0.0194
-6 15 22 6.0562 0.0348
-6 15 23 -3.1394 0.0376
-6 15 24 -1.7224 0.0504
-6 15 25 5.8692 -0.0200
-6 15 26 7.9102 -0.1543
-6 15 27 -1.7130 -0.5559
-6 16 1 18.8325 0.0204
-6 16 2 -6.0137 -0.0429
-6 16 3 10.6376 -0.0201
-6 16 4 6.4710 0.0162
-6 16 5 2.5672 -0.1909
-6 16 6 -3.7199 0.0723
-6 16 7 -2.9347 -0.1615
-6 16 8 -5.2331 0.0372
-6 16 9 -4.4379 0.0087
-6 16 10 -1.9110 -0.0097
-6 16 11 16.7046 0.0957
-6 16 12 -1.6493 -0.0811
-6 16 13 -1.7054 -0.0020
-6 16 14 -3.6055 -0.0851
-6 16 15 2.4614 0.0174
-6 16 16 5.0074 0.1000
-6 16 17 7.1734 0.0735
-6 16 18 -5.7375 0.1204
-6 16 19 14.5831 0.0204
-6 16 20 12.0637 0.0654
-6 16 21 -11.9903 0.1511
-6 16 22 -2.7045 0.0581
-6 16 23 -1.4416 0.0918
-6 16 24 4.1893 0.0053
-6 16 25 -4.4444 -0.1533
-6 16 26 4.5566 0.0346
-6 17 1 -7.8273 -0.0634
-6 17 2 -5.3703 0.0858
-6 17 3 0.5494 -0.0232
-6 17 4 -8.0463 -0.0740
-6 17 5 -4.3714 -0.0605
-6 17 6 15.7534 -0.0441
-6 17 7 0.3860 -0.0746
-6 17 8 -17.6144 0.0181
-6 17 9 -5.6044 -0.0021
-6 17 10 -9.9465 -0.0763
-6 17 11 5.7361 0.2146
-6 17 12 3.6228 0.0117
-6 17 13 -3.5203 0.0753
-6 17 14 0.4243 -0.0139
-6 17 15 -4.1971 -0.0465
-6 17 16 -9.5888 0.0082
-6 17 17 2.8120 0.0321
-6 17 18 6.3385 0.0790
-6 17 19 -7.0078 0.0660
-6 17 20 -13.5548 -0.0162
-6 17 21 6.2348 0.0183
-6 17 22 13.2525 -0.1068
-6 17 23 -7.8488 -0.1213
-6 17 24 4.4768 -0.0060
-6 18 1 13.5743 0.0072
-6 18 2 10.6501 0.0892
-6 18 3 0.1240 -0.0269
-6 18 4 4.8200 0.0853
-6 18 5 0.4589 0.0323
-6 18 6 -0.0841 -0.0042
-6 18 7 0.7483 0.1486
-6 18 8 -1.4136 -0.0461
-6 18 9 14.0941 0.1037
-6 18 10 3.8212 0.1005
-6 18 11 -6.3857 0.1163
-6 18 12 -0.1567 0.0362
-6 18 13 11.0430 0.0300
-6 18 14 1.3160 -0.0306
-6 18 15 7.2423 0.0508
-6 18 16 7.4927 0.1456
-6 18 17 -14.7053 0.1389
-6 18 18 -4.3061 -0.0706
-6 18 19 9.3838 -0.1960
-6 18 20 -0.8567 -0.3768
-6 18 21 1.9977 -0.2839
-6 18 22 0.0832 0.1978
-6 18 23 -12.0318 -0.1620
-6 19 1 -6.3129 0.2181
-6 19 2 0.6142 0.0362
-6 19 3 -1.4058 0.0370
-6 19 4 3.4050 0.1057
-6 19 5 2.0269 -0.0522
-6 19 6 5.6141 -0.0394
-6 19 7 8.3553 0.0116
-6 19 8 -7.1575 0.0384
-6 19 9 -3.4593 0.1801
-6 19 10 6.5684 0.0616
-6 19 11 9.7025 0.0748
-6 19 12 -10.0979 0.3270
-6 19 13 -4.4641 -0.0473
-6 19 14 -4.0829 0.0578
-6 19 15 5.2347 0.0903
-6 19 16 1.3182 -0.1399
-6 19 17 6.0598 0.0667
-6 19 18 -0.4470 0.1026
-6 19 19 -5.2908 -0.2736
-6 19 20 9.6415 -0.0654
-6 20 1 -0.9688 0.0909
-6 20 2 8.7306 -0.1167
-6 20 3 -1.1088 0.2377
-6 20 4 -5.6086 -0.0159
-6 20 5 -5.0390 0.0809
-6 20 6 -1.4091 -0.0014
-6 20 7 -0.0825 -0.0923
-6 20 8 7.3684 0.0146
-6 20 9 5.5519 -0.2088
-6 20 10 -13.3423 0.0692
-6 20 11 -0.2605 -0.0546
-6 20 12 -9.0208 0.0157
-6 20 13 -0.3232 -0.0798
-6 20 14 -10.9621 -0.0907
-6 20 15 -1.3038 0.0302
-6 20 16 -2.8579 0.0117
-6 20 17 -4.3831 0.2848
-6 20 18 3.0585 -0.4540
-6 21 1 -10.7958 -0.0844
-6 21 2 2.8949 0.0353
-6 21 3 -4.6464 -0.1182
-6 21 4 -1.4256 -0.1230
-6 21 5 -4.8817 0.0576
-6 21 6 -2.2890 -0.0295
-6 21 7 5.7436 -0.3115
-6 21 8 -8.4934 0.2242
-6 21 9 -2.5640 -0.1666
-6 21 10 7.7779 -0.0706
-6 21 11 12.9032 -0.1175
-6 21 12 -4.6979 -0.4620
-6 21 13 2.1464 -0.0066
-6 21 14 5.5183 -0.3981
-6 21 15 8.5967 -0.0366
-6 22 1 1.9598 -0.3262
-6 22 2 12.3799 0.0206
-6 22 3 0.6406 -0.4783
-6 22 4 1.1472 -0.0226
-6 22 5 3.6529 -0.1518
-6 22 6 -2.0576 0.1598
-6 22 7 2.4790 0.3692
-6 22 8 -0.0181 0.3047
-6 22 9 3.1929 0.2231
-6 22 10 -4.2362 0.1967
-6 22 11 0.0462 -0.0243
-5 0 2 -37.9678 2.9058
-5 0 4 23.1925 1.9829
-5 0 6 -35.1283 -1.0851
-5 0 8 7.3009 -1.9976
-5 0 10 -42.4235 -0.6744
-5 0 12 11.0273 0.6263
-5 0 14 -39.6801 0.7808
-5 0 16 29.5681 -0.1008
-5 0 18 -12.7450 -0.3821
-5 0 20 14.8410 0.5141
-5 0 22 -8.3202 0.9854
-5 0 24 15.6290 0.0911
-5 0 26 -3.7611 -0.7613
-5 0 28 11.3036 -0.5580
-5 0 30 2.4565 0.0610
-5 0 32 -7.5262 0.3439
-5 0 34 1.7540 0.0449
-5 1 1 21.1852 -0.0875
-5 1 2 -30.4542 -0.4912
-5 1 3 37.5451 -0.2292
-5 1 4 -2.1461 -0.2553
-5 1 5 45.3410 -0.0997
-5 1 6 4.0152 0.1174
-5 1 7 -1.8476 0.2340
-5 1 8 -22.7627 -0.6257
-5 1 9 14.8579 0.3756
-5 1 10 25.2860 -1.0958
-5 1 11 19.6103 0.0693
-5 1 12 1.1502 0.2040
-5 1 13 -2.7820 -0.1292
-5 1 14 1.0153 1.5759
-5 1 15 0.6160 -0.0450
-5 1 16 17.0097 1.0799
-5 1 17 -9.0351 -0.0389
-5 1 18 6.9979 -0.2895
-5 1 19 -1.8155 -0.1542
-5 1 20 2.5271 -0.8640
-5 1 21 -3.0224 -0.2890
-5 1 22 14.4256 -0.5030
-5 1 23 -4.2942 -0.1478
-5 1 24 -0.6918 0.0690
-5 1 25 -6.4059 0.0456
-5 1 26 -1.7827 0.1459
-5 1 27 -0.3383 0.1369
-5 1 28 9.5893 -0.1707
-5 1 29 -7.0953 0.0928
-5 1 30 0.6001 -0.1972
-5 1 31 7.3281 0.0171
-5 1 32 0.8075 0.1462
-5 1 33 3.8237 -0.0441
-5 1 34 -0.2158 0.3485
-5 1 35 -6.0321 -0.3790
-5 2 1 -40.2894 0.1961
-5 2 2 -82.3095 -1.2569
-5 2 3 -21.4219 0.0203
-5 2 4 -17.3191 -0.5117
-5 2 5 32.5412 -0.0989
-5 2 6 -45.4558 0.5180
-5 2 7 -8.8940 -0.0975
-5 2 8 20.1360 0.7673
-5 2 9 4.1481 0.0187
-5 2 10 -48.7126 0.6008
-5 2 11 -12.2163 0.1645
-5 2 12 26.8741 0.2589
-5 2 13 3.3487 0.0265
-5 2 14 -13.2242 -0.0881
-5 2 15 5.2938 -0.1016
-5 2 16 27.9811 -0.2022
-5 2 17 7.9717 -0.0624
-5 2 18 8.0906 -0.1614
-5 2 19 -19.1766 0.0556
-5 2 20 3.1337 -0.3800
-5 2 21 4.6124 0.0764
-5 2 22 1.2604 -0.4306
-5 2 23 -1.9246 -0.0649
-5 2 24 7.3795 0.0345
-5 2 25 3.6659 -0.0970
-5 2 26 -3.8139 0.3519
-5 2 27 -11.6810 -0.0371
-5 2 28 11.8036 0.2942
-5 2 29 7.1849 0.0633
-5 2 30 -6.4885 0.1012
-5 2 31 -3.3190 0.0403
-5 2 32 0.1430 -0.0942
-5 2 33 -0.6950 -0.0929
-5 2 34 2.9990 -0.1988
-5 2 35 4.6396 0.0795
-5 3 1 27.2379 0.2294
-5 3 2 7.1357 0.7674
-5 3 3 -36.1938 -0.1088
-5 3 4 9.7395 0.3042
-5 3 5 1.2494 -0.0374
-5 3 6 -4.9672 0.0943
-5 3 7 25.1492 0.2078
-5 3 8 -5.7794 0.2266
-5 3 9 -3.5456 0.3035
-5 3 10 15.2542 0.2535
-5 3 11 19.3929 0.0829
-5 3 12 -13.8448 -0.1575
-5 3 13 -28.0286 -0.0179
-5 3 14 -30.2688 -0.4711
-5 3 15 3.4657 -0.0242
-5 3 16 -13.9015 -0.3288
-5 3 17 -11.4613 -0.0474
-5 3 18 4.6895 -0.0044
-5 3 19 -0.8379 -0.0307
-5 3 20 -4.5736 0.1636
-5 3 21 -12.3767 -0.1512
-5 3 22 -2.5982 0.0933
-5 3 23 5.3489 -0.1279
-5 3 24 -11.1960 0.0524
-5 3 25 2.2900 0.0864
-5 3 26 3.4762 0.0820
-5 3 27 -1.2255 0.1915
-5 3 28 -1.9650 0.0742
-5 3 29 -10.2260 0.1126
-5 3 30 12.5911 0.0105
-5 3 31 5.5624 -0.0335
-5 3 32 1.9619 -0.1409
-5 3 33 -2.2554 0.0472
-5 3 34 -5.9247 -0.0077
-5 3 35 -0.9717 -0.1773
-5 4 1 -18.8720 0.5378
-5 4 2 4.0746 0.3285
-5 4 3 -10.8950 -0.1541
-5 4 4 37.6867 0.4193
-5 4 5 46.6634 -0.0564
-5 4 6 -18.1641 -0.1293
-5 4 7 -37.4831 0.0747
-5 4 8 14.3076 -0.6653
-5 4 9 43.0720 0.0139
-5 4 10 -17.0335 -0.4083
-5 4 11 -19.7517 0.0474
-5 4 12 32.3000 0.1879
-5 4 13 40.6543 -0.0058
-5 4 14 -5.1981 0.2345
-5 4 15 4.7056 -0.1595
-5 4 16 -19.4808 -0.1475
-5 4 17 20.5843 -0.1517
-5 4 18 9.2925 -0.2156
-5 4 19 -7.9430 0.0222
-5 4 20 1.1772 0.1030
-5 4 21 10.1741 0.0601
-5 4 22 -4.1556 0.3122
-5 4 23 -9.9090 -0.0078
-5 4 24 -1.6926 0.0894
-5 4 25 11.2968 0.1063
-5 4 26 -4.1747 -0.2182
-5 4 27 -8.9315 0.0357
-5 4 28 -0.9167 -0.1588
-5 4 29 -0.2630 0.0157
-5 4 30 3.6751 0.0525
-5 4 31 -13.6248 0.0834
-5 4 32 -0.3134 0.0349
-5 4 33 -2.9078 -0.1269
-5 4 34 -4.4543 -0.1101
-5 4 35 -0.4845 0.0878
-5 5 1 -4.6216 -0.1725
-5 5 2 -47.5474 -0.0052
-5 5 3 -5.1163 0.0376
-5 5 4 -2.5983 0.0480
-5 5 5 -6.3382 0.0314
-5 5 6 -11.8754 0.0084
-5 5 7 17.5662 0.0254
-5 5 8 -10.0978 -0.1887
-5 5 9 -1.5087 0.0376
-5 5 10 -42.8393 -0.1478
-5 5 11 0.5800 0.0176
-5 5 12 -4.7495 0.0253
-5 5 13 -11.6244 -0.0379
-5 5 14 -9.9993 0.2395
-5 5 15 12.0822 -0.0344
-5 5 16 -0.2473 0.1971
-5 5 17 -6.1806 0.0258
-5 5 18 -11.0263 -0.0170
-5 5 19 14.0852 0.0667
-5 5 20 0.4536 -0.1052
-5 5 21 -13.9147 0.0147
-5 5 22 4.5552 -0.0653
-5 5 23 11.7754 0.0160
-5 5 24 4.8397 0.1265
-5 5 25 -7.9071 0.0478
-5 5 26 2.7537 0.1451
-5 5 27 11.7399 0.0539
-5 5 28 0.7780 -0.0260
-5 5 29 -1.2170 0.0134
-5 5 30 3.2635 0.0189
-5 5 31 -4.5729 -0.0353
-5 5 32 3.8347 -0.0831
-5 5 33 -4.3578 0.0131
-5 5 34 -0.7252 0.1704
-5 5 35 6.6435 -0.1321
-5 6 1 44.2654 -0.0807
-5 6 2 -7.6779 -0.1550
-5 6 3 10.7441 -0.0232
-5 6 4 -2.0480 -0.3029
-5 6 5 6.6639 0.3570
-5 6 6 -2.1816 0.0572
-5 6 7 -23.5055 0.2115
-5 6 8 -7.6880 0.2254
-5 6 9 69.7544 -0.1271
-5 6 10 12.6873 0.0618
-5 6 11 -4.6056 -0.1764
-5 6 12 -26.7821 -0.0406
-5 6 13 26.4631 -0.0870
-5 6 14 19.5130 0.0457
-5 6 15 -12.3273 -0.0534
-5 6 16 -3.9292 0.0289
-5 6 17 13.8287 -0.0373
-5 6 18 10.4938 -0.0806
-5 6 19 -17.8966 -0.0242
-5 6 20 -5.0506 -0.0894
-5 6 21 7.3108 -0.0405
-5 6 22 7.6004 -0.0062
-5 6 23 -15.6673 0.0660
-5 6 24 -2.5251 -0.0192
-5 6 25 6.9388 0.1882
-5 6 26 -1.1240 0.0268
-5 6 27 -7.4993 -0.0306
-5 6 28 -5.6401 0.0843
-5 6 29 12.6866 -0.1219
-5 6 30 1.7051 0.0388
-5 6 31 -1.4902 -0.0560
-5 6 32 14.7133 -0.0374
-5 6 33 2.2859 -0.1202
-5 6 34 3.9343 -0.1367
-5 7 1 -22.6688 0.2155
-5 7 2 6.1560 0.0262
-5 7 3 26.8547 -0.1012
-5 7 4 20.7503 -0.0349
-5 7 5 5.7087 -0.0826
-5 7 6 8.7480 -0.1108
-5 7 7 -8.0582 -0.0212
-5 7 8 -0.8100 0.0523
-5 7 9 -10.2753 -0.0680
-5 7 10 -13.3358 0.2382
-5 7 11 12.3788 -0.0889
-5 7 12 -12.7215 0.0672
-5 7 13 -4.2277 -0.1333
-5 7 14 -13.0614 -0.2584
-5 7 15 5.7722 -0.0381
-5 7 16 6.5784 -0.2588
-5 7 17 -2.9470 0.1467
-5 7 18 -1.7073 0.0907
-5 7 19 3.9892 0.1590
-5 7 20 3.0132 0.1814
-5 7 21 -7.9000 -0.0032
-5 7 22 6.5617 -0.0252
-5 7 23 6.4696 -0.0513
-5 7 24 6.8659 0.0254
-5 7 25 -10.6370 0.0343
-5 7 26 2.4686 0.0798
-5 7 27 6.3279 0.0625
-5 7 28 0.2654 0.0430
-5 7 29 2.2841 0.0062
-5 7 30 -12.0392 0.0192
-5 7 31 -6.1611 0.0388
-5 7 32 7.8649 -0.1447
-5 7 33 -7.5920 -0.2044
-5 7 34 -0.6924 0.0783
-5 8 1 5.2701 -0.0039
-5 8 2 43.0352 0.0731
-5 8 3 -30.5273 -0.1129
-5 8 4 -21.3538 0.0162
-5 8 5 3.4709 -0.2469
-5 8 6 33.2069 -0.1039
-5 8 7 -11.4427 -0.2675
-5 8 8 -6.8237 -0.2547
-5 8 9 -7.7685 -0.0506
-5 8 10 30.4563 -0.1205
-5 8 11 4.3497 0.1124
-5 8 12 -37.3611 0.0482
-5 8 13 22.3284 0.0533
-5 8 14 15.6443 0.0336
-5 8 15 -8.0981 0.0458
-5 8 16 -16.4836 -0.0209
-5 8 17 13.8344 0.0481
-5 8 18 3.7482 -0.0030
-5 8 19 -7.4574 -0.0566
-5 8 20 -16.5105 0.0378
-5 8 21 2.5191 -0.0913
-5 8 22 3.4858 0.0678
-5 8 23 -15.3831 -0.0093
-5 8 24 -11.0300 -0.0016
-5 8 25 3.3478 -0.0180
-5 8 26 11.7599 -0.0996
-5 8 27 -4.0112 -0.0966
-5 8 28 -4.2174 -0.0553
-5 8 29 4.4838 -0.0110
-5 8 30 1.8500 0.0249
-5 8 31 -3.8982 -0.0300
-5 8 32 -3.7014 -0.3108
-5 8 33 -1.1760 -0.1281
-5 9 1 -7.5254 -0.1447
-5 9 2 11.7410 -0.0127
-5 9 3 -12.7706 -0.0106
-5 9 4 -9.3188 -0.0915
-5 9 5 -13.1460 0.0685
-5 9 6 -4.4375 -0.1123
-5 9 7 -26.7455 -0.0634
-5 9 8 3.0683 -0.0694
-5 9 9 -5.7020 -0.0429
-5 9 10 -8.0959 -0.0365
-5 9 11 -1.8847 0.1250
-5 9 12 1.1033 0.0643
-5 9 13 6.3857 0.1599
-5 9 14 -23.8914 0.2044
-5 9 15 10.0869 0.0221
-5 9 16 12.3179 0.1661
-5 9 17 1.8814 -0.1068
-5 9 18 1.9670 0.0546
-5 9 19 10.7610 -0.0152
-5 9 20 3.0909 -0.0179
-5 9 21 2.0121 0.0315
-5 9 22 -2.2064 -0.0658
-5 9 23 6.2803 0.0237
-5 9 24 8.8310 -0.0284
-5 9 25 0.6562 0.0504
-5 9 26 -8.5901 -0.0391
-5 9 27 2.7284 -0.0508
-5 9 28 4.9606 -0.0356
-5 9 29 -3.1711 0.0304
-5 9 30 -8.0494 -0.0414
-5 9 31 9.6287 0.0754
-5 9 32 1.7409 0.1456
-5 9 33 -5.3576 -0.3133
-5 10 1 -2.2377 -0.1152
-5 10 2 11.5921 -0.0498
-5 10 3 -10.7417 0.0734
-5 10 4 -12.7502 -0.0187
-5 10 5 16.1312 0.2271
-5 10 6 15.6408 0.0436
-5 10 7 8.3605 0.1311
-5 10 8 -7.2245 0.0536
-5 10 9 -4.3490 -0.0326
-5 10 10 8.1029 0.0860
-5 10 11 3.4711 -0.0957
-5 10 12 -11.8668 0.0351
-5 10 13 8.5378 -0.0410
-5 10 14 12.8887 0.0002
-5 10 15 -0.3538 0.0598
-5 10 16 -16.3785 0.0232
-5 10 17 1.2203 0.0508
-5 10 18 17.0379 0.0282
-5 10 19 -6.8742 -0.0464
-5 10 20 -18.1542 -0.0723
-5 10 21 -3.3175 -0.0492
-5 10 22 8.2761 -0.0747
-5 10 23 -4.4675 0.0470
-5 10 24 -11.6399 0.0118
-5 10 25 6.2631 0.0598
-5 10 26 10.3483 -0.0226
-5 10 27 -0.6500 -0.0367
-5 10 28 -5.2146 -0.0019
-5 10 29 1.5877 -0.0894
-5 10 30 -3.9382 0.0822
-5 10 31 1.5873 -0.2306
-5 10 32 1.5222 -0.2771
-5 11 1 10.4419 0.0261
-5 11 2 12.2013 -0.1244
-5 11 3 -3.0123 -0.0221
-5 11 4 -6.7063 -0.1269
-5 11 5 4.4738 -0.0060
-5 11 6 -11.0752 0.0625
-5 11 7 1.3880 0.0894
-5 11 8 4.7347 0.1839
-5 11 9 10.3787 0.0574
-5 11 10 -0.1761 0.1067
-5 11 11 -8.8465 -0.0832
-5 11 12 -4.0655 -0.0348
-5 11 13 1.7071 -0.0681
-5 11 14 -15.9594 -0.0859
-5 11 15 -10.1188 0.0658
-5 11 16 5.0659 -0.0636
-5 11 17 10.1685 0.0574
-5 11 18 1.8762 -0.0313
-5 11 19 -1.2778 0.0238
-5 11 20 9.4901 0.0273
-5 11 21 1.6802 -0.0208
-5 11 22 0.2227 0.0334
-5 11 23 -3.4386 -0.0312
-5 11 24 1.7079 0.0759
-5 11 25 1.7616 -0.0099
-5 11 26 -3.7704 0.0409
-5 11 27 -5.5832 0.0097
-5 11 28 6.7956 -0.1125
-5 11 29 3.0582 0.0121
-5 11 30 -8.0690 0.0670
-5 11 31 1.8642 -0.3728
-5 12 1 -11.3010 0.0905
-5 12 2 21.0812 0.0357
-5 12 3 -13.4516 0.0427
-5 12 4 4.9366 0.0664
-5 12 5 2.7207 -0.0234
-5 12 6 21.2419 0.0417
-5 12 7 -3.3330 -0.0599
-5 12 8 -17.1147 0.0368
-5 12 9 -8.1147 0.0496
-5 12 10 14.6947 0.1135
-5 12 11 10.7422 0.2289
-5 12 12 -2.7303 0.0125
-5 12 13 -5.5709 0.0699
-5 12 14 9.0170 -0.0936
-5 12 15 9.6460 -0.0710
-5 12 16 -18.2583 -0.0650
-5 12 17 -1.4044 0.0039
-5 12 18 1.1727 0.0059
-5 12 19 3.3589 0.0214
-5 12 20 -4.9279 0.0379
-5 12 21 -11.7448 -0.0747
-5 12 22 10.9441 0.0274
-5 12 23 0.4707 -0.0450
-5 12 24 -4.3644 0.0449
-5 12 25 -3.1404 0.0366
-5 12 26 -2.8562 0.0207
-5 12 27 5.6679 0.0361
-5 12 28 -0.3594 0.0536
-5 12 29 -13.1594 0.0996
-5 12 30 2.0068 -0.0672
-5 12 31 1.5390 -0.0239
-5 13 1 2.5590 0.0927
-5 13 2 7.4772 0.0917
-5 13 3 -16.1419 0.0695
-5 13 4 7.9198 0.0327
-5 13 5 -6.4004 0.0157
-5 13 6 8.3297 -0.0791
-5 13 7 -8.3867 -0.0057
-5 13 8 16.1821 -0.0358
-5 13 9 6.7041 0.1052
-5 13 10 -0.0287 -0.0208
-5 13 11 -9.3137 0.1005
-5 13 12 7.4095 -0.0885
-5 13 13 1.1908 0.0129
-5 13 14 10.5612 -0.0648
-5 13 15 2.3673 -0.0495
-5 13 16 -5.5844 0.0216
-5 13 17 3.0066 -0.1557
-5 13 18 2.8232 -0.0604
-5 13 19 6.1291 -0.1722
-5 13 20 4.1789 -0.1342
-5 13 21 3.9489 -0.0418
-5 13 22 1.8249 0.0277
-5 13 23 -8.1114 0.0655
-5 13 24 7.0239 0.2067
-5 13 25 6.7549 0.0747
-5 13 26 0.1271 -0.0811
-5 13 27 2.1555 0.0403
-5 13 28 -1.1974 -0.1686
-5 13 29 0.9978 -0.3283
-5 13 30 11.0835 0.2568
-5 14 1 -9.6104 -0.0323
-5 14 2 1.4042 -0.0104
-5 14 3 -2.8339 0.1103
-5 14 4 5.4210 -0.0152
-5 14 5 -12.2089 0.1572
-5 14 6 -1.5618 -0.0573
-5 14 7 -1.3031 0.0667
-5 14 8 -6.3462 -0.0413
-5 14 9 -11.1737 -0.0005
-5 14 10 -1.1131 -0.0493
-5 14 11 13.7765 0.0207
-5 14 12 6.0033 0.0053
-5 14 13 -22.1253 -0.0796
-5 14 14 12.7014 0.0065
-5 14 15 -3.5374 -0.0752
-5 14 16 2.7234 -0.0198
-5 14 17 -10.2549 0.0400
-5 14 18 -1.3716 0.0170
-5 14 19 7.6539 -0.0157
-5 14 20 -2.1790 0.0552
-5 14 21 -9.6266 -0.0023
-5 14 22 -7.0427 -0.0069
-5 14 23 1.9178 0.0640
-5 14 24 -5.0454 0.0421
-5 14 25 -1.1769 0.0345
-5 14 26 6.2573 0.0197
-5 14 27 -9.0253 -0.0811
-5 14 28 -1.6250 -0.0579
-5 14 29 10.4981 0.1423
-5 15 1 0.7876 0.0069
-5 15 2 14.9965 -0.0051
-5 15 3 -9.6256 0.0130
-5 15 4 -5.0427 -0.0261
-5 15 5 5.4929 0.0339
-5 15 6 4.4143 -0.0639
-5 15 7 -2.2020 -0.0491
-5 15 8 14.2768 -0.0534
-5 15 9 6.2900 -0.0885
-5 15 10 -11.0889 -0.0059
-5 15 11 -6.5403 -0.1483
-5 15 12 1.1426 -0.0329
-5 15 13 -5.6911 -0.1045
-5 15 14 -1.1565 -0.0811
-5 15 15 -13.2134 0.0203
-5 15 16 -0.3822 0.0248
-5 15 17 -9.1722 0.1136
-5 15 18 -1.0241 0.0610
-5 15 19 -2.0775 0.0120
-5 15 20 2.2766 -0.0318
-5 15 21 17.6180 -0.0782
-5 15 22 4.6480 -0.0357
-5 15 23 -8.2957 0.0709
-5 15 24 -4.6136 0.0086
-5 15 25 8.2151 0.0515
-5 15 26 5.5292 -0.2123
-5 15 27 -0.8381 -0.6802
-5 15 28 -7.2705 0.2705
-5 16 1 -10.9956 0.1497
-5 16 2 -7.3517 -0.0547
-5 16 3 8.0113 -0.0396
-5 16 4 10.4064 0.0497
-5 16 5 -8.9074 -0.1674
-5 16 6 -14.0513 0.0119
-5 16 7 6.0220 -0.1740
-5 16 8 2.2380 0.0420
-5 16 9 4.3913 -0.0284
-5 16 10 4.8843 0.0447
-5 16 11 4.8231 0.0187
-5 16 12 4.0175 -0.0438
-5 16 13 0.1978 -0.0197
-5 16 14 -2.6791 -0.1295
-5 16 15 -0.0534 0.0697
-5 16 16 6.4588 0.0141
-5 16 17 13.9375 0.1261
-5 16 18 -0.0914 0.1581
-5 16 19 -16.6058 0.0483
-5 16 20 -0.2604 0.0686
-5 16 21 3.3283 0.0565
-5 16 22 -7.5568 0.0677
-5 16 23 4.8801 -0.1224
-5 16 24 4.3988 0.0460
-5 16 25 -1.9937 -0.2262
-5 16 26 -8.4045 -0.2004
-5 17 1 -1.4617 -0.0300
-5 17 2 -13.3228 -0.0252
-5 17 3 2.6027 -0.0163
-5 17 4 19.7280 -0.0104
-5 17 5 1.4285 -0.1492
-5 17 6 -2.5141 -0.0176
-5 17 7 -0.1466 -0.1840
-5 17 8 -5.4802 -0.0082
-5 17 9 4.0872 -0.0146
-5 17 10 -4.5017 -0.0387
-5 17 11 3.7106 0.0766
-5 17 12 -9.3943 -0.1128
-5 17 13 -4.0398 0.0937
-5 17 14 0.6324 -0.0514
-5 17 15 8.2804 0.0016
-5 17 16 -1.2422 0.0143
-5 17 17 -2.4799 0.0259
-5 17 18 14.2789 0.1012
-5 17 19 -10.1335 0.0200
-5 17 20 -9.8677 0.1080
-5 17 21 12.3637 0.1680
-5 17 22 -0.2378 -0.0139
-5 17 23 4.0268 0.0933
-5 17 24 3.5025 0.1188
-5 17 25 -0.0061 -0.6330
-5 18 1 -1.3846 -0.0566
-5 18 2 -12.9053 0.1405
-5 18 3 -5.7134 -0.0699
-5 18 4 0.9594 0.0660
-5 18 5 -12.1932 0.0119
-5 18 6 -5.8774 -0.0159
-5 18 7 -6.5034 0.0389
-5 18 8 -2.4207 0.0565
-5 18 9 -6.8432 0.1090
-5 18 10 -7.7122 -0.0112
-5 18 11 2.1940 0.0604
-5 18 12 2.2126 -0.0326
-5 18 13 -5.4938 -0.0347
-5 18 14 -4.1381 0.0021
-5 18 15 8.1534 0.0146
-5 18 16 6.2046 0.1875
-5 18 17 -13.8349 0.0641
-5 18 18 -7.4564 -0.0402
-5 18 19 8.3173 -0.0424
-5 18 20 4.6003 -0.2176
-5 18 21 -3.1042 -0.0341
-5 18 22 -4.0707 0.1494
-5 18 23 -5.4805 0.1134
-5 19 1 -0.3653 0.1348
-5 19 2 7.0519 0.1351
-5 19 3 12.2995 -0.0412
-5 19 4 4.5967 0.1591
-5 19 5 10.5286 -0.0936
-5 19 6 -0.8365 0.0087
-5 19 7 3.3716 0.0984
-5 19 8 17.3445 0.0086
-5 19 9 3.3980 0.1573
-5 19 10 7.1656 0.1260
-5 19 11 0.3029 -0.0309
-5 19 12 5.6470 0.0883
-5 19 13 10.7544 -0.0331
-5 19 14 2.9263 0.1932
-5 19 15 -0.3339 0.0450
-5 19 16 -2.8748 0.0456
-5 19 17 1.1406 -0.1086
-5 19 18 8.1432 -0.1271
-5 19 19 -7.9139 -0.2859
-5 19 21 -1.9930 0.0744
-5 20 1 -0.4142 0.2009
-5 20 2 -6.4763 0.0126
-5 20 3 -0.6485 0.0729
-5 20 4 -3.8376 0.0152
-5 20 5 -1.7777 -0.1971
-5 20 6 -14.2770 0.0746
-5 20 7 5.3224 -0.0451
-5 20 8 4.3965 0.0835
-5 20 9 -3.6266 0.2443
-5 20 10 3.4007 -0.0527
-5 20 11 -1.5427 -0.0959
-5 20 12 -4.0748 0.1521
-5 20 13 -4.3112 -0.1752
-5 20 14 -1.9824 0.2322
-5 20 15 2.7633 0.1166
-5 20 16 2.3698 0.0274
-5 20 17 -6.8142 0.2668
-5 20 18 4.9990 -0.5094
-5 20 19 3.6594 -0.5816
-5 21 1 -4.3668 -0.0440
-5 21 2 -4.4465 -0.0990
-5 21 3 8.0595 0.1019
-5 21 4 -2.3947 -0.2814
-5 21 5 5.2445 0.0597
-5 21 6 -2.5900 -0.1707
-5 21 7 0.8597 -0.0553
-5 21 8 -2.6739 0.1768
-5 21 9 -5.2474 -0.3135
-5 21 10 3.1593 0.1363
-5 21 11 7.6211 -0.1796
-5 21 12 -2.9730 -0.2419
-5 21 13 -13.5385 0.0383
-5 21 15 -1.5170 0.0363
-5 21 16 0.1251 -0.1299
-5 22 1 -1.8741 -0.1149
-5 22 2 -1.5756 -0.0799
-5 22 3 -0.1135 -0.1154
-5 22 4 -3.2626 0.2511
-5 22 5 5.8294 -0.0303
-5 22 6 -11.5951 0.1222
-5 22 7 -11.4984 -0.1522
-5 22 8 4.2719 0.0631
-5 22 9 5.3067 -0.4013
-5 22 10 -4.0220 -0.0657
-5 22 11 -7.4512 -0.4412
-5 22 12 -4.5645 -0.5447
-5 23 1 2.2504 -0.4076
-5 23 2 9.4503 -0.1115
-5 23 3 -2.2244 -0.5491
-5 23 4 -0.5677 0.3354
-5 23 5 9.9514 -0.0526
-5 23 6 -5.5101 0.4472
-5 23 7 11.5731 0.3093
-4 0 2 -99.1372 4.1996
-4 0 4 59.7217 0.6823
-4 0 6 -2.4852 -1.4477
-4 0 8 -2.1866 -0.9318
-4 0 10 2.4864 0.3883
-4 0 12 15.4519 0.3777
-4 0 14 -11.3470 -0.5669
-4 0 16 19.2584 -1.0051
-4 0 18 -14.6375 0.0780
-4 0 20 9.4346 1.3776
-4 0 22 11.4954 0.9490
-4 0 24 -19.9204 -0.4665
-4 0 26 -9.6211 -0.7411
-4 0 28 -5.5475 -0.0636
-4 0 30 -5.1501 0.3110
-4 0 32 0.7782 0.0757
-4 0 34 -2.9285 -0.2875
-4 0 36 -15.1788 -0.2449
-4 1 1 29.9807 -0.1073
-4 1 2 -23.2469 0.5146
-4 1 3 -34.5957 -0.4855
-4 1 4 11.4930 0.7872
-4 1 5 73.8691 0.0729
-4 1 6 17.9443 -0.2646
-4 1 7 -35.9174 0.2742
-4 1 8 -7.8170 -1.9244
-4 1 9 18.7978 0.1098
-4 1 10 -4.1200 -1.3567
-4 1 11 -56.9625 0.0176
-4 1 12 -26.3710 0.9360
-4 1 13 19.8456 0.1002
-4 1 14 3.4520 1.6793
-4 1 15 -12.3404 0.2562
-4 1 16 -0.5426 0.5215
-4 1 17 19.1429 0.0160
-4 1 18 -7.6002 -0.4318
-4 1 19 -28.0688 -0.2178
-4 1 20 -4.6580 -0.2173
-4 1 21 6.3267 -0.2609
-4 1 22 2.1832 0.2526
-4 1 23 -12.5929 -0.0761
-4 1 24 0.7507 0.0971
-4 1 25 13.0018 0.0575
-4 1 26 12.4568 -0.4900
-4 1 27 -8.0753 0.0313
-4 1 28 -5.1118 -0.5563
-4 1 29 11.1905 0.0558
-4 1 30 0.5025 -0.0241
-4 1 31 5.8325 0.0695
-4 1 32 6.5872 0.4280
-4 1 33 -0.6248 0.0523
-4 1 34 -7.5479 0.3870
-4 1 35 10.3326 -0.3392
-4 1 36 1.0137 -0.1846
-4 2 1 87.9636 0.3196
-4 2 2 -50.2986 -1.5220
-4 2 3 20.6064 -0.0294
-4 2 4 1.0796 -0.5817
-4 2 5 -11.8978 -0.1084
-4 2 6 -35.7719 0.2771
-4 2 7 12.3703 -0.0385
-4 2 8 31.2392 0.2102
-4 2 9 28.5994 -0.0538
-4 2 10 12.6428 0.3272
-4 2 11 7.9127 -0.0719
-4 2 12 28.0270 0.3594
-4 2 13 -2.2960 -0.0916
-4 2 14 -1.2358 0.3644
-4 2 15 -3.7041 -0.0317
-4 2 16 9.8244 0.2597
-4 2 17 18.6812 0.0344
-4 2 18 1.9212 -0.1833
-4 2 19 5.8411 0.0555
-4 2 20 17.7922 -0.6568
-4 2 21 -8.7153 -0.0976
-4 2 22 2.7978 -0.5286
-4 2 23 0.6555 -0.1344
-4 2 24 8.6756 0.0593
-4 2 25 -9.2955 -0.0525
-4 2 26 0.4079 0.2120
-4 2 27 0.8243 0.0149
-4 2 28 6.5394 0.1556
-4 2 29 -4.5537 0.0263
-4 2 30 -11.6370 0.1755
-4 2 31 1.7376 0.0012
-4 2 32 -4.2703 0.0596
-4 2 33 -7.3184 -0.0269
-4 2 34 2.2636 -0.1653
-4 2 35 10.9400 -0.0863
-4 3 1 43.5950 -0.0472
-4 3 2 -21.5437 0.0421
-4 3 3 -7.2194 -0.0553
-4 3 4 -39.4493 -0.0574
-4 3 5 47.8610 0.2567
-4 3 6 -0.5852 0.4869
-4 3 7 -59.8762 0.1933
-4 3 8 -79.2356 0.7551
-4 3 9 24.2782 -0.0187
-4 3 10 6.7856 0.3882
-4 3 11 -29.8485 -0.0169
-4 3 12 -15.6006 -0.1964
-4 3 13 7.4635 0.1722
-4 3 14 43.5120 -0.3369
-4 3 15 -40.2806 0.2171
-4 3 16 -20.9701 -0.1706
-4 3 17 0.5478 0.0541
-4 3 18 9.6284 -0.1123
-4 3 19 -7.9621 -0.1218
-4 3 20 -11.1555 -0.0559
-4 3 21 -4.6147 -0.2438
-4 3 22 19.5135 -0.0766
-4 3 23 -10.1335 -0.0535
-4 3 24 2.9280 0.1117
-4 3 25 7.0340 0.1204
-4 3 26 6.9904 0.2274
-4 3 27 -6.4148 0.0610
-4 3 28 -4.1713 0.1634
-4 3 29 9.1996 0.0358
-4 3 30 3.1176 0.0391
-4 3 31 5.8355 0.0123
-4 3 32 4.1349 -0.1642
-4 3 33 -6.3139 0.0640
-4 3 34 0.1067 0.0037
-4 3 35 6.4036 -0.1975
-4 4 1 13.1999 0.5109
-4 4 2 -21.5026 0.4188
-4 4 3 14.0736 -0.2140
-4 4 4 0.8063 0.1696
-4 4 5 13.6819 -0.0435
-4 4 6 -1.5795 -0.2341
-4 4 7 19.0800 0.0925
-4 4 8 20.2573 -0.4060
-4 4 9 26.4809 0.0011
-4 4 10 -29.8339 0.0595
-4 4 11 -15.4516 0.0699
-4 4 12 15.1420 0.1464
-4 4 13 8.7249 -0.0158
-4 4 14 -15.2651 -0.2234
-4 4 15 -17.2210 -0.1228
-4 4 16 44.9843 -0.3987
-4 4 17 -4.8303 -0.1003
-4 4 18 -18.6686 -0.0112
-4 4 19 -6.9007 0.0025
-4 4 20 19.4459 0.2975
-4 4 21 -0.1660 -0.0628
-4 4 22 -17.7949 0.1635
-4 4 23 -8.4389 -0.0671
-4 4 24 11.0213 -0.0543
-4 4 25 -5.9069 0.0895
-4 4 26 -5.3042 -0.2292
-4 4 27 -4.5743 0.0105
-4 4 28 5.9888 -0.0493
-4 4 29 2.2471 0.0267
-4 4 30 -14.0088 0.1366
-4 4 31 -1.7151 0.0356
-4 4 32 2.7687 -0.0003
-4 4 33 -5.0418 -0.0921
-4 4 34 -7.3673 -0.2498
-4 4 35 0.9690 -0.0673
-4 5 1 -11.5512 0.1647
-4 5 2 -28.6929 0.2172
-4 5 3 6.5220 0.0987
-4 5 4 -19.3559 0.1927
-4 5 5 14.5057 -0.0073
-4 5 6 38.3341 -0.1088
-4 5 7 -15.1567 -0.0459
-4 5 8 -44.9838 -0.3414
-4 5 9 9.7155 0.0089
-4 5 10 45.5973 -0.1440
-4 5 11 24.9021 0.0360
-4 5 12 -37.1392 0.1020
-4 5 13 0.8781 0.0259
-4 5 14 26.8594 0.2583
-4 5 15 5.1395 0.0669
-4 5 16 -19.0551 0.1270
-4 5 17 -7.1660 0.0454
-4 5 18 24.4419 -0.1236
-4 5 19 8.3560 -0.0211
-4 5 20 -10.3568 -0.0633
-4 5 21 -0.9392 -0.0487
-4 5 22 9.3747 0.0738
-4 5 23 6.4465 -0.0146
-4 5 24 -7.0445 0.1810
-4 5 25 -11.7972 0.0838
-4 5 26 13.2087 -0.0073
-4 5 27 2.5284 0.1030
-4 5 28 -8.2890 -0.1011
-4 5 29 0.1673 -0.0134
-4 5 30 2.8196 0.0675
-4 5 31 4.1542 -0.0368
-4 5 32 -4.2881 -0.0583
-4 5 33 -5.8602 0.0697
-4 5 34 -3.6896 0.1376
-4 5 35 8.7052 0.0261
-4 6 1 -1.0843 -0.1684
-4 6 2 3.7162 -0.2574
-4 6 3 -3.9486 0.0629
-4 6 4 2.9403 -0.1981
-4 6 5 45.4908 0.3168
-4 6 6 -11.6962 0.1435
-4 6 7 -16.6297 0.1046
-4 6 8 9.7544 0.0520
-4 6 9 22.3543 -0.1773
-4 6 10 -15.1191 -0.1080
-4 6 11 3.5002 -0.0452
-4 6 12 5.1672 0.0149
-4 6 13 -2.9511 -0.0113
-4 6 14 -19.5737 0.1807
-4 6 15 4.1259 -0.0270
-4 6 16 9.1740 0.0483
-4 6 17 9.6172 -0.1380
-4 6 18 -9.9199 -0.1192
-4 6 19 -10.8146 -0.1056
-4 6 20 -1.0317 -0.1119
-4 6 21 3.5444 0.0080
-4 6 22 -10.9596 -0.0480
-4 6 23 1.9941 0.1267
-4 6 24 2.2789 0.0186
-4 6 25 -2.4447 0.1368
-4 6 26 4.5596 0.0645
-4 6 27 2.1618 -0.1270
-4 6 28 5.4844 0.0350
-4 6 29 -2.3168 -0.0670
-4 6 30 -3.3888 0.0077
-4 6 31 0.7351 0.0155
-4 6 32 -5.6202 -0.0289
-4 6 33 1.9150 -0.1059
-4 6 34 -3.5084 -0.0780
-4 7 1 -25.7267 0.0717
-4 7 2 -10.9028 -0.0049
-4 7 3 7.1495 0.1649
-4 7 4 10.1412 -0.0416
-4 7 5 -13.2618 0.1945
-4 7 6 -46.1731 0.0289
-4 7 7 21.4513 0.0039
-4 7 8 -27.4746 0.2561
-4 7 9 -19.8096 -0.1200
-4 7 10 10.3822 0.3055
-4 7 11 18.6568 -0.1704
-4 7 12 -18.8100 -0.1375
-4 7 13 -16.7291 -0.1363
-4 7 14 4.1615 -0.3293
-4 7 15 -10.2463 0.0170
-4 7 16 -9.9651 -0.0112
-4 7 17 -0.0728 0.0640
-4 7 18 7.9276 0.1473
-4 7 19 13.9396 0.0117
-4 7 20 -0.9971 0.0145
-4 7 21 -9.1228 0.0114
-4 7 22 9.3658 -0.0768
-4 7 23 11.8050 0.0656
-4 7 24 -17.0786 0.0837
-4 7 25 -1.6466 0.1293
-4 7 26 12.5712 0.1152
-4 7 27 2.6768 0.0851
-4 7 28 -4.1566 0.1120
-4 7 29 -4.5116 -0.0476
-4 7 30 1.4250 0.0412
-4 7 31 8.6711 -0.0502
-4 7 32 8.1812 -0.1463
-4 7 33 -7.8761 -0.0788
-4 7 34 4.8266 0.0996
-4 8 1 22.5371 0.1425
-4 8 2 25.0615 0.0237
-4 8 3 12.9744 -0.2367
-4 8 4 11.4653 -0.0637
-4 8 5 27.9096 -0.2586
-4 8 6 -14.9756 -0.1233
-4 8 7 18.9302 -0.1296
-4 8 8 4.8945 -0.0730
-4 8 9 16.1241 -0.0530
-4 8 10 0.9438 -0.0256
-4 8 11 -3.7927 -0.0640
-4 8 12 -2.9923 -0.0664
-4 8 13 7.0724 -0.0233
-4 8 14 16.2787 -0.1318
-4 8 15 -10.6022 0.1206
-4 8 16 -7.3406 -0.0899
-4 8 17 6.2741 0.0330
-4 8 18 5.8720 -0.0028
-4 8 19 -20.1306 -0.1055
-4 8 20 3.1623 0.1374
-4 8 21 13.5144 -0.0746
-4 8 22 1.2553 0.1894
-4 8 23 -11.4778 0.0220
-4 8 24 -8.0217 0.0261
-4 8 25 11.4399 -0.0015
-4 8 26 -1.7105 -0.1196
-4 8 27 -0.8500 -0.0538
-4 8 28 12.9394 -0.0188
-4 8 29 6.1192 0.0246
-4 8 30 -0.4899 0.0347
-4 8 31 -12.3101 -0.0257
-4 8 32 1.8196 -0.2062
-4 8 33 2.0920 -0.1460
-4 8 34 1.0974 0.0383
-4 9 1 -37.4552 -0.0883
-4 9 2 -2.9925 -0.0550
-4 9 3 3.9193 0.0401
-4 9 4 -5.4162 -0.0569
-4 9 5 -29.4581 -0.1277
-4 9 6 8.1242 -0.1227
-4 9 7 21.9062 -0.2442
-4 9 8 -15.1863 -0.1469
-4 9 9 -13.8191 0.0071
-4 9 10 -4.3216 -0.0289
-4 9 11 12.6867 0.2466
-4 9 12 2.2692 0.0542
-4 9 13 -18.7277 0.1423
-4 9 14 7.3911 0.1564
-4 9 15 28.1610 -0.0534
-4 9 16 -1.5176 0.1300
-4 9 17 -9.2793 -0.0529
-4 9 18 5.2670 0.0310
-4 9 19 9.6902 -0.0066
-4 9 20 -3.7863 0.0162
-4 9 21 -15.7043 0.0077
-4 9 22 11.9869 -0.0217
-4 9 23 10.2868 0.0192
-4 9 24 -1.1154 -0.0021
-4 9 25 -2.0948 -0.0047
-4 9 26 -15.4985 0.0102
-4 9 27 -1.7656 -0.0054
-4 9 28 -7.2192 0.0076
-4 9 29 -7.1059 0.0701
-4 9 30 14.1108 -0.0818
-4 9 31 5.4449 -0.0569
-4 9 32 -15.3340 0.0254
-4 9 33 -10.8425 -0.1377
-4 10 1 7.4592 -0.0319
-4 10 2 24.6999 -0.0449
-4 10 3 -17.9388 0.0990
-4 10 4 -5.1597 -0.0401
-4 10 5 -16.1705 0.1593
-4 10 6 13.8583 0.0077
-4 10 7 -2.5938 -0.0245
-4 10 8 -5.7181 0.0066
-4 10 9 7.0547 -0.0796
-4 10 10 5.2060 0.0426
-4 10 11 4.0086 0.0032
-4 10 12 -8.4308 0.0685
-4 10 13 -1.5744 0.0915
-4 10 14 2.8335 0.1111
-4 10 15 -9.0836 0.0945
-4 10 16 -18.6898 0.1197
-4 10 17 7.8807 -0.0608
-4 10 18 -4.5400 -0.0162
-4 10 19 -6.2273 -0.1307
-4 10 20 -3.8367 -0.1361
-4 10 21 -9.9594 -0.0001
-4 10 22 11.0390 -0.0401
-4 10 23 -4.8989 0.1334
-4 10 24 -9.2021 0.0370
-4 10 25 13.8883 0.0687
-4 10 26 9.8522 -0.1098
-4 10 27 -1.5290 -0.0757
-4 10 28 -11.5822 -0.0186
-4 10 29 5.9323 -0.0196
-4 10 30 3.5670 0.0760
-4 10 31 10.6164 -0.2216
-4 10 32 3.5085 -0.0939
-4 11 1 -16.0718 -0.0577
-4 11 2 0.2675 -0.1753
-4 11 3 16.4277 0.0248
-4 11 4 -1.7763 -0.0368
-4 11 5 -21.3974 0.1341
-4 11 6 -3.0827 0.0548
-4 11 7 9.9384 0.0829
-4 11 8 -2.5998 0.0994
-4 11 9 -14.1805 -0.0526
-4 11 10 -22.5275 0.0934
-4 11 11 20.9736 -0.1318
-4 11 12 5.7283 -0.0078
-4 11 13 -9.9446 -0.0510
-4 11 14 7.8422 -0.0053
-4 11 15 12.0133 0.0966
-4 11 16 13.0286 -0.0098
-4 11 17 -6.0087 0.0526
-4 11 18 -9.7270 -0.0085
-4 11 19 20.6535 0.0169
-4 11 20 3.1441 -0.0387
-4 11 21 -11.6745 0.0031
-4 11 22 -1.0655 -0.0478
-4 11 23 6.3844 -0.0641
-4 11 24 11.6039 0.0573
-4 11 25 2.7356 -0.1133
-4 11 26 -9.5128 0.0056
-4 11 27 1.5608 0.0406
-4 11 28 5.5176 -0.1054
-4 11 29 3.9294 0.0048
-4 11 30 -14.2737 -0.1050
-4 11 31 -1.6256 -0.4666
-4 11 32 0.1535 -0.1579
-4 12 1 10.9315 0.0598
-4 12 2 -7.6210 -0.1281
-4 12 3 7.2319 0.0020
-4 12 4 -19.2501 -0.0162
-4 12 5 15.4126 -0.0670
-4 12 6 6.0196 0.0961
-4 12 7 2.1959 -0.0736
-4 12 8 -5.7078 0.1171
-4 12 9 4.3504 0.0116
-4 12 10 3.6368 0.0879
-4 12 11 -1.8695 0.0469
-4 12 12 -18.0044 -0.0001
-4 12 13 -2.1843 0.0371
-4 12 14 11.7173 -0.0837
-4 12 15 -9.8257 0.0293
-4 12 16 -4.8147 -0.0496
-4 12 17 -1.8098 0.0375
-4 12 18 3.8553 0.0153
-4 12 19 0.5883 0.0014
-4 12 20 -23.1321 0.0362
-4 12 21 11.0734 -0.0549
-4 12 22 3.4980 0.0473
-4 12 23 -12.8118 -0.0007
-4 12 24 -8.0079 0.0543
-4 12 25 5.7709 0.0423
-4 12 26 1.2323 0.0384
-4 12 27 2.7565 -0.0578
-4 12 28 0.7129 -0.0200
-4 12 29 3.3507 0.0718
-4 12 30 -7.3411 -0.1174
-4 12 31 -3.8031 -0.1973
-4 13 1 -4.6160 0.1121
-4 13 2 -0.3009 0.0540
-4 13 3 0.8254 -0.0520
-4 13 4 2.1292 0.0356
-4 13 5 3.3164 -0.0845
-4 13 6 -9.5891 0.0436
-4 13 7 1.9272 -0.0072
-4 13 8 12.6199 0.0543
-4 13 9 -2.6976 0.1332
-4 13 10 -2.8261 0.0107
-4 13 11 11.9983 0.1696
-4 13 12 10.8659 -0.0815
-4 13 13 2.7766 0.0489
-4 13 14 -7.9446 -0.0439
-4 13 15 8.7121 -0.0822
-4 13 16 14.8866 0.0375
-4 13 17 -4.9051 -0.1453
-4 13 18 -8.4562 -0.0857
-4 13 19 12.2196 -0.0463
-4 13 20 10.5444 -0.0601
-4 13 21 -0.5833 -0.0090
-4 13 22 -14.8153 0.0976
-4 13 23 5.8302 0.0097
-4 13 24 9.6190 0.1524
-4 13 25 -1.0432 -0.0131
-4 13 26 -10.3847 -0.1478
-4 13 27 -1.6792 0.0182
-4 13 28 -1.2556 -0.0674
-4 13 29 -0.5441 -0.2340
-4 13 30 0.5879 0.0954
-4 14 1 -1.4831 0.0698
-4 14 2 6.6469 -0.0052
-4 14 3 0.7083 0.1146
-4 14 4 -0.8917 0.0411
-4 14 5 7.8033 0.1085
-4 14 6 6.2557 -0.0140
-4 14 7 -1.3672 0.0682
-4 14 8 5.0167 -0.0646
-4 14 9 -3.5393 0.1088
-4 14 10 12.3439 -0.0005
-4 14 11 -1.5875 0.0552
-4 14 12 -12.2443 0.0084
-4 14 13 1.6739 -0.0074
-4 14 14 1.0980 -0.0459
-4 14 15 8.4067 -0.0545
-4 14 16 -7.0829 -0.0662
-4 14 17 -12.1619 -0.1075
-4 14 18 13.8464 0.0137
-4 14 19 -2.9206 -0.0905
-4 14 20 -10.5368 -0.0036
-4 14 21 1.6225 0.0545
-4 14 22 5.2953 0.0345
-4 14 23 1.5853 0.0992
-4 14 24 -5.7148 0.0972
-4 14 25 3.2087 -0.0254
-4 14 26 7.0263 0.0809
-4 14 27 -3.3237 0.0451
-4 14 28 -0.7143 0.0995
-4 14 29 4.1944 0.0458
-4 15 1 -5.1646 -0.0351
-4 15 2 6.7989 -0.0010
-4 15 3 2.3885 0.0177
-4 15 4 0.8938 -0.0371
-4 15 5 -11.7306 0.0786
-4 15 6 -14.7239 -0.0470
-4 15 7 -5.1253 0.0606
-4 15 8 -1.0701 -0.0120
-4 15 9 -5.3116 -0.0551
-4 15 10 -4.4942 -0.0517
-4 15 11 -8.0739 -0.1347
-4 15 12 12.5149 -0.1299
-4 15 13 -3.2884 -0.1000
-4 15 14 0.6620 -0.0220
-4 15 15 -2.1880 -0.0627
-4 15 16 5.7031 0.0651
-4 15 17 3.2762 0.0800
-4 15 18 3.3104 -0.0671
-4 15 19 -5.9721 -0.0295
-4 15 20 9.0575 0.0056
-4 15 21 -0.8932 -0.0980
-4 15 22 -11.2812 0.0582
-4 15 23 -8.6560 0.1909
-4 15 24 2.4347 0.0522
-4 15 25 0.4778 0.1230
-4 15 26 -1.6553 -0.1066
-4 15 27 -1.5381 -0.5047
-4 15 28 13.4397 0.2183
-4 16 1 -4.3431 0.0726
-4 16 2 -1.2734 -0.0141
-4 16 3 -1.3617 -0.0334
-4 16 4 2.9975 0.0546
-4 16 5 -8.9297 -0.0470
-4 16 6 11.8996 -0.0554
-4 16 7 7.7315 -0.0470
-4 16 8 7.5546 -0.0377
-4 16 9 -8.4141 -0.0360
-4 16 10 1.1992 0.0716
-4 16 11 -8.2254 -0.0966
-4 16 12 10.1510 0.0438
-4 16 13 -10.6035 -0.1067
-4 16 14 -11.3779 -0.0600
-4 16 15 -7.3469 0.0623
-4 16 16 -1.5083 -0.0219
-4 16 17 -2.5274 0.0790
-4 16 18 8.1363 0.0881
-4 16 19 -10.5297 0.0452
-4 16 20 -2.1304 -0.0093
-4 16 21 -3.1381 0.0004
-4 16 22 9.0342 0.0235
-4 16 23 4.4251 -0.1136
-4 16 24 6.9543 -0.0321
-4 16 25 -14.7530 -0.2292
-4 16 26 -3.9487 -0.2940
-4 17 1 3.7356 0.0884
-4 17 2 -5.8282 -0.0445
-4 17 3 2.5489 0.0075
-4 17 4 0.2063 -0.0147
-4 17 5 3.0663 -0.2089
-4 17 6 -6.0107 -0.0059
-4 17 7 -7.9336 -0.1410
-4 17 8 12.9341 0.0431
-4 17 9 15.1014 0.0040
-4 17 10 10.1776 -0.0052
-4 17 11 -11.9240 0.0040
-4 17 12 1.4710 -0.1041
-4 17 13 3.0600 0.0678
-4 17 14 1.9853 0.0093
-4 17 15 -1.6718 0.0399
-4 17 16 16.7103 0.0540
-4 17 17 5.8190 0.0197
-4 17 18 4.2999 0.0627
-4 17 19 -4.2053 0.0149
-4 17 20 -0.0223 0.0789
-4 17 21 0.5871 0.1514
-4 17 22 7.1465 -0.0871
-4 17 23 2.7386 0.0942
-4 17 24 1.2125 0.0980
-4 17 25 -3.6800 -0.5598
-4 18 1 11.0691 -0.1693
-4 18 2 -13.7755 0.0505
-4 18 3 -7.2128 -0.0918
-4 18 4 -0.7178 0.0076
-4 18 5 4.3606 -0.0104
-4 18 6 -2.5378 -0.0427
-4 18 7 10.8685 -0.0264
-4 18 8 -8.1411 0.0267
-4 18 9 -9.6369 0.0242
-4 18 10 -6.5686 -0.0812
-4 18 11 -2.0925 0.0466
-4 18 12 0.1500 -0.0764
-4 18 13 -5.6662 0.0350
-4 18 14 5.9435 0.0373
-4 18 15 2.7101 0.0381
-4 18 16 -1.4467 0.0511
-4 18 17 -16.7734 0.0221
-4 18 18 0.0828 0.0621
-4 18 19 4.2283 0.0011
-4 18 20 -9.9024 0.1291
-4 18 21 3.0949 -0.0118
-4 18 22 3.1661 0.0076
-4 18 23 -1.5058 0.0225
-4 19 1 7.9726 -0.0428
-4 19 2 -7.2881 0.0954
-4 19 3 -5.6579 -0.0547
-4 19 4 2.4123 0.1791
-4 19 5 10.4421 0.0196
-4 19 6 -18.4589 -0.0031
-4 19 7 -5.4450 0.2007
-4 19 8 10.5975 0.0100
-4 19 9 2.5327 0.1195
-4 19 10 -5.9747 0.0375
-4 19 11 -8.8142 -0.0774
-4 19 12 -3.7899 -0.0079
-4 19 13 -0.0374 0.0602
-4 19 14 10.1419 0.1923
-4 19 15 -6.5633 -0.0417
-4 19 16 -0.1551 0.1577
-4 19 17 1.9019 -0.2243
-4 19 18 -7.7643 -0.2789
-4 19 19 1.6227 0.0253
-4 19 20 2.2517 -0.1898
-4 19 21 6.6217 0.2183
-4 19 22 7.5100 0.4795
-4 20 1 4.4653 0.1537
-4 20 2 -3.1030 -0.0383
-4 20 3 8.5753 -0.0485
-4 20 4 -0.2361 -0.0069
-4 20 5 2.0981 -0.1469
-4 20 6 -3.9750 0.0805
-4 20 7 5.9201 -0.0162
-4 20 8 4.6095 0.1649
-4 20 9 -1.8597 0.2979
-4 20 10 -0.1450 -0.0873
-4 20 11 13.2296 0.0731
-4 20 12 13.1431 0.0073
-4 20 13 2.3953 -0.2505
-4 20 14 5.8579 0.2801
-4 20 15 0.5118 0.0232
-4 20 16 11.5704 -0.0392
-4 20 17 -13.6458 0.1102
-4 20 18 2.0090 -0.2321
-4 20 19 7.7016 -0.2269
-4 21 1 0.4334 0.1430
-4 21 2 -0.7849 -0.0872
-4 21 3 6.1479 0.0874
-4 21 4 -1.9467 -0.2104
-4 21 5 12.7257 -0.1564
-4 21 6 5.4512 -0.1702
-4 21 7 -2.1182 -0.0694
-4 21 8 -9.3935 0.0906
-4 21 9 -3.8194 0.1581
-4 21 10 8.6523 0.1136
-4 21 11 -8.8024 -0.0432
-4 21 12 -6.4306 -0.0236
-4 21 13 4.2198 0.0847
-4 21 14 -7.5026 0.0079
-4 21 15 -14.6840 0.1088
-4 21 16 10.8519 -0.6425
-4 22 1 0.0572 0.0486
-4 22 2 -4.3992 -0.0080
-4 22 3 -1.0272 0.2034
-4 22 4 -1.8518 -0.2690
-4 22 5 -8.2179 0.2574
-4 22 6 -9.8275 -0.2730
-4 22 7 4.7211 -0.1729
-4 22 8 10.4927 -0.0410
-4 22 9 -3.0384 -0.4116
-4 22 10 6.1211 -0.1472
-4 22 11 1.5890 -0.2077
-4 22 12 -5.7995 -0.1952
-4 22 13 -3.9534 0.7265
-4 23 1 4.9402 -0.5303
-4 23 2 0.2046 -0.0884
-4 23 3 1.1609 -0.2739
-4 23 4 -3.6894 0.2483
-4 23 5 2.8335 0.2195
-4 23 6 -0.1189 0.1630
-4 23 7 -3.3930 0.3832
-4 23 8 -4.0333 -0.2228
-3 0 2 81.6311 1.7923
-3 0 4 0.1171 -0.4014
-3 0 6 65.4079 0.1112
-3 0 8 19.7821 0.7923
-3 0 10 34.3754 0.5672
-3 0 12 1.9119 -0.5849
-3 0 14 23.9014 -1.5590
-3 0 16 14.5902 -0.9051
-3 0 18 5.1052 0.7701
-3 0 20 -18.7142 1.2703
-3 0 22 26.0766 0.1131
-3 0 24 -19.2909 -0.5633
-3 0 26 -2.5698 -0.0783
-3 0 28 -5.1435 0.4105
-3 0 30 -15.1615 0.1758
-3 0 32 2.3997 -0.3561
-3 0 34 4.3885 -0.4704
-3 0 36 -0.1424 0.0379
-3 1 1 36.7666 -0.7265
-3 1 2 -2.7176 0.9791
-3 1 3 -82.7638 -0.5404
-3 1 4 29.1968 0.9549
-3 1 5 29.1051 0.1385
-3 1 6 -19.7378 -0.9450
-3 1 7 -61.8309 -0.0199
-3 1 8 -41.5660 -2.0856
-3 1 9 -0.5055 -0.2783
-3 1 10 12.2936 -0.5401
-3 1 11 -17.1188 0.0432
-3 1 12 1.2655 0.9611
-3 1 13 -0.8704 0.4065
-3 1 14 -18.0044 0.5518
-3 1 15 -35.6159 0.3357
-3 1 16 17.6933 -0.2534
-3 1 17 -0.8961 0.0127
-3 1 18 1.0484 0.0574
-3 1 19 2.1131 -0.1378
-3 1 20 -9.9329 0.7522
-3 1 21 4.7581 -0.1030
-3 1 22 -11.3156 0.6562
-3 1 23 -0.7127 -0.0409
-3 1 24 0.4280 -0.2076
-3 1 25 6.1062 -0.0011
-3 1 26 -1.2369 -0.8646
-3 1 27 6.5860 -0.0268
-3 1 28 -6.9359 -0.4652
-3 1 29 9.0448 0.0307
-3 1 30 4.2771 0.2571
-3 1 31 -0.5850 0.0652
-3 1 32 6.8835 0.4220
-3 1 33 -0.0345 0.0412
-3 1 34 -10.9563 0.0262
-3 1 35 1.9936 -0.2131
-3 2 1 0.8985 0.2604
-3 2 2 -23.9088 -0.7163
-3 2 3 -0.7953 0.1377
-3 2 4 3.6291 -0.3756
-3 2 5 42.0865 0.0600
-3 2 6 56.3756 -0.3204
-3 2 7 23.9761 0.0662
-3 2 8 -3.3718 -0.3768
-3 2 9 -48.8592 -0.2137
-3 2 10 -5.2564 0.0822
-3 2 11 26.5526 -0.2987
-3 2 12 -1.1469 0.4992
-3 2 13 9.0816 -0.0866
-3 2 14 24.9831 0.6474
-3 2 15 24.0233 0.1155
-3 2 16 -23.3461 0.4575
-3 2 17 -20.6188 0.1401
-3 2 18 34.3152 -0.1481
-3 2 19 5.6463 -0.0025
-3 2 20 -14.1554 -0.5248
-3 2 21 -1.6196 -0.1931
-3 2 22 -6.6888 -0.3340
-3 2 23 2.8592 -0.1674
-3 2 24 -5.5468 -0.0625
-3 2 25 -8.8064 0.0202
-3 2 26 4.5679 -0.0581
-3 2 27 5.1651 0.0101
-3 2 28 -6.9112 -0.0352
-3 2 29 3.9304 -0.0517
-3 2 30 -7.0513 0.1150
-3 2 31 1.7174 -0.0669
-3 2 32 -1.0886 0.1544
-3 2 33 -0.4475 0.0024
-3 2 34 0.1348 -0.0817
-3 2 35 3.3874 -0.2268
-3 3 1 20.0051 -0.1521
-3 3 2 -36.8196 -0.8353
-3 3 3 -41.5377 0.2195
-3 3 4 -21.6324 -0.1002
-3 3 5 14.4520 0.3576
-3 3 6 1.1308 0.7536
-3 3 7 -3.6154 0.0035
-3 3 8 -2.7660 0.7715
-3 3 9 -10.7205 -0.2971
-3 3 10 15.4145 0.1872
-3 3 11 -13.1065 0.0006
-3 3 12 -11.5977 -0.0684
-3 3 13 10.1620 0.2650
-3 3 14 -3.7238 0.0251
-3 3 15 -7.2505 0.2507
-3 3 16 0.7419 0.0271
-3 3 17 26.7216 0.0473
-3 3 18 2.1073 -0.1841
-3 3 19 -22.3118 -0.1683
-3 3 20 4.6486 -0.3161
-3 3 21 14.4457 -0.1308
-3 3 22 1.1961 -0.1763
-3 3 23 -2.2175 0.0556
-3 3 24 9.4993 0.1696
-3 3 25 7.0703 0.0478
-3 3 26 5.3908 0.2580
-3 3 27 -4.2562 -0.0315
-3 3 28 0.1562 0.1901
-3 3 29 7.5458 0.0394
-3 3 30 9.2195 0.0337
-3 3 31 2.3972 0.0650
-3 3 32 -10.2338 -0.1021
-3 3 33 2.1649 0.1421
-3 3 34 3.1495 0.0704
-3 3 35 0.3565 -0.0937
-3 4 1 -69.2182 0.1500
-3 4 2 58.6939 0.2487
-3 4 3 61.9056 0.0428
-3 4 4 -75.6325 -0.0787
-3 4 5 -22.3827 0.0909
-3 4 6 13.0511 -0.1374
-3 4 7 64.5375 0.0631
-3 4 8 -25.7840 0.2257
-3 4 9 -46.2696 -0.0179
-3 4 10 33.1393 0.3509
-3 4 11 28.1453 0.0482
-3 4 12 14.0078 -0.1520
-3 4 13 -46.6288 0.0039
-3 4 14 0.5275 -0.5474
-3 4 15 19.5771 -0.0368
-3 4 16 -23.8403 -0.2287
-3 4 17 -28.9831 -0.0136
-3 4 18 1.0533 0.2126
-3 4 19 10.1721 -0.0667
-3 4 20 6.9906 0.1839
-3 4 21 -16.2242 -0.1428
-3 4 22 -11.4676 -0.0859
-3 4 23 7.3707 -0.0551
-3 4 24 -0.0245 -0.1705
-3 4 25 -9.0843 0.0525
-3 4 26 -0.1155 -0.0401
-3 4 27 -5.3284 0.0472
-3 4 28 -4.2933 0.1311
-3 4 29 -1.0213 0.0814
-3 4 30 4.7421 0.1025
-3 4 31 -0.5176 -0.0477
-3 4 32 10.1858 -0.0779
-3 4 33 4.0801 0.0215
-3 4 34 -5.0114 -0.3212
-3 4 35 -2.8033 -0.2589
-3 5 1 14.8201 0.2891
-3 5 2 37.8262 0.3773
-3 5 3 -22.6700 -0.0601
-3 5 4 -24.1539 0.2251
-3 5 5 23.2234 -0.1106
-3 5 6 -18.5474 -0.2411
-3 5 7 -7.7084 -0.0485
-3 5 8 -63.6664 -0.3031
-3 5 9 4.7059 0.0582
-3 5 10 35.1318 -0.0668
-3 5 11 -41.0606 0.0332
-3 5 12 -12.8140 0.1762
-3 5 13 -7.3563 0.0652
-3 5 14 37.0977 0.1156
-3 5 15 3.7066 0.1106
-3 5 16 -19.3344 -0.0365
-3 5 17 7.0753 0.0153
-3 5 18 23.2126 -0.0600
-3 5 19 -19.5773 -0.0888
-3 5 20 -3.6818 0.0265
-3 5 21 9.4358 -0.0825
-3 5 22 13.3280 0.1131
-3 5 23 -4.5175 -0.0358
-3 5 24 -7.1287 0.0594
-3 5 25 11.7262 0.0465
-3 5 26 7.6180 -0.1569
-3 5 27 -11.3958 0.0783
-3 5 28 -2.9909 -0.0001
-3 5 29 7.1220 0.0526
-3 5 30 4.4433 0.1345
-3 5 31 -10.0099 -0.0156
-3 5 32 -0.6077 -0.0785
-3 5 33 -3.1605 -0.0309
-3 5 34 0.2897 -0.0104
-3 5 35 -2.1321 0.0033
-3 6 1 17.9727 -0.0644
-3 6 2 -9.0786 -0.1854
-3 6 3 -18.2531 0.1343
-3 6 4 28.3896 -0.0033
-3 6 5 11.5071 0.0752
-3 6 6 -8.5370 0.0091
-3 6 7 57.2395 -0.0725
-3 6 8 20.4988 -0.1886
-3 6 9 -2.2853 -0.0234
-3 6 10 -9.4104 -0.1394
-3 6 11 29.5647 0.1253
-3 6 12 35.5930 0.1233
-3 6 13 -30.5292 0.0715
-3 6 14 1.4422 0.1906
-3 6 15 14.5601 -0.0904
-3 6 16 22.2555 0.0695
-3 6 17 -6.5936 -0.1302
-3 6 18 -16.6992 -0.0672
-3 6 19 12.1587 -0.0578
-3 6 20 20.1906 -0.1211
-3 6 21 -18.0746 0.0145
-3 6 22 -6.7216 -0.0549
-3 6 23 2.5743 0.0597
-3 6 24 4.6160 0.0318
-3 6 25 -9.5378 -0.0185
-3 6 26 -9.2952 0.0249
-3 6 27 8.0094 -0.0430
-3 6 28 8.9667 -0.0376
-3 6 29 -10.6701 0.0996
-3 6 30 -9.3148 0.0642
-3 6 31 -0.2385 -0.0614
-3 6 32 4.6081 -0.0244
-3 6 33 2.3777 -0.1732
-3 6 34 -3.7745 -0.1043
-3 7 1 -25.7554 -0.0450
-3 7 2 -4.0280 -0.0734
-3 7 3 12.3639 0.3966
-3 7 4 5.7009 -0.0340
-3 7 5 -8.3730 0.3847
-3 7 6 9.4270 0.1209
-3 7 7 -11.6226 0.0256
-3 7 8 -38.0240 0.2891
-3 7 9 18.6429 -0.1971
-3 7 10 2.0793 0.1552
-3 7 11 34.4336 -0.1846
-3 7 12 -19.3080 -0.1759
-3 7 13 -12.6230 -0.0257
-3 7 14 22.1462 -0.1268
-3 7 15 -2.5584 0.0653
-3 7 16 -11.8072 0.1370
-3 7 17 4.0998 -0.0062
-3 7 18 2.9607 0.0030
-3 7 19 0.1212 -0.0658
-3 7 20 -11.0080 -0.1996
-3 7 21 1.0834 0.0126
-3 7 22 11.2763 -0.0702
-3 7 23 -10.5081 0.1155
-3 7 24 -5.6117 0.1126
-3 7 25 -4.0439 0.1279
-3 7 26 2.1623 0.0993
-3 7 27 -0.5212 -0.0225
-3 7 28 4.6882 0.1510
-3 7 29 1.3181 -0.0653
-3 7 30 4.0956 0.0401
-3 7 31 1.3337 -0.0632
-3 7 32 -6.8010 -0.1135
-3 7 33 7.8297 -0.0169
-3 7 34 6.8880 -0.0295
-3 8 1 6.7426 0.1331
-3 8 2 -0.7373 -0.0170
-3 8 3 7.1197 -0.1885
-3 8 4 1.6987 -0.0600
-3 8 5 0.5718 -0.0714
-3 8 6 -5.7498 0.0214
-3 8 7 9.7387 -0.0291
-3 8 8 12.3937 0.1366
-3 8 9 4.2581 -0.1891
-3 8 10 -51.8274 0.0202
-3 8 11 10.3794 -0.1872
-3 8 12 -19.3105 -0.2163
-3 8 13 -8.4097 -0.0093
-3 8 14 -26.7445 -0.2431
-3 8 15 -5.7783 0.1170
-3 8 16 9.1426 -0.0976
-3 8 17 -6.2534 0.0061
-3 8 18 -18.1652 0.0086
-3 8 19 10.1733 -0.0678
-3 8 20 10.6267 0.1245
-3 8 21 2.5488 -0.0167
-3 8 22 -10.5022 0.1580
-3 8 23 0.8407 0.0554
-3 8 24 14.2756 0.0306
-3 8 25 4.6948 -0.0101
-3 8 26 -1.5557 -0.0090
-3 8 27 -3.9068 0.0081
-3 8 28 5.1164 0.0671
-3 8 29 -5.5109 0.0235
-3 8 30 0.2376 0.0473
-3 8 31 -7.2486 0.0215
-3 8 32 0.0067 -0.1487
-3 8 33 0.0820 -0.1121
-3 9 1 3.2372 -0.0026
-3 9 2 6.5603 -0.0881
-3 9 3 29.7890 -0.0469
-3 9 4 -40.8507 -0.0787
-3 9 5 6.6261 -0.2608
-3 9 6 4.8709 -0.1285
-3 9 7 -0.9982 -0.2011
-3 9 8 -15.0359 -0.1074
-3 9 9 2.3055 0.1003
-3 9 10 14.6567 -0.0965
-3 9 11 21.7832 0.1341
-3 9 12 -19.4547 -0.0158
-3 9 13 9.9501 -0.0222
-3 9 14 9.7598 0.0515
-3 9 15 7.6370 -0.0258
-3 9 16 6.1935 0.0461
-3 9 17 -6.2580 0.0588
-3 9 18 7.3380 0.0684
-3 9 19 19.2945 -0.0150
-3 9 20 -14.7790 0.0991
-3 9 21 -4.1300 -0.0462
-3 9 22 -0.7057 0.0243
-3 9 23 7.2633 -0.0239
-3 9 24 -9.6160 0.0038
-3 9 25 -2.9623 -0.0146
-3 9 26 5.8153 0.0647
-3 9 27 4.2720 0.0854
-3 9 28 6.6069 -0.0109
-3 9 29 -3.1448 0.1113
-3 9 30 9.8264 -0.1286
-3 9 31 -4.7061 -0.1778
-3 9 32 4.8263 -0.0387
-3 9 33 -0.6407 -0.0354
-3 10 1 -8.6002 0.0448
-3 10 2 -7.9408 -0.0297
-3 10 3 9.7453 -0.0037
-3 10 4 4.9593 -0.0736
-3 10 5 10.6543 -0.0291
-3 10 6 -9.3482 -0.0287
-3 10 7 -2.6347 -0.0997
-3 10 8 22.9677 -0.0447
-3 10 9 -7.5249 -0.0272
-3 10 10 -12.0565 -0.0468
-3 10 11 -7.8741 0.1286
-3 10 12 2.4607 0.1056
-3 10 13 14.2394 0.1542
-3 10 14 -13.5694 0.2065
-3 10 15 -5.0395 -0.0005
-3 10 16 12.7043 0.1706
-3 10 17 -0.9911 -0.1248
-3 10 18 -12.4907 -0.0632
-3 10 19 6.8515 -0.0542
-3 10 20 12.0148 -0.1159
-3 10 21 1.1408 0.0507
-3 10 22 -15.7506 0.0573
-3 10 23 -2.2802 0.1057
-3 10 24 1.6096 0.0522
-3 10 25 17.7746 0.0158
-3 10 26 -10.6690 -0.0800
-3 10 27 -13.6357 -0.0041
-3 10 28 5.3562 0.0301
-3 10 29 -4.8451 0.0383
-3 10 30 -1.7993 0.0048
-3 10 31 -8.6676 -0.0726
-3 10 32 2.9042 0.0577
-3 11 1 -37.8486 -0.0606
-3 11 2 -4.7050 -0.0649
-3 11 3 3.0883 0.1257
-3 11 4 9.7207 0.0350
-3 11 5 -2.8471 0.1648
-3 11 6 -6.9649 0.0173
-3 11 7 -16.5976 0.0048
-3 11 8 16.8062 0.0098
-3 11 9 -0.1717 -0.0368
-3 11 10 12.7379 0.0577
-3 11 11 11.7999 -0.0616
-3 11 12 -1.4451 0.0570
-3 11 13 -1.6722 -0.0448
-3 11 14 -10.7807 0.0716
-3 11 15 19.8801 0.0014
-3 11 16 -2.1771 0.0456
-3 11 17 -15.0224 0.0086
-3 11 18 16.4399 0.0137
-3 11 19 9.4228 -0.0153
-3 11 20 -7.7013 -0.0800
-3 11 21 -16.0245 0.0102
-3 11 22 2.1986 -0.1135
-3 11 23 11.4199 -0.0232
-3 11 24 -10.0138 0.0122
-3 11 25 -10.3111 -0.0799
-3 11 26 1.5851 0.0454
-3 11 27 8.0047 0.0755
-3 11 28 1.5918 -0.0444
-3 11 29 2.8067 -0.0303
-3 11 30 4.1580 -0.1599
-3 11 31 -0.1086 -0.3775
-3 11 32 -3.5194 -0.2259
-3 12 1 -8.5175 0.0120
-3 12 2 7.1200 -0.1380
-3 12 3 -4.0317 -0.0213
-3 12 4 8.8027 -0.0600
-3 12 5 2.4646 -0.0072
-3 12 6 -10.2470 0.1104
-3 12 7 -11.6224 -0.0212
-3 12 8 3.4731 0.1078
-3 12 9 0.5635 -0.0569
-3 12 10 -13.6152 0.0432
-3 12 11 -18.4720 -0.1125
-3 12 12 -2.3095 0.0024
-3 12 13 12.7355 0.0041
-3 12 14 -15.6409 -0.0099
-3 12 15 -14.3058 0.1420
-3 12 16 -3.1635 0.0059
-3 12 17 2.5571 0.0834
-3 12 18 -7.6702 0.0172
-3 12 19 -4.9957 -0.0412
-3 12 20 15.4617 -0.0218
-3 12 21 6.5208 -0.0703
-3 12 22 -1.3073 -0.0154
-3 12 23 -7.8058 0.0280
-3 12 24 4.9193 0.0572
-3 12 25 17.4390 -0.0497
-3 12 26 -0.8474 0.0481
-3 12 27 -10.1598 -0.0876
-3 12 28 4.2074 -0.0755
-3 12 29 9.7528 0.0456
-3 12 30 -0.8766 -0.1340
-3 12 31 -9.8842 -0.2041
-3 13 1 -1.7353 -0.0602
-3 13 2 -3.5764 -0.0110
-3 13 3 -8.0126 -0.0873
-3 13 4 -0.3133 0.0750
-3 13 5 4.3160 -0.1167
-3 13 6 -3.7844 0.0924
-3 13 7 9.4122 -0.0201
-3 13 8 8.8353 0.0655
-3 13 9 -10.8795 0.1148
-3 13 10 0.4219 0.0182
-3 13 11 6.8958 0.1193
-3 13 12 1.7736 -0.0253
-3 13 13 -11.4778 0.0259
-3 13 14 9.5645 0.0096
-3 13 15 21.6619 -0.0371
-3 13 16 -5.5432 -0.0103
-3 13 17 3.2136 -0.0344
-3 13 18 -0.6198 -0.0606
-3 13 19 -2.2019 0.0130
-3 13 20 -2.3623 -0.0051
-3 13 21 -3.4041 -0.0481
-3 13 22 3.5505 0.0822
-3 13 23 3.1774 -0.0670
-3 13 24 -5.0557 0.0185
-3 13 25 -1.3876 -0.0280
-3 13 26 -5.2601 -0.1083
-3 13 27 -1.9274 -0.0300
-3 13 28 -1.0970 0.0028
-3 13 29 -7.0679 -0.2812
-3 13 30 -3.9829 -0.1161
-3 14 1 0.0415 0.0865
-3 14 2 -7.1642 0.0411
-3 14 3 -1.1952 0.0548
-3 14 4 -1.4893 0.0613
-3 14 5 -12.5007 -0.0228
-3 14 6 3.6796 0.0031
-3 14 7 -2.6531 0.0762
-3 14 8 4.8178 -0.0614
-3 14 9 14.2842 0.1674
-3 14 10 -2.3902 -0.0147
-3 14 11 -10.8828 0.0835
-3 14 12 12.4972 0.0042
-3 14 13 15.0420 -0.0012
-3 14 14 0.2683 -0.0311
-3 14 15 -10.3843 -0.0691
-3 14 16 -9.0969 -0.0234
-3 14 17 12.3504 -0.1940
-3 14 18 -5.9334 -0.0337
-3 14 19 -1.8208 -0.0947
-3 14 20 3.4917 -0.0049
-3 14 21 4.5704 0.1006
-3 14 22 1.8062 0.0305
-3 14 23 1.8290 0.1088
-3 14 24 4.7014 0.0514
-3 14 25 12.5824 -0.0677
-3 14 26 -11.5312 -0.0225
-3 14 27 -1.2373 0.0969
-3 14 28 0.0570 0.0702
-3 14 29 -2.2835 -0.1438
-3 15 1 3.5573 -0.1158
-3 15 2 7.3042 0.0617
-3 15 3 13.7896 0.0130
-3 15 4 -7.1698 0.0034
-3 15 5 1.1744 0.1329
-3 15 6 17.3265 -0.0691
-3 15 7 6.3294 0.1321
-3 15 8 9.1958 0.0076
-3 15 9 0.0681 0.0447
-3 15 10 -14.6787 -0.0461
-3 15 11 9.3965 -0.1019
-3 15 12 1.4977 -0.0820
-3 15 13 -1.6147 -0.0904
-3 15 14 15.3954 0.0409
-3 15 15 7.0772 0.0085
-3 15 16 -7.8805 -0.0088
-3 15 17 2.2433 -0.0133
-3 15 18 -10.6649 -0.0728
-3 15 19 5.7000 -0.0657
-3 15 20 -7.2440 0.0864
-3 15 21 -1.0881 0.0143
-3 15 22 -1.7258 0.0788
-3 15 23 5.6799 0.2399
-3 15 24 -9.1466 -0.0076
-3 15 25 -3.9059 0.1210
-3 15 26 -2.9343 0.0964
-3 15 27 8.6096 -0.1312
-3 15 28 -0.3311 0.0613
-3 16 1 -0.3887 -0.0276
-3 16 2 -0.6998 0.0820
-3 16 3 -7.5654 -0.0234
-3 16 4 -7.0743 0.0394
-3 16 5 12.9928 0.0227
-3 16 6 0.5041 -0.0738
-3 16 7 -15.3118 0.0704
-3 16 8 -16.4825 -0.0811
-3 16 9 -1.6273 0.0014
-3 16 10 -2.8892 0.0004
-3 16 11 -3.4549 -0.1485
-3 16 12 -5.8599 -0.0054
-3 16 13 -8.1477 -0.0955
-3 16 14 -4.3343 0.0066
-3 16 15 -8.4603 -0.0023
-3 16 16 -6.6586 -0.0067
-3 16 17 6.8332 0.0186
-3 16 18 -0.2500 -0.0419
-3 16 19 0.2037 0.0087
-3 16 20 -13.0783 -0.0195
-3 16 21 6.7641 0.0295
-3 16 22 1.8247 0.0190
-3 16 23 7.4936 -0.0875
-3 16 24 -1.8146 0.0081
-3 16 25 -3.9969 -0.2002
-3 16 26 2.0054 -0.1454
-3 16 27 0.4813 -0.0424
-3 17 1 6.7614 0.0734
-3 17 2 -11.3813 -0.0362
-3 17 3 -9.5965 -0.0465
-3 17 4 12.5867 -0.0619
-3 17 5 -1.4537 -0.0764
-3 17 6 -5.2484 -0.0865
-3 17 7 -6.7457 -0.0147
-3 17 8 10.2627 0.0096
-3 17 9 1.6376 0.0180
-3 17 10 12.9793 0.0097
-3 17 11 -1.7131 -0.0756
-3 17 12 -10.2157 -0.0589
-3 17 13 1.9231 -0.0232
-3 17 14 16.3218 -0.0098
-3 17 15 3.1010 0.1588
-3 17 16 2.7578 0.0320
-3 17 17 -1.2159 0.0295
-3 17 18 -8.9008 0.0566
-3 17 19 -0.5917 -0.0105
-3 17 20 -2.3471 0.0504
-3 17 21 -1.3210 0.0898
-3 17 22 8.1235 -0.0591
-3 17 23 -3.0144 0.0225
-3 17 24 -3.7577 0.0245
-3 17 25 4.3469 -0.2739
-3 18 1 4.9668 -0.0488
-3 18 2 6.5165 0.0404
-3 18 3 -20.2227 0.0101
-3 18 4 2.3390 -0.0159
-3 18 5 10.4078 -0.0902
-3 18 6 7.4837 -0.0310
-3 18 7 -8.2201 -0.1215
-3 18 8 7.7602 -0.0708
-3 18 9 -2.8603 -0.0275
-3 18 10 12.0322 -0.0787
-3 18 11 -2.3664 0.0527
-3 18 12 -4.8844 -0.0672
-3 18 13 -5.4426 0.0059
-3 18 14 4.0265 0.0007
-3 18 15 -8.3221 0.0841
-3 18 16 4.4211 -0.0965
-3 18 17 2.0048 0.0376
-3 18 18 8.2316 0.0692
-3 18 19 13.5843 0.0191
-3 18 20 -10.5109 0.2411
-3 18 21 -2.7882 0.0650
-3 18 22 6.5047 -0.1390
-3 18 23 -1.0957 -0.1106
-3 18 24 -6.2760 -0.6064
-3 19 1 4.6300 -0.1076
-3 19 2 11.4214 0.1460
-3 19 3 -10.2579 -0.0359
-3 19 4 11.3214 0.1276
-3 19 5 -4.6772 0.0928
-3 19 6 -5.3522 0.0229
-3 19 7 -16.9520 0.1075
-3 19 8 4.3573 -0.0027
-3 19 9 1.6297 0.0448
-3 19 10 -0.3147 -0.1107
-3 19 11 -0.6618 0.0172
-3 19 12 -7.3600 -0.0376
-3 19 13 1.6789 0.1316
-3 19 14 16.5598 0.1851
-3 19 15 -4.7728 0.0849
-3 19 16 -12.3103 0.2142
-3 19 17 0.8530 -0.1675
-3 19 18 -9.2826 -0.1290
-3 19 19 7.2953 0.1155
-3 19 20 1.0388 -0.0891
-3 19 21 3.9502 -0.0053
-3 19 22 -9.6123 0.2773
-3 20 1 -3.1662 0.0187
-3 20 2 4.6544 -0.0284
-3 20 3 -11.7288 -0.0325
-3 20 4 2.2726 0.0469
-3 20 5 5.2861 0.0156
-3 20 6 10.1625 0.1032
-3 20 7 -5.3761 0.1703
-3 20 8 6.6713 -0.0019
-3 20 9 -5.3927 0.1322
-3 20 10 3.2145 -0.0860
-3 20 11 6.4465 0.0375
-3 20 12 -9.4953 0.0336
-3 20 13 0.5551 -0.0424
-3 20 14 -4.0802 0.0002
-3 20 15 8.5503 -0.0610
-3 20 16 -6.0686 0.0643
-3 20 17 1.9369 -0.1771
-3 20 18 -7.1485 -0.0883
-3 21 1 -3.7629 0.0241
-3 21 2 -5.3446 -0.0561
-3 21 3 1.3310 0.0221
-3 21 4 3.1701 -0.1103
-3 21 5 1.7244 -0.0549
-3 21 6 -5.7048 -0.0458
-3 21 7 -8.1607 -0.0372
-3 21 8 -2.2187 -0.0065
-3 21 9 6.6705 0.1260
-3 21 10 4.3183 0.0081
-3 21 11 3.5280 0.0992
-3 21 12 -0.9241 0.1107
-3 21 13 5.1136 -0.0299
-3 21 14 4.6229 0.0136
-3 21 15 -7.1519 -0.0907
-3 21 16 -0.3879 -0.8739
-3 21 17 14.8905 -0.2607
-3 22 1 1.4280 -0.0719
-3 22 2 3.1016 -0.2593
-3 22 3 -0.8171 0.2432
-3 22 4 -1.9142 -0.4392
-3 22 5 4.1070 0.2180
-3 22 6 6.6364 -0.1256
-3 22 7 -1.3718 -0.2312
-3 22 8 0.7372 0.1373
-3 22 9 -5.0238 -0.4532
-3 22 10 3.4614 0.0785
-3 22 11 0.1708 -0.0651
-3 22 12 -9.1750 0.1309
-3 22 13 9.1309 0.4461
-3 22 14 6.7775 -0.0395
-3 23 1 1.6508 -0.1705
-3 23 2 6.7476 -0.0110
-3 23 3 -14.9939 0.2877
-3 23 4 -0.4338 0.1572
-3 23 5 6.0852 0.4437
-3 23 6 -0.9815 -0.1107
-3 23 7 -9.5788 0.0445
-3 23 8 9.5968 -0.1449
-3 23 9 0.7118 -0.5047
-2 0 2 -67.8667 -2.5429
-2 0 4 -79.2873 0.0653
-2 0 6 144.8579 2.2918
-2 0 8 -79.8558 1.7382
-2 0 10 41.4772 -0.0234
-2 0 12 -2.0331 -1.3449
-2 0 14 2.2753 -1.4091
-2 0 16 12.9694 -0.0920
-2 0 18 8.6972 0.7846
-2 0 20 -6.6412 0.1689
-2 0 22 19.3642 -0.5717
-2 0 24 -10.0755 -0.0602
-2 0 26 0.6517 0.6365
-2 0 28 2.9629 0.4289
-2 0 30 3.3536 -0.2136
-2 0 32 1.2994 -0.5415
-2 0 34 1.6983 -0.2594
-2 1 1 -123.8163 -1.2257
-2 1 2 11.3420 0.6198
-2 1 3 -60.1540 -0.1547
-2 1 4 108.6498 0.3845
-2 1 5 66.3887 -0.0394
-2 1 6 1.5833 -1.0148
-2 1 7 22.7808 -0.3747
-2 1 8 22.9157 -0.7364
-2 1 9 -16.9896 -0.3998
-2 1 10 -5.5810 0.3096
-2 1 11 0.6937 0.1218
-2 1 12 27.1672 -0.0544
-2 1 13 -38.4354 0.3652
-2 1 14 -4.3438 -0.8832
-2 1 15 27.0492 0.2212
-2 1 16 8.2051 -0.4018
-2 1 17 -20.3531 0.0848
-2 1 18 4.2828 0.7932
-2 1 19 7.8189 0.0479
-2 1 20 11.7708 1.1147
-2 1 21 -0.6591 0.0242
-2 1 22 -2.4416 0.4578
-2 1 23 8.1352 -0.0298
-2 1 24 7.5100 -0.4682
-2 1 25 -1.4326 -0.0770
-2 1 26 -0.8714 -0.6330
-2 1 27 -6.3688 -0.0726
-2 1 28 -7.8032 -0.0521
-2 1 29 -1.1304 0.0754
-2 1 30 2.2176 0.3083
-2 1 31 -1.9968 0.1209
-2 1 32 -4.1602 0.0640
-2 1 33 -3.3607 0.0954
-2 1 34 4.5191 -0.2275
-2 1 35 2.8509 0.0642
-2 2 1 -7.5026 -0.4493
-2 2 2 74.3339 0.5806
-2 2 3 16.8098 -0.0183
-2 2 4 -46.5965 -0.3032
-2 2 5 -32.8240 0.2530
-2 2 6 45.9659 -1.0162
-2 2 7 -13.7277 0.0618
-2 2 8 -33.7038 -0.7680
-2 2 9 -1.8967 -0.3077
-2 2 10 34.2129 -0.0716
-2 2 11 -10.5132 -0.2930
-2 2 12 -30.1948 0.4748
-2 2 13 -34.9816 -0.0072
-2 2 14 44.1003 0.6296
-2 2 15 10.9792 0.1713
-2 2 16 -14.1726 0.3954
-2 2 17 -2.3013 0.1299
-2 2 18 1.2318 0.0213
-2 2 19 -9.9254 -0.0888
-2 2 20 -16.5902 -0.1053
-2 2 21 -11.0591 -0.1514
-2 2 22 -3.8178 -0.0911
-2 2 23 1.3452 -0.0024
-2 2 24 -14.7331 -0.1663
-2 2 25 -3.0010 0.0220
-2 2 26 1.5572 -0.2895
-2 2 27 11.0386 -0.0437
-2 2 28 -0.8180 -0.1671
-2 2 29 -6.5725 -0.1230
-2 2 30 5.9584 0.0831
-2 2 31 1.9060 -0.0555
-2 2 32 6.6134 0.1981
-2 2 33 -3.0696 0.0185
-2 2 34 -6.9334 -0.0785
-2 2 35 11.6756 -0.2474
-2 3 1 -42.4464 -0.0629
-2 3 2 -62.1300 -1.0128
-2 3 3 21.2043 0.3358
-2 3 4 24.0478 0.1027
-2 3 5 -56.8880 0.1029
-2 3 6 -5.6398 0.5688
-2 3 7 -41.1458 -0.3434
-2 3 8 16.4278 0.2976
-2 3 9 -11.6114 -0.2665
-2 3 10 -14.2926 -0.0139
-2 3 11 22.7129 0.0705
-2 3 12 -5.1383 0.1916
-2 3 13 -33.5067 0.2093
-2 3 14 8.7954 0.3516
-2 3 15 -4.4735 0.1654
-2 3 16 32.3952 0.0969
-2 3 17 10.3157 -0.0286
-2 3 18 -13.3457 -0.2292
-2 3 19 11.7919 -0.0993
-2 3 20 26.3409 -0.3861
-2 3 21 -1.8952 0.0242
-2 3 22 -8.8252 -0.1484
-2 3 23 7.1711 0.0496
-2 3 24 12.7600 0.1326
-2 3 25 2.4996 -0.1292
-2 3 26 -19.7130 0.1810
-2 3 27 5.1990 -0.0985
-2 3 28 0.7359 0.0710
-2 3 29 1.8676 0.0802
-2 3 30 -4.8509 0.0042
-2 3 31 -5.8532 0.1607
-2 3 32 2.8470 0.0049
-2 3 33 -4.0676 0.0400
-2 3 34 -9.6142 0.0500
-2 3 35 8.0364 -0.0072
-2 4 1 -73.3340 -0.2751
-2 4 2 -11.0506 -0.0289
-2 4 3 84.5339 0.3703
-2 4 4 -8.8900 -0.1874
-2 4 5 -9.9832 0.2084
-2 4 6 72.3122 0.3361
-2 4 7 -15.1994 0.0305
-2 4 8 -17.7107 0.6673
-2 4 9 -20.5477 0.0414
-2 4 10 29.1473 0.1541
-2 4 11 54.8501 0.0294
-2 4 12 -33.1156 -0.4580
-2 4 13 -18.2514 0.0670
-2 4 14 46.3960 -0.3949
-2 4 15 7.3915 0.0625
-2 4 16 -30.8458 0.1550
-2 4 17 -24.8454 0.0379
-2 4 18 18.6818 0.2357
-2 4 19 11.3359 -0.0914
-2 4 20 -23.2606 -0.0655
-2 4 21 -7.3764 -0.1448
-2 4 22 12.0171 -0.2296
-2 4 23 -1.8779 -0.0277
-2 4 24 -0.6365 -0.0784
-2 4 25 3.7219 0.0577
-2 4 26 11.8200 0.1642
-2 4 27 8.3212 0.1176
-2 4 28 -8.4302 0.1552
-2 4 29 -1.3304 0.0159
-2 4 30 -1.7564 -0.0281
-2 4 31 6.0182 -0.0877
-2 4 32 0.0377 -0.0830
-2 4 33 0.3468 0.1513
-2 4 34 1.3943 -0.2435
-2 4 35 4.3465 -0.2381
-2 5 1 22.1828 0.2785
-2 5 2 -41.1975 0.2560
-2 5 3 21.1630 -0.0786
-2 5 4 -16.1159 0.1468
-2 5 5 -3.7364 -0.0661
-2 5 6 -20.1148 -0.1777
-2 5 7 -19.9280 0.0202
-2 5 8 54.7214 -0.1026
-2 5 9 28.8936 0.0172
-2 5 10 -45.7575 0.0562
-2 5 11 -15.3887 -0.0138
-2 5 12 6.8512 0.0235
-2 5 13 20.1464 0.0789
-2 5 14 -25.6475 -0.1327
-2 5 15 -20.5563 0.1046
-2 5 16 25.6798 -0.1057
-2 5 17 6.1215 -0.0372
-2 5 18 -16.1817 0.0621
-2 5 19 -0.9862 -0.0995
-2 5 20 7.3375 0.1349
-2 5 21 7.6225 -0.0038
-2 5 22 -11.2953 0.0597
-2 5 23 -6.2104 -0.0244
-2 5 24 7.9107 -0.0942
-2 5 25 -8.1235 -0.0736
-2 5 26 -12.2494 -0.1458
-2 5 27 1.0964 0.0477
-2 5 28 7.9522 0.0636
-2 5 29 6.8344 0.0777
-2 5 30 0.3158 0.0843
-2 5 31 0.2890 0.0268
-2 5 32 -2.1472 0.0053
-2 5 33 0.7600 -0.1212
-2 5 34 -4.1815 -0.1476
-2 5 35 -11.8690 -0.1056
-2 6 1 -17.9094 0.0531
-2 6 2 -3.4110 0.0777
-2 6 3 68.6487 0.0709
-2 6 4 -24.2758 0.1234
-2 6 5 -0.5529 -0.2835
-2 6 6 -1.4652 -0.1766
-2 6 7 -11.8475 -0.1298
-2 6 8 3.1185 -0.2831
-2 6 9 -54.1845 0.2144
-2 6 10 -2.4124 -0.0508
-2 6 11 25.3115 0.2111
-2 6 12 -13.1094 0.1413
-2 6 13 -17.8306 0.0311
-2 6 14 -15.7122 0.1518
-2 6 15 5.3877 -0.0979
-2 6 16 7.5992 0.0684
-2 6 17 -33.6310 -0.0173
-2 6 18 -1.5522 -0.0210
-2 6 19 7.2111 -0.0095
-2 6 20 -1.1975 -0.0654
-2 6 21 -9.2597 -0.0259
-2 6 22 5.1519 -0.0720
-2 6 23 11.4195 -0.0906
-2 6 24 -2.9451 -0.0451
-2 6 25 -4.6328 -0.1063
-2 6 26 4.4736 -0.0356
-2 6 27 1.8608 0.1472
-2 6 28 0.3621 0.0218
-2 6 29 -4.2626 0.1838
-2 6 30 -7.5808 0.1019
-2 6 31 5.5528 -0.0865
-2 6 32 1.0048 0.0091
-2 6 33 -6.0669 -0.1377
-2 6 34 -4.1091 -0.1605
-2 7 1 1.8308 0.0320
-2 7 2 -34.4136 -0.1071
-2 7 3 0.3151 0.3582
-2 7 4 -31.3727 0.0309
-2 7 5 41.2321 0.2997
-2 7 6 3.8412 0.0633
-2 7 7 -21.2592 -0.0160
-2 7 8 46.8302 0.1038
-2 7 9 4.7396 -0.1100
-2 7 10 37.8647 -0.0367
-2 7 11 -18.6193 -0.0668
-2 7 12 22.2305 -0.0014
-2 7 13 32.3209 0.0298
-2 7 14 12.7886 0.2114
-2 7 15 -4.5683 -0.0203
-2 7 16 26.2125 0.1189
-2 7 17 13.1384 -0.1135
-2 7 18 16.5849 -0.2118
-2 7 19 -13.4190 -0.0760
-2 7 20 4.1379 -0.3087
-2 7 21 13.9271 0.0941
-2 7 22 3.4756 -0.0372
-2 7 23 -15.1978 0.0907
-2 7 24 10.0114 0.0696
-2 7 25 8.5765 0.0203
-2 7 26 -5.1925 0.0342
-2 7 27 -7.8341 -0.0216
-2 7 28 8.7436 0.0823
-2 7 29 7.1934 -0.0342
-2 7 30 1.4309 -0.0044
-2 7 31 2.4997 -0.0366
-2 7 32 -10.8841 -0.0108
-2 7 33 2.9688 -0.0704
-2 7 34 -3.9374 -0.1543
-2 8 1 -29.6228 -0.0651
-2 8 2 -10.5655 -0.0045
-2 8 3 30.2562 0.0943
-2 8 4 2.1643 0.0684
-2 8 5 6.9166 0.1627
-2 8 6 -37.9565 0.2040
-2 8 7 -15.7824 0.0030
-2 8 8 4.4855 0.2093
-2 8 9 -18.2946 -0.2593
-2 8 10 14.1472 -0.0383
-2 8 11 -2.1585 -0.1835
-2 8 12 11.8372 -0.2159
-2 8 13 -11.7066 0.0079
-2 8 14 -15.8484 -0.1698
-2 8 15 -5.5863 0.0449
-2 8 16 4.8537 -0.0323
-2 8 17 -16.2839 0.0059
-2 8 18 -4.0511 0.0384
-2 8 19 -7.9759 -0.0107
-2 8 20 8.8955 0.0210
-2 8 21 -14.8441 0.0429
-2 8 22 -6.4436 0.0248
-2 8 23 -3.5922 0.0332
-2 8 24 -0.6361 0.0446
-2 8 25 -3.9665 0.0314
-2 8 26 -2.0439 0.1246
-2 8 27 -11.3101 0.0183
-2 8 28 4.2154 0.1334
-2 8 29 -5.3211 -0.0066
-2 8 30 -0.9084 -0.0089
-2 8 31 8.6482 0.0369
-2 8 32 -0.2777 -0.1125
-2 8 33 17.2812 0.0003
-2 9 1 -8.7544 0.0583
-2 9 2 -1.2280 -0.0220
-2 9 3 -2.3193 -0.1654
-2 9 4 11.8037 -0.0207
-2 9 5 20.0468 -0.2458
-2 9 6 4.3461 -0.0446
-2 9 7 28.6041 -0.0854
-2 9 8 -14.8909 -0.0881
-2 9 9 14.7721 0.0498
-2 9 10 -6.3879 -0.1053
-2 9 11 -19.5933 -0.0589
-2 9 12 -8.0521 -0.1292
-2 9 13 7.6541 -0.0897
-2 9 14 -1.0173 -0.0996
-2 9 15 -9.1909 0.0731
-2 9 16 -16.5505 0.0034
-2 9 17 16.5450 0.0801
-2 9 18 18.5067 0.0938
-2 9 19 -14.1528 -0.0701
-2 9 20 -7.1541 0.0669
-2 9 21 9.2676 -0.0886
-2 9 22 12.5925 0.0284
-2 9 23 -7.8626 -0.0278
-2 9 24 3.4258 0.0293
-2 9 25 7.0495 0.0310
-2 9 26 8.8619 0.0827
-2 9 27 -6.6687 0.1374
-2 9 28 2.0419 -0.0045
-2 9 29 7.1685 -0.0247
-2 9 30 6.0069 -0.1572
-2 9 31 -8.7686 -0.1608
-2 9 32 -12.4307 -0.0458
-2 9 33 0.8525 -0.0284
-2 10 1 7.8392 -0.0722
-2 10 2 -11.1577 -0.0384
-2 10 3 3.0330 -0.1692
-2 10 4 -3.3878 -0.0551
-2 10 5 -4.4107 -0.2194
-2 10 6 -38.7016 -0.0839
-2 10 7 19.2011 -0.0286
-2 10 8 -1.4971 -0.0897
-2 10 9 2.6311 0.1207
-2 10 10 -30.7754 -0.1113
-2 10 11 -3.6224 0.1708
-2 10 12 7.4420 0.1006
-2 10 13 -10.2912 0.0286
-2 10 14 -16.2792 0.2225
-2 10 15 7.6529 -0.0865
-2 10 16 2.6853 0.0896
-2 10 17 5.1267 -0.0138
-2 10 18 -15.3300 -0.0886
-2 10 19 8.5544 0.0337
-2 10 20 14.4344 -0.0259
-2 10 21 -7.0208 0.0495
-2 10 22 -13.6273 0.1236
-2 10 23 2.9264 0.0374
-2 10 24 11.1743 0.0268
-2 10 25 4.1340 0.0325
-2 10 26 -3.9082 0.0625
-2 10 27 -7.5630 0.0434
-2 10 28 2.0914 0.0155
-2 10 29 -6.3044 0.0642
-2 10 30 0.9824 -0.0514
-2 10 31 -3.1704 0.0910
-2 10 32 6.8098 0.1620
-2 11 1 2.7920 0.0119
-2 11 2 -8.2769 0.0744
-2 11 3 5.7586 0.1753
-2 11 4 3.4381 0.0497
-2 11 5 0.3727 0.0281
-2 11 6 5.1394 -0.0403
-2 11 7 2.1384 -0.0448
-2 11 8 -13.5522 -0.0289
-2 11 9 21.0111 0.0516
-2 11 10 12.0142 0.0047
-2 11 11 7.1614 0.0777
-2 11 12 0.5894 0.0654
-2 11 13 17.4273 -0.0165
-2 11 14 17.2756 0.0895
-2 11 15 -5.7748 -0.0634
-2 11 16 -9.6028 0.1253
-2 11 17 15.7559 -0.0750
-2 11 18 -5.3813 0.0130
-2 11 19 -2.6757 -0.0647
-2 11 20 -2.6573 -0.1463
-2 11 21 -1.7118 0.0470
-2 11 22 -4.5013 -0.0666
-2 11 23 3.5892 0.0112
-2 11 24 -7.5078 0.0667
-2 11 25 3.5569 -0.0113
-2 11 26 10.7042 0.0382
-2 11 27 2.1167 0.0552
-2 11 28 -5.1984 0.0020
-2 11 29 -0.4736 -0.1140
-2 11 30 10.3559 -0.2220
-2 11 31 -7.3184 -0.2270
-2 12 1 8.7106 -0.0324
-2 12 2 -11.1124 -0.0396
-2 12 3 -16.1407 0.0263
-2 12 4 12.0078 -0.0725
-2 12 5 -10.5542 0.0319
-2 12 6 1.9506 -0.0503
-2 12 7 -4.6248 0.0500
-2 12 8 3.6816 0.0538
-2 12 9 3.6157 -0.0944
-2 12 10 -21.7352 0.0553
-2 12 11 2.5123 -0.1776
-2 12 12 0.9359 0.0678
-2 12 13 -5.9461 -0.0370
-2 12 14 -3.6040 0.0700
-2 12 15 1.9035 0.1484
-2 12 16 9.6580 0.0518
-2 12 17 8.6638 0.0817
-2 12 18 -9.6478 -0.0159
-2 12 19 6.9338 -0.1058
-2 12 20 3.7779 -0.0329
-2 12 21 -1.5641 -0.0091
-2 12 22 -14.2693 0.0328
-2 12 23 -1.0293 0.1279
-2 12 24 0.8207 -0.0085
-2 12 25 2.1604 -0.0433
-2 12 26 -5.9715 0.0413
-2 12 27 -3.8247 -0.0543
-2 12 28 5.4013 -0.1204
-2 12 29 9.8783 -0.0542
-2 12 30 -8.2586 -0.2027
-2 12 31 -0.3280 -0.1261
-2 13 1 14.5827 -0.0645
-2 13 2 11.1591 -0.0005
-2 13 3 -6.5456 -0.0675
-2 13 4 4.3993 0.0555
-2 13 5 4.4239 -0.1502
-2 13 6 18.8719 0.0623
-2 13 7 -7.0736 -0.0421
-2 13 8 -12.8972 0.0745
-2 13 9 13.6600 0.0762
-2 13 10 5.1104 0.0591
-2 13 11 0.0951 0.0231
-2 13 12 -12.4251 0.0268
-2 13 13 0.5935 -0.0053
-2 13 14 0.7076 0.0006
-2 13 15 -9.7505 0.0660
-2 13 16 -15.6492 -0.0124
-2 13 17 3.6969 0.0568
-2 13 18 7.6148 0.0148
-2 13 19 -0.0637 -0.0293
-2 13 20 -18.2763 0.0002
-2 13 21 -0.6773 -0.0849
-2 13 22 4.1695 -0.0098
-2 13 23 2.6221 -0.0807
-2 13 24 -2.2475 -0.0776
-2 13 25 4.5800 0.0666
-2 13 26 6.7963 0.0271
-2 13 27 -7.3791 -0.0145
-2 13 28 0.9424 0.0420
-2 13 29 5.9117 -0.3166
-2 13 30 -6.2984 -0.2829
-2 14 1 -5.9762 -0.0369
-2 14 2 -12.5322 0.1189
-2 14 3 5.4842 -0.0586
-2 14 4 1.7183 0.0490
-2 14 5 -11.3470 -0.0643
-2 14 6 -6.8165 -0.0362
-2 14 7 -8.7779 0.1012
-2 14 8 4.9062 0.0243
-2 14 9 0.4432 0.1122
-2 14 10 -13.2595 0.0105
-2 14 11 -5.2692 0.1170
-2 14 12 0.4240 -0.0146
-2 14 13 -0.8446 0.0428
-2 14 14 -4.2504 -0.0343
-2 14 15 8.3486 -0.0497
-2 14 16 8.1184 -0.0133
-2 14 17 4.7169 -0.1232
-2 14 18 5.3019 -0.0570
-2 14 19 5.6039 -0.0942
-2 14 20 4.6103 -0.0045
-2 14 21 5.0397 0.0027
-2 14 22 -2.3580 0.0792
-2 14 23 -1.9777 0.0282
-2 14 24 5.3777 -0.0247
-2 14 25 -1.2803 -0.0611
-2 14 26 -3.0105 -0.0794
-2 14 27 -3.9281 0.0400
-2 14 28 -0.7760 -0.1445
-2 14 29 -4.1998 -0.2146
-2 15 1 3.0232 -0.0603
-2 15 2 5.6947 0.1003
-2 15 3 -5.8277 0.0867
-2 15 4 -5.0670 0.0357
-2 15 5 -1.1268 0.0526
-2 15 6 4.2876 -0.0485
-2 15 7 0.0524 0.1087
-2 15 8 11.8945 -0.0557
-2 15 9 4.6141 0.1195
-2 15 10 4.1150 -0.0513
-2 15 11 10.4546 0.0143
-2 15 12 18.3477 0.0172
-2 15 13 2.6986 -0.0727
-2 15 14 -6.1163 0.0063
-2 15 15 5.7587 -0.0082
-2 15 16 -11.0526 -0.0635
-2 15 17 -3.2977 -0.1177
-2 15 18 6.0903 -0.0059
-2 15 19 -2.4787 -0.0440
-2 15 20 -6.7390 0.1053
-2 15 21 -7.3875 0.1550
-2 15 22 13.1081 0.0125
-2 15 23 5.2211 0.1048
-2 15 24 -5.4124 -0.0324
-2 15 25 -3.2189 0.0715
-2 15 26 0.1609 0.2125
-2 15 27 3.0817 0.1138
-2 15 28 -7.0773 -0.0946
-2 16 1 4.7914 -0.0983
-2 16 2 3.7948 0.1628
-2 16 3 15.9081 -0.0246
-2 16 4 3.4253 0.0441
-2 16 5 -18.0788 0.0544
-2 16 6 0.7401 -0.0919
-2 16 7 3.3720 0.0911
-2 16 8 -8.1040 -0.0152
-2 16 9 3.4318 -0.0721
-2 16 10 4.7656 -0.0613
-2 16 11 -1.1063 -0.1103
-2 16 12 -5.0523 -0.0233
-2 16 13 2.5110 -0.0402
-2 16 14 2.1451 0.0035
-2 16 15 9.2470 -0.0857
-2 16 16 -9.2996 -0.0182
-2 16 17 16.6653 -0.0739
-2 16 18 1.4867 -0.1551
-2 16 19 -8.7239 0.0175
-2 16 20 -6.6808 -0.0111
-2 16 21 9.0159 0.0238
-2 16 22 1.8966 0.0864
-2 16 23 -6.4364 0.0655
-2 16 24 2.4775 -0.0320
-2 16 25 -3.9691 -0.0564
-2 16 26 -0.6884 0.0524
-2 17 1 -4.8710 -0.0594
-2 17 2 11.2936 0.0159
-2 17 3 0.3813 -0.0769
-2 17 4 -3.8438 -0.0681
-2 17 5 7.6908 0.0261
-2 17 6 -2.7378 -0.0919
-2 17 7 8.4904 0.0908
-2 17 8 -5.7796 0.0220
-2 17 9 3.0010 0.0062
-2 17 10 -0.9222 0.0306
-2 17 11 -0.4642 -0.1021
-2 17 12 -13.1407 0.0269
-2 17 13 -11.0275 -0.0134
-2 17 14 -21.3722 0.0165
-2 17 15 12.5579 0.1459
-2 17 16 1.4186 -0.0431
-2 17 17 -5.1273 0.0585
-2 17 18 -14.1084 -0.0330
-2 17 19 3.5872 -0.0000
-2 17 20 -13.0256 0.0846
-2 17 21 -10.3145 0.0673
-2 17 22 12.2711 0.0447
-2 17 23 10.0591 -0.1194
-2 17 24 -3.6269 -0.0247
-2 17 25 -11.9875 0.0418
-2 18 1 14.7568 0.1713
-2 18 2 6.9538 -0.0124
-2 18 3 -14.4973 0.0404
-2 18 4 -13.5239 -0.0728
-2 18 5 6.9618 -0.1227
-2 18 6 1.6420 -0.0657
-2 18 7 -14.4853 -0.0644
-2 18 8 -10.4971 -0.0481
-2 18 9 5.2494 0.0298
-2 18 10 2.2380 -0.0577
-2 18 11 9.3071 0.0302
-2 18 12 0.5098 0.0394
-2 18 13 6.6847 0.0703
-2 18 14 4.3366 -0.0711
-2 18 15 -2.4197 0.0216
-2 18 16 -2.9895 -0.1787
-2 18 17 8.5053 0.0295
-2 18 18 2.6794 0.0249
-2 18 19 2.8431 0.0195
-2 18 20 5.9414 0.2005
-2 18 21 2.8805 -0.0381
-2 18 22 5.0138 -0.2227
-2 18 23 -8.0739 -0.2060
-2 18 24 6.9829 -0.4358
-2 19 1 -10.4915 -0.1117
-2 19 2 -4.7222 0.0245
-2 19 3 1.8988 0.0044
-2 19 4 3.5960 -0.0411
-2 19 5 10.1480 0.0379
-2 19 6 3.6912 0.0690
-2 19 7 -0.8215 -0.0771
-2 19 8 -1.6460 0.0311
-2 19 9 -11.9370 -0.1230
-2 19 10 2.8812 -0.1491
-2 19 11 1.1420 0.0916
-2 19 12 -1.1242 -0.1123
-2 19 13 -11.1235 0.0599
-2 19 14 14.8751 0.2372
-2 19 15 3.5372 0.0586
-2 19 16 0.3460 0.1633
-2 19 17 -5.1370 0.0738
-2 19 18 -7.1349 -0.0433
-2 19 19 1.7134 0.0631
-2 19 20 7.4877 0.0204
-2 19 21 -2.9653 -0.1577
-2 19 22 -3.4187 -0.1295
-2 20 1 -2.6234 0.1217
-2 20 2 7.9330 0.0861
-2 20 3 -8.6894 0.0639
-2 20 4 0.9022 0.1422
-2 20 5 2.8980 0.0254
-2 20 6 6.2401 0.1013
-2 20 7 -2.0425 0.0559
-2 20 8 1.5590 0.0159
-2 20 9 4.2035 -0.0144
-2 20 10 0.1042 -0.0139
-2 20 11 -6.3127 -0.0086
-2 20 12 3.0686 0.0998
-2 20 13 -1.8368 0.1026
-2 20 14 5.3032 0.0556
-2 20 15 -7.9980 -0.1471
-2 20 16 5.2868 0.0622
-2 20 17 -3.5376 -0.1728
-2 20 19 2.9839 0.8187
-2 20 20 -1.4097 -0.5299
-2 21 1 -10.9450 -0.0247
-2 21 2 5.0967 -0.0582
-2 21 3 -3.4710 -0.1429
-2 21 4 -0.2360 0.1161
-2 21 5 -5.7662 -0.0475
-2 21 6 0.4661 0.1517
-2 21 7 -6.7874 0.0425
-2 21 8 -0.8833 -0.0204
-2 21 9 1.9780 -0.0361
-2 21 10 0.8212 -0.1256
-2 21 11 6.6578 0.1459
-2 21 12 0.8177 0.1894
-2 21 13 -2.3639 -0.1044
-2 21 14 0.1565 -0.0238
-2 21 15 6.3054 -0.1699
-2 21 16 1.9814 -0.4176
-2 21 17 -5.5129 -0.3423
-2 22 1 1.0700 -0.2259
-2 22 2 1.1115 -0.3491
-2 22 3 0.1628 0.0986
-2 22 4 -3.2680 -0.3179
-2 22 5 9.3587 0.0803
-2 22 6 4.3500 -0.0317
-2 22 7 3.7766 -0.2085
-2 22 8 2.4460 0.0876
-2 22 9 3.2652 -0.0839
-2 22 10 -2.6854 0.1046
-2 22 11 -4.3067 0.1378
-2 22 12 -6.9583 0.1733
-2 22 13 -0.4759 -0.0075
-2 22 14 2.6473 -0.1203
-2 23 1 -6.2572 0.3835
-2 23 2 -2.6256 -0.1124
-2 23 3 -0.9324 0.2491
-2 23 4 -3.7481 -0.2769
-2 23 5 -6.2025 0.1378
-2 23 6 -6.2948 -0.5437
-2 23 7 -4.5798 -0.3164
-2 23 8 -5.5621 0.0599
-2 23 9 6.9597 -0.5588
-2 23 10 2.3290 0.8595
-2 24 1 2.7981 0.5505
-1 0 4 -18.4168 1.5071
-1 0 6 151.5089 2.8970
-1 0 8 -40.6564 1.1302
-1 0 10 -20.7584 -0.7320
-1 0 12 7.8159 -0.9928
-1 0 14 -15.1350 -0.1597
-1 0 16 1.8009 0.4629
-1 0 18 -34.8323 -0.1869
-1 0 20 -2.2815 -1.0256
-1 0 22 -9.3222 -0.4244
-1 0 24 -2.9871 0.7084
-1 0 26 -3.5647 0.8130
-1 0 28 0.2788 0.0119
-1 0 30 -1.8292 -0.4444
-1 0 32 -3.7836 -0.2511
-1 0 34 1.0214 0.0439
-1 1 3 90.4089 -0.0408
-1 1 4 42.7572 -0.0542
-1 1 5 -114.9635 -0.2459
-1 1 6 39.8026 0.0237
-1 1 7 43.1736 -0.4214
-1 1 8 37.3236 0.9394
-1 1 9 -39.2828 -0.1145
-1 1 10 -8.2983 0.2615
-1 1 11 40.0685 0.0939
-1 1 12 -0.9454 -1.3976
-1 1 13 -30.7522 0.0862
-1 1 14 -2.9487 -1.4095
-1 1 15 28.3775 0.0554
-1 1 16 21.2191 0.1377
-1 1 17 -12.5502 0.2199
-1 1 18 10.8505 1.0345
-1 1 19 36.1335 0.2003
-1 1 20 0.8466 0.6633
-1 1 21 -11.8233 0.0758
-1 1 22 2.6924 -0.0107
-1 1 23 15.8976 -0.0243
-1 1 24 1.0550 -0.3238
-1 1 25 -7.9713 -0.1557
-1 1 26 -1.1046 -0.0092
-1 1 27 9.9066 -0.0701
-1 1 28 2.5238 0.2493
-1 1 29 0.8699 0.0942
-1 1 30 3.5131 -0.0684
-1 1 31 -0.5412 0.0612
-1 1 32 -4.7395 -0.3099
-1 1 33 -0.8638 0.0570
-1 1 34 -4.1956 -0.2304
-1 1 35 -7.5669 0.2763
-1 2 2 117.6312 0.8934
-1 2 3 -37.1046 -0.0901
-1 2 4 -56.1104 -0.4214
-1 2 5 156.5999 0.2382
-1 2 6 40.5932 -1.1576
-1 2 7 -54.4915 -0.1184
-1 2 8 31.8576 -0.6973
-1 2 9 17.9323 -0.2651
-1 2 10 -12.3883 -0.2404
-1 2 11 -16.3216 -0.1307
-1 2 12 7.8843 0.1639
-1 2 13 25.1352 0.1086
-1 2 14 -7.8907 0.2772
-1 2 15 -30.7430 0.1385
-1 2 16 -11.3693 0.3239
-1 2 17 11.4246 -0.0081
-1 2 18 -8.5639 0.3566
-1 2 19 -7.4665 -0.1298
-1 2 20 2.1903 0.2475
-1 2 21 5.4007 0.0267
-1 2 22 -5.0508 0.0400
-1 2 23 -3.2806 0.1563
-1 2 24 9.2122 -0.3414
-1 2 25 -0.2014 -0.0130
-1 2 26 -4.1103 -0.4032
-1 2 27 -11.4310 -0.1213
-1 2 28 -4.4823 -0.0765
-1 2 29 8.2111 -0.1125
-1 2 30 -0.7764 0.1196
-1 2 31 3.1964 -0.0045
-1 2 32 4.4464 0.1751
-1 2 33 3.2433 0.0431
-1 2 34 4.0978 -0.1195
-1 2 35 -7.7788 -0.1156
-1 3 1 32.5397 -0.2168
-1 3 2 -60.7735 -0.4009
-1 3 3 6.4690 0.3958
-1 3 4 40.1466 0.1831
-1 3 5 -24.0119 -0.2144
-1 3 6 -48.3197 0.0131
-1 3 7 41.1112 -0.4055
-1 3 8 35.1722 -0.2627
-1 3 9 -73.0264 -0.1260
-1 3 10 -25.6243 0.0709
-1 3 11 19.3695 0.0252
-1 3 12 18.2058 0.4227
-1 3 13 4.1717 0.0666
-1 3 14 -1.3433 0.4280
-1 3 15 33.7719 0.0473
-1 3 16 16.5578 0.0873
-1 3 17 -25.8583 0.0240
-1 3 18 -11.5380 -0.1975
-1 3 19 17.7813 0.0321
-1 3 20 -4.6199 -0.2710
-1 3 21 -8.5932 0.1168
-1 3 22 -7.4284 -0.0801
-1 3 23 3.7162 -0.0243
-1 3 24 5.3714 0.0465
-1 3 25 -4.5436 -0.2730
-1 3 26 -1.4089 -0.0157
-1 3 27 4.5321 -0.1280
-1 3 28 8.1100 -0.0156
-1 3 29 -6.3128 0.1412
-1 3 30 -1.1007 0.0710
-1 3 31 -1.8142 0.1027
-1 3 32 -7.8609 0.1533
-1 3 33 5.4860 -0.0587
-1 3 34 3.4994 -0.0886
-1 3 35 4.1611 0.0443
-1 4 1 -13.5042 -0.3391
-1 4 2 22.8738 -0.4016
-1 4 3 -32.3506 0.3824
-1 4 4 -22.5240 0.1207
-1 4 5 12.4036 0.0877
-1 4 6 -10.1546 0.7112
-1 4 7 -68.1573 -0.0522
-1 4 8 0.7932 0.5874
-1 4 9 -18.0812 0.0048
-1 4 10 26.3060 -0.1885
-1 4 11 -51.5415 -0.0181
-1 4 12 -20.9248 -0.4197
-1 4 13 14.7908 0.0925
-1 4 14 -1.6303 0.0450
-1 4 15 -25.8905 0.1296
-1 4 16 -4.3905 0.2900
-1 4 17 7.9392 0.0537
-1 4 18 19.4541 -0.0350
-1 4 19 -15.7464 -0.0437
-1 4 20 -6.1666 -0.2928
-1 4 21 8.5232 -0.0738
-1 4 22 -7.0169 -0.1266
-1 4 23 -7.2171 0.0076
-1 4 24 3.2443 0.1344
-1 4 25 6.3286 0.0163
-1 4 26 -6.2467 0.2538
-1 4 27 -7.2318 0.0368
-1 4 28 1.7362 0.0429
-1 4 29 5.1964 -0.0084
-1 4 30 6.5449 -0.0937
-1 4 31 -4.1093 0.0717
-1 4 32 1.0071 -0.0445
-1 4 33 7.0048 0.2980
-1 4 34 -7.2559 -0.0888
-1 4 35 1.6370 -0.0152
-1 5 1 -78.7318 -0.0005
-1 5 2 -41.7233 -0.0235
-1 5 3 15.6367 0.0865
-1 5 4 22.4593 0.0518
-1 5 5 1.7975 0.0726
-1 5 6 -3.3505 0.1428
-1 5 7 12.9683 0.0242
-1 5 8 34.6015 0.2149
-1 5 9 -16.0901 -0.0768
-1 5 10 7.2516 0.0310
-1 5 11 0.3756 0.0148
-1 5 12 72.9775 -0.2706
-1 5 13 10.3323 0.0731
-1 5 14 -24.1324 -0.2159
-1 5 15 26.2927 0.0104
-1 5 16 14.4119 0.0162
-1 5 17 -9.0273 -0.0942
-1 5 18 -2.0534 0.1547
-1 5 19 3.2877 0.0023
-1 5 20 21.3421 0.0605
-1 5 21 0.0244 0.0669
-1 5 22 -8.6651 -0.0369
-1 5 23 11.8354 -0.0681
-1 5 24 10.9995 -0.0816
-1 5 25 -3.4829 -0.0823
-1 5 26 -7.0421 -0.0323
-1 5 27 3.4701 0.0100
-1 5 28 2.5888 0.0351
-1 5 29 -1.7955 0.0636
-1 5 30 -6.4589 -0.0045
-1 5 31 -0.0583 -0.0008
-1 5 32 5.9590 -0.0289
-1 5 33 9.0309 -0.1919
-1 5 34 -2.1538 -0.3018
-1 6 1 25.4596 0.0933
-1 6 2 7.6238 0.3330
-1 6 3 -24.5278 -0.2153
-1 6 4 31.9265 0.1237
-1 6 5 16.5253 -0.3727
-1 6 6 -36.3393 -0.2197
-1 6 7 30.7498 0.1024
-1 6 8 -22.9643 -0.1423
-1 6 9 -0.2634 0.3287
-1 6 10 5.6022 0.0326
-1 6 11 -34.6933 0.0830
-1 6 12 -12.3409 0.0522
-1 6 13 -9.7669 -0.0601
-1 6 14 -2.7102 0.0426
-1 6 15 -4.8683 0.0633
-1 6 16 -31.0163 0.1133
-1 6 17 13.4355 0.1277
-1 6 18 10.3463 0.1000
-1 6 19 -8.2308 -0.0268
-1 6 20 -14.8833 0.0523
-1 6 21 1.5166 -0.1453
-1 6 22 1.3228 -0.0558
-1 6 23 -6.9044 -0.1551
-1 6 24 -18.9371 -0.1110
-1 6 25 6.5763 -0.0509
-1 6 26 4.9287 -0.0398
-1 6 27 -4.1248 0.2293
-1 6 28 -8.6953 -0.0118
-1 6 29 4.0509 0.1034
-1 6 30 6.8414 -0.0033
-1 6 31 5.0966 -0.0387
-1 6 32 -4.1974 -0.0400
-1 6 33 2.6539 -0.1303
-1 6 34 5.9817 -0.1538
-1 7 1 39.1881 0.1586
-1 7 2 6.9260 0.0569
-1 7 3 -24.2577 0.1146
-1 7 4 39.3613 0.0791
-1 7 5 13.2441 -0.0202
-1 7 6 -19.0961 -0.0372
-1 7 7 15.0500 0.0230
-1 7 8 -10.6486 -0.1550
-1 7 9 28.4413 0.0945
-1 7 10 -22.0553 -0.1323
-1 7 11 -12.6395 0.1089
-1 7 12 24.2982 0.1622
-1 7 13 8.8921 -0.0195
-1 7 14 -11.7860 0.3653
-1 7 15 -20.2764 -0.1350
-1 7 16 3.2566 0.0587
-1 7 17 20.0512 -0.1629
-1 7 18 -27.5268 -0.3239
-1 7 19 -23.4997 0.0088
-1 7 20 21.0312 -0.2211
-1 7 21 16.0964 0.0880
-1 7 22 0.1966 0.0094
-1 7 23 -4.0015 -0.0245
-1 7 24 -1.7257 -0.0633
-1 7 25 1.5760 -0.0391
-1 7 26 -8.0130 -0.0358
-1 7 27 6.1904 0.0121
-1 7 28 3.1262 -0.0209
-1 7 29 0.2240 0.0398
-1 7 30 -12.8551 -0.0325
-1 7 31 -6.4006 -0.0059
-1 7 32 -4.0504 0.0525
-1 7 33 -1.1826 -0.1566
-1 7 34 3.7622 -0.1157
-1 8 1 4.6171 -0.0785
-1 8 2 -24.4878 0.0096
-1 8 3 9.9670 0.3102
-1 8 4 3.1572 0.1046
-1 8 5 -28.5032 0.2088
-1 8 6 8.4007 0.2436
-1 8 7 3.0998 -0.0435
-1 8 8 -9.2666 0.2004
-1 8 9 6.6812 -0.2011
-1 8 10 6.0895 -0.0658
-1 8 11 12.7001 -0.1096
-1 8 12 -3.0762 -0.1141
-1 8 13 -10.8986 -0.0082
-1 8 14 35.6036 -0.0105
-1 8 15 7.4964 -0.0215
-1 8 16 -1.2983 0.0233
-1 8 17 7.1123 0.0675
-1 8 18 15.5256 -0.0201
-1 8 19 3.5259 0.0372
-1 8 20 -4.5175 -0.1125
-1 8 21 -14.1998 0.0135
-1 8 22 23.6142 -0.1284
-1 8 23 5.1572 0.0270
-1 8 24 -3.8449 0.0674
-1 8 25 0.3174 0.0382
-1 8 26 8.0037 0.2168
-1 8 27 -1.8726 0.0808
-1 8 28 -5.6856 0.1275
-1 8 29 9.6767 -0.0332
-1 8 30 5.0286 0.0033
-1 8 31 0.7443 0.0637
-1 8 32 2.9134 -0.0642
-1 8 33 2.7899 0.0537
-1 9 1 26.6185 -0.0162
-1 9 2 -42.1167 0.1521
-1 9 3 -19.4157 -0.1622
-1 9 4 10.3679 0.0969
-1 9 5 24.5790 -0.0541
-1 9 6 -2.6961 -0.0164
-1 9 7 -36.9059 0.0079
-1 9 8 17.0195 -0.0529
-1 9 9 30.6934 -0.1369
-1 9 10 -5.8759 -0.1137
-1 9 11 -5.2391 -0.1866
-1 9 12 12.8612 -0.2034
-1 9 13 7.2805 -0.0383
-1 9 14 2.8730 -0.1790
-1 9 15 -32.3483 0.1318
-1 9 16 16.8977 0.0227
-1 9 17 1.7052 0.0108
-1 9 18 -9.0340 0.0977
-1 9 19 -13.0744 -0.1126
-1 9 20 9.5475 0.0077
-1 9 21 2.9718 -0.0927
-1 9 22 -6.8154 0.0079
-1 9 23 -15.0335 -0.0399
-1 9 24 3.7274 -0.0118
-1 9 25 -2.5341 0.0879
-1 9 26 9.3500 0.0618
-1 9 27 -10.7133 0.1018
-1 9 28 -4.4746 0.0562
-1 9 29 2.7536 -0.0647
-1 9 30 -8.2328 -0.0708
-1 9 31 5.2690 -0.0202
-1 9 32 -2.1426 -0.1839
-1 9 33 -6.1921 -0.3000
-1 10 1 16.7556 -0.1229
-1 10 2 -5.8873 -0.0353
-1 10 3 -19.3514 -0.1867
-1 10 4 6.5192 -0.0513
-1 10 5 6.7374 -0.2764
-1 10 6 0.2078 -0.0673
-1 10 7 3.3571 -0.0047
-1 10 8 -12.2824 -0.0863
-1 10 9 -17.1264 0.1511
-1 10 10 4.5800 -0.1208
-1 10 11 10.1886 0.0791
-1 10 12 -18.1153 0.0346
-1 10 13 -19.3912 -0.0580
-1 10 14 11.1258 0.1110
-1 10 15 -9.6901 -0.0534
-1 10 16 -1.8885 -0.0284
-1 10 17 5.5190 0.1363
-1 10 18 4.8522 0.0306
-1 10 19 3.1703 0.0858
-1 10 20 2.4998 0.1390
-1 10 21 -13.6597 -0.0503
-1 10 22 6.4812 0.0166
-1 10 23 6.2025 0.0099
-1 10 24 0.6754 -0.0337
-1 10 25 -14.1346 0.0916
-1 10 26 13.6263 0.1296
-1 10 27 0.6482 0.1399
-1 10 28 3.2238 0.0752
-1 10 29 2.1859 0.0843
-1 10 30 -0.0903 -0.0155
-1 10 31 8.9689 0.1755
-1 10 32 -1.6516 0.0485
-1 11 1 33.3706 0.0363
-1 11 2 0.3506 0.1635
-1 11 3 1.1189 0.0180
-1 11 4 1.6948 -0.0076
-1 11 5 34.0226 -0.0818
-1 11 6 -3.6686 -0.0755
-1 11 7 2.5210 0.0002
-1 11 8 9.8974 -0.0404
-1 11 9 7.3449 0.1214
-1 11 10 -10.0368 -0.0240
-1 11 11 -8.1646 0.1205
-1 11 12 -5.5233 0.0592
-1 11 13 14.0822 -0.0009
-1 11 14 -5.2287 0.1059
-1 11 15 -20.3587 -0.1045
-1 11 16 -3.2737 0.1238
-1 11 17 6.8790 -0.0963
-1 11 18 0.5644 -0.0418
-1 11 19 -3.7754 0.0068
-1 11 20 8.3488 -0.1472
-1 11 21 2.9243 0.0247
-1 11 22 0.6912 -0.0001
-1 11 23 -9.9621 0.0155
-1 11 24 2.2975 0.0271
-1 11 25 -1.9220 0.0507
-1 11 26 5.4252 0.0570
-1 11 27 -14.2390 0.0292
-1 11 28 0.3404 0.0202
-1 11 29 -8.5562 -0.0337
-1 11 30 2.2047 -0.1309
-1 11 31 -3.0058 -0.0831
-1 12 1 1.1159 -0.0520
-1 12 2 -13.7180 0.0036
-1 12 3 5.6115 0.0846
-1 12 4 -30.3232 -0.0730
-1 12 5 -12.4907 0.0904
-1 12 6 -20.7796 -0.1006
-1 12 7 5.2533 0.0685
-1 12 8 -8.7459 0.0391
-1 12 9 -2.8235 -0.0902
-1 12 10 6.4943 -0.0190
-1 12 11 13.7263 -0.1233
-1 12 12 -12.8699 0.0483
-1 12 13 4.3811 0.0243
-1 12 14 7.8897 0.1131
-1 12 15 20.1505 0.0598
-1 12 16 5.8561 -0.0075
-1 12 17 -18.6484 -0.0404
-1 12 18 1.5084 -0.0268
-1 12 19 4.7090 -0.1401
-1 12 20 3.5410 0.0131
-1 12 21 -0.7439 0.0403
-1 12 22 8.8311 -0.0269
-1 12 23 10.6569 0.1533
-1 12 24 3.0971 0.0215
-1 12 25 -1.5507 -0.0288
-1 12 26 5.5259 0.0782
-1 12 27 -9.4195 -0.0352
-1 12 28 10.2128 -0.1002
-1 12 29 6.2617 -0.1049
-1 12 30 8.4159 -0.2232
-1 13 1 5.3811 0.0383
-1 13 2 5.8231 0.0239
-1 13 3 -0.5136 0.0152
-1 13 4 -2.4837 -0.0370
-1 13 5 13.9984 -0.0750
-1 13 6 -1.8716 0.0101
-1 13 7 2.8486 -0.0271
-1 13 8 -1.5109 0.0737
-1 13 9 6.9335 -0.0418
-1 13 10 0.2608 0.0671
-1 13 11 -8.1213 -0.1125
-1 13 12 -4.4101 0.0567
-1 13 13 12.8451 0.0102
-1 13 14 -12.7805 0.0085
-1 13 15 -4.6256 0.1512
-1 13 16 2.5384 0.0025
-1 13 17 9.7550 0.1255
-1 13 18 4.0206 0.0449
-1 13 19 -26.0273 -0.0452
-1 13 20 -6.4254 0.0325
-1 13 21 1.1810 -0.1030
-1 13 22 -8.7245 -0.0637
-1 13 23 -8.5909 -0.0311
-1 13 24 -3.5402 -0.0568
-1 13 25 10.5189 0.0816
-1 13 26 -2.4561 0.0443
-1 13 27 -9.1856 -0.0069
-1 13 28 2.8451 -0.1463
-1 13 29 -3.2045 -0.3237
-1 13 30 3.2638 -0.1874
-1 14 1 -0.4949 -0.1431
-1 14 2 8.8821 0.0538
-1 14 3 -5.7840 -0.1683
-1 14 4 2.0523 -0.0682
-1 14 5 4.9052 -0.0549
-1 14 6 -4.1350 -0.0076
-1 14 7 6.9949 0.0796
-1 14 8 -0.6295 0.1339
-1 14 9 10.4634 0.0821
-1 14 10 0.7553 0.0655
-1 14 11 -9.8728 -0.0147
-1 14 12 -1.2248 0.0065
-1 14 13 -9.0200 0.0475
-1 14 14 -5.7597 0.0188
-1 14 15 30.7010 0.0557
-1 14 16 -3.2529 -0.0381
-1 14 17 -8.4289 0.0020
-1 14 18 6.1619 -0.0192
-1 14 19 -2.0609 -0.0434
-1 14 20 2.9628 0.0294
-1 14 21 -7.9320 -0.0850
-1 14 22 1.7450 0.0424
-1 14 23 10.5766 -0.0450
-1 14 24 -0.0500 -0.0072
-1 14 25 -3.5904 -0.0522
-1 14 26 -2.2989 -0.1482
-1 14 27 4.2158 -0.1113
-1 14 28 3.4726 -0.3912
-1 14 29 -5.5679 -0.0559
-1 15 1 0.5001 0.1038
-1 15 2 1.4453 0.0539
-1 15 3 -4.3613 0.0450
-1 15 4 11.6795 -0.0050
-1 15 5 1.3903 -0.0358
-1 15 6 4.4318 0.0139
-1 15 7 -0.4678 0.1072
-1 15 8 -23.1351 0.0026
-1 15 9 1.9884 0.1220
-1 15 10 8.8534 0.0099
-1 15 11 -12.2687 0.0609
-1 15 12 -9.3383 0.0013
-1 15 13 -7.5783 -0.0009
-1 15 14 8.9296 -0.0520
-1 15 15 -1.6719 -0.0672
-1 15 16 -2.6875 -0.0469
-1 15 17 5.7576 -0.1015
-1 15 18 1.0507 0.0714
-1 15 19 -1.2742 0.0131
-1 15 20 4.8631 0.0466
-1 15 21 1.2690 0.1702
-1 15 22 10.2462 -0.0293
-1 15 23 3.8024 -0.0428
-1 15 24 -1.2088 0.0344
-1 15 25 -0.9165 0.0212
-1 15 26 3.8648 0.1102
-1 15 27 3.5669 0.1103
-1 15 28 -10.8448 -0.1532
-1 16 1 1.6468 -0.0837
-1 16 2 -5.0608 0.1143
-1 16 3 -10.9444 0.0306
-1 16 4 0.2092 -0.0438
-1 16 5 -12.4147 0.0980
-1 16 6 2.7726 0.0035
-1 16 7 -2.0400 0.0648
-1 16 8 10.8532 -0.0211
-1 16 9 12.5463 -0.0969
-1 16 10 -2.1102 -0.0788
-1 16 11 -7.5434 -0.0659
-1 16 12 14.8109 -0.0774
-1 16 13 1.1219 -0.0354
-1 16 14 8.6505 0.0417
-1 16 15 0.0769 -0.0991
-1 16 16 5.3263 -0.0103
-1 16 17 4.4916 -0.0815
-1 16 18 -0.0227 -0.1330
-1 16 19 -1.5108 0.0070
-1 16 20 5.2283 0.0373
-1 16 21 -17.7239 0.0368
-1 16 22 -3.1443 0.0517
-1 16 23 -1.2381 0.0889
-1 16 24 3.1793 0.0264
-1 16 25 10.1396 0.0136
-1 16 26 -13.1984 -0.0900
-1 17 1 -0.2313 -0.0685
-1 17 2 21.7915 -0.0127
-1 17 3 4.6177 -0.0473
-1 17 4 -7.1604 -0.0686
-1 17 5 -5.0275 0.0719
-1 17 6 8.6937 0.0186
-1 17 7 -4.2463 0.1118
-1 17 8 -0.1783 0.0397
-1 17 9 6.7882 -0.0766
-1 17 10 8.6741 -0.0218
-1 17 11 1.7050 -0.1398
-1 17 12 -11.7993 0.0230
-1 17 13 -4.9807 -0.0565
-1 17 14 5.9025 0.0035
-1 17 15 -2.0021 0.0431
-1 17 16 -4.9275 -0.0484
-1 17 17 -8.1992 0.0491
-1 17 18 -0.1051 -0.0580
-1 17 19 6.2666 0.0643
-1 17 20 -0.9459 0.0348
-1 17 21 -1.0415 -0.0511
-1 17 22 8.9281 0.1788
-1 17 23 3.5912 -0.2533
-1 17 24 -1.0034 -0.0399
-1 17 25 -7.0217 0.1255
-1 18 1 -5.4133 0.1551
-1 18 2 -7.1565 -0.0643
-1 18 3 -16.6639 -0.0386
-1 18 4 4.3544 -0.0546
-1 18 5 10.9862 -0.0666
-1 18 6 -3.4841 0.0138
-1 18 7 14.7181 0.0943
-1 18 8 2.4662 -0.0307
-1 18 9 -16.7859 -0.0739
-1 18 10 -12.0988 0.0396
-1 18 11 16.0504 -0.0481
-1 18 12 -2.4806 0.0911
-1 18 13 4.4250 0.0231
-1 18 14 -7.8507 -0.0527
-1 18 15 -5.0734 -0.0090
-1 18 16 2.3896 -0.1984
-1 18 17 2.1882 0.0829
-1 18 18 -9.5105 -0.0398
-1 18 19 -6.2384 0.0150
-1 18 20 0.1896 0.1432
-1 18 21 -10.6445 -0.0166
-1 18 22 -3.6905 -0.1779
-1 18 23 5.1034 -0.1420
-1 19 1 -8.1551 0.0176
-1 19 2 1.8955 -0.1450
-1 19 3 3.6641 -0.0204
-1 19 4 -15.3279 -0.1407
-1 19 5 -6.8167 -0.0414
-1 19 6 10.0110 0.1650
-1 19 7 -0.4882 -0.1086
-1 19 8 -11.4262 0.0811
-1 19 9 7.3463 -0.0495
-1 19 10 5.8248 -0.1377
-1 19 11 4.1107 0.1093
-1 19 12 -22.2665 -0.0556
-1 19 13 3.2482 0.0015
-1 19 14 14.5656 0.1100
-1 19 15 3.3399 -0.0716
-1 19 16 -8.7993 0.1211
-1 19 17 -3.8645 0.0831
-1 19 18 -6.1264 0.0661
-1 19 19 7.6585 -0.0628
-1 19 20 16.1429 -0.0436
-1 19 21 -4.4425 -0.3211
-1 19 22 6.8122 -0.6003
-1 20 1 0.6933 0.1202
-1 20 2 -2.8412 0.1088
-1 20 3 13.5483 0.1762
-1 20 4 0.7738 0.0778
-1 20 5 -2.4092 0.0561
-1 20 6 -1.5319 0.0628
-1 20 7 -1.8163 0.0037
-1 20 8 -3.1709 0.0287
-1 20 9 -9.2672 -0.1092
-1 20 10 -1.2009 0.0542
-1 20 11 2.4529 0.1659
-1 20 12 7.2360 0.0085
-1 20 13 0.7192 0.1181
-1 20 14 -10.0783 0.1673
-1 20 15 6.2432 -0.1949
-1 20 16 9.0739 0.2400
-1 20 17 3.0473 0.0112
-1 20 18 -1.1221 0.2661
-1 20 19 -6.9615 0.5861
-1 20 20 0.3098 -0.4768
-1 21 1 -13.2262 0.1383
-1 21 2 3.9400 -0.0055
-1 21 3 1.2688 0.0267
-1 21 4 -2.8817 0.1469
-1 21 5 5.9423 -0.0360
-1 21 6 -4.0929 0.1948
-1 21 7 -1.6176 -0.0167
-1 21 8 3.9605 -0.0316
-1 21 9 5.0316 -0.0836
-1 21 10 4.7882 -0.1669
-1 21 11 2.5503 0.0107
-1 21 12 1.5288 -0.0703
-1 21 13 -9.3559 0.0084
-1 21 14 6.2308 -0.0579
-1 21 15 1.8199 0.0351
-1 21 16 -5.1839 0.1770
-1 21 17 -4.5318 -0.3098
-1 22 1 7.6017 -0.1547
-1 22 2 -0.2196 -0.0914
-1 22 3 6.0338 -0.1848
-1 22 4 1.3115 0.0523
-1 22 5 -7.1537 -0.2765
-1 22 6 -5.6429 0.0882
-1 22 7 -4.5037 0.0779
-1 22 8 -3.3594 0.0476
-1 22 9 4.8391 0.1332
-1 22 10 1.6080 0.0798
-1 22 11 -0.6202 0.0693
-1 22 12 8.7165 -0.0233
-1 22 13 -4.8803 -0.4541
-1 22 14 0.4492 -0.3860
-1 23 1 -9.6430 -0.1207
-1 23 2 -13.3339 -0.1078
-1 23 3 8.9092 -0.0641
-1 23 4 -0.0217 -0.4705
-1 23 5 3.8825 -0.0286
-1 23 6 7.4175 -0.3958
-1 23 7 5.7302 -0.3330
-1 23 8 0.9089 0.3320
-1 23 9 1.4243 -0.2502
-1 23 10 -1.2261 0.6504
-1 24 2 -3.4624 0.3592
-1 24 3 7.5091 0.1653
0 0 2 -668.4123 -3.5871
0 0 4 -8.4213 2.2904
0 0 6 3.4757 1.5088
0 0 8 57.4685 -0.3737
0 0 10 -75.1378 -0.7900
0 0 12 26.8797 0.2934
0 0 14 -70.8658 1.1320
0 0 16 26.4648 0.1338
0 0 18 -30.9905 -1.3502
0 0 20 11.6158 -1.2959
0 0 22 -16.9004 0.2227
0 0 24 7.0665 1.0019
0 0 26 -4.3345 0.3388
0 0 28 4.1748 -0.3776
0 0 30 -3.9879 -0.2277
0 0 32 -4.9122 0.2852
0 0 34 9.1634 0.1037
0 1 3 -29.5916 0.1270
0 1 4 -22.0969 0.2419
0 1 5 14.5954 -0.1211
0 1 6 -72.4399 1.7411
0 1 7 -16.2822 -0.1585
0 1 8 31.1506 1.6624
0 1 9 -8.3638 0.1981
0 1 10 31.6153 -0.5708
0 1 11 9.6933 -0.1696
0 1 12 -10.7591 -1.9278
0 1 13 2.2165 -0.2465
0 1 14 -23.0580 -0.7803
0 1 15 11.9998 0.0182
0 1 16 -2.6740 0.5830
0 1 17 4.4599 0.2704
0 1 18 4.1882 0.4730
0 1 19 -2.2798 0.2601
0 1 20 1.5226 -0.1143
0 1 21 1.6322 0.1071
0 1 22 -3.6253 -0.2235
0 1 23 10.2828 -0.0604
0 1 24 -7.2744 0.2139
0 1 25 -7.8227 -0.1185
0 1 26 6.7582 0.5882
0 1 27 -1.4910 0.0476
0 1 28 -6.6657 0.1025
0 1 29 0.9156 0.0064
0 1 30 -0.1442 -0.4657
0 1 31 -1.0794 -0.0584
0 1 32 -3.6903 -0.4662
0 1 33 7.9479 -0.0436
0 1 34 -3.3889 -0.0198
0 1 35 2.3454 0.1053
0 2 3 -31.3075 -0.2650
0 2 4 61.5108 -0.3760
0 2 5 58.8789 -0.0722
0 2 6 46.4974 -0.5963
0 2 7 -26.7814 -0.1906
0 2 8 32.2940 -0.3321
0 2 9 20.6916 -0.1342
0 2 10 -28.2771 -0.3611
0 2 11 -24.9203 0.0270
0 2 12 42.0216 -0.3972
0 2 13 2.8346 0.1368
0 2 14 -33.7794 -0.2016
0 2 15 -9.2140 -0.0091
0 2 16 26.9003 0.1982
0 2 17 20.1955 -0.1843
0 2 18 -25.1459 0.6113
0 2 19 -7.0528 -0.0206
0 2 20 20.1755 0.5025
0 2 21 4.0561 0.2173
0 2 22 -12.3354 0.0010
0 2 23 3.1651 0.1224
0 2 24 4.4684 -0.3963
0 2 25 6.8320 -0.1003
0 2 26 -2.8343 -0.2255
0 2 27 1.4942 -0.1112
0 2 28 1.9750 -0.0096
0 2 29 0.0266 -0.0168
0 2 30 -1.2868 -0.0157
0 2 31 1.0136 0.0549
0 2 32 -2.7674 0.0573
0 2 33 -2.0720 0.0110
0 2 34 -2.7932 0.0020
0 2 35 -1.1288 0.1228
0 3 1 -43.3024 -0.2253
0 3 2 -22.9657 0.1560
0 3 3 31.6442 -0.2174
0 3 4 89.0473 -0.2438
0 3 5 -22.8355 -0.2771
0 3 6 -3.5148 -0.5790
0 3 7 27.4662 -0.1006
0 3 8 2.4608 -0.4274
0 3 9 14.5649 0.0136
0 3 10 11.1109 0.2517
0 3 11 3.9027 -0.1401
0 3 12 -3.3003 0.4871
0 3 13 -11.2278 -0.1678
0 3 14 25.7159 0.2981
0 3 15 12.8312 -0.0542
0 3 16 -14.6203 0.0897
0 3 17 12.8319 0.1387
0 3 18 12.6138 -0.0337
0 3 19 9.0702 0.2134
0 3 20 -7.1422 -0.0295
0 3 21 -3.9077 0.1171
0 3 22 -0.0519 -0.0393
0 3 23 -1.9209 -0.1388
0 3 24 -9.8791 -0.1384
0 3 25 -0.2202 -0.2260
0 3 26 -0.5401 -0.1806
0 3 27 4.0043 0.0133
0 3 28 -11.0492 -0.0437
0 3 29 5.7117 0.0797
0 3 30 3.6315 0.1464
0 3 31 0.5454 -0.0713
0 3 32 0.8809 0.1430
0 3 33 -5.8488 -0.2084
0 3 34 -0.9955 -0.1669
0 3 35 -12.2770 -0.0515
0 4 0 -15.6545 -0.4894
0 4 1 -33.7492 -0.0601
0 4 2 135.9550 -0.3815
0 4 3 -16.3796 0.0489
0 4 4 -35.6165 0.4132
0 4 5 33.8293 -0.0628
0 4 6 12.5838 0.5440
0 4 7 -65.9783 -0.0939
0 4 8 -18.3414 0.1092
0 4 9 34.6718 -0.0644
0 4 10 -36.9953 -0.2943
0 4 11 -31.8192 -0.0010
0 4 12 23.1135 0.0683
0 4 13 -2.0413 0.0948
0 4 14 -29.6520 0.4090
0 4 15 -24.6386 0.1162
0 4 16 12.3300 0.0737
0 4 17 9.4155 0.0010
0 4 18 -23.1881 -0.2709
0 4 19 -11.7940 -0.0005
0 4 20 11.7710 -0.2201
0 4 21 14.5279 0.0452
0 4 22 -6.2942 0.0447
0 4 23 -10.1153 0.0206
0 4 24 7.8699 0.1950
0 4 25 14.1505 -0.0742
0 4 26 -2.0503 0.0785
0 4 27 -10.2587 -0.0022
0 4 28 3.9635 -0.0656
0 4 29 10.1254 0.0253
0 4 30 -10.7201 -0.0106
0 4 31 -2.3234 0.1212
0 4 32 8.8923 0.0621
0 4 33 -0.1561 0.2977
0 4 34 -0.9262 0.0310
0 5 1 -27.9869 -0.1757
0 5 2 -29.9281 -0.1772
0 5 3 5.0388 0.2313
0 5 4 50.1119 0.0870
0 5 5 -59.1472 0.1394
0 5 6 -3.0596 0.4950
0 5 7 2.8607 -0.0386
0 5 8 -0.7811 0.2917
0 5 9 -2.0069 -0.0905
0 5 10 2.9668 -0.1622
0 5 11 30.2111 0.0162
0 5 12 -3.0131 -0.3199
0 5 13 -37.4726 0.0580
0 5 14 43.4905 -0.1039
0 5 15 10.1128 -0.0860
0 5 16 -6.4170 0.1103
0 5 17 -12.1738 -0.0271
0 5 18 9.8816 0.0593
0 5 19 9.4004 0.1209
0 5 20 -9.9966 -0.0672
0 5 21 -13.5258 0.0505
0 5 22 9.4335 -0.0642
0 5 23 0.7013 -0.0956
0 5 24 -1.0756 0.0022
0 5 25 -6.0824 -0.0783
0 5 26 4.1789 0.0742
0 5 27 2.1681 -0.0009
0 5 28 -0.8719 0.0379
0 5 29 -5.4549 0.0855
0 5 30 -0.9005 0.0152
0 5 31 0.0006 0.0576
0 5 32 -3.9282 0.0063
0 5 33 -0.7721 0.0134
0 5 34 5.4310 -0.1340
0 6 0 -91.9835 0.1333
0 6 1 48.7972 -0.0685
0 6 2 -0.8559 0.3143
0 6 3 -59.6490 -0.4418
0 6 4 -43.4151 0.0492
0 6 5 9.1172 -0.0940
0 6 6 28.5981 -0.0934
0 6 7 -57.6084 0.2571
0 6 8 -10.7706 0.0942
0 6 9 12.7308 0.1216
0 6 10 12.6865 -0.0042
0 6 11 -5.1857 -0.1313
0 6 12 -12.3126 -0.1282
0 6 13 13.6218 0.0267
0 6 14 31.0783 -0.1012
0 6 15 -36.2678 0.2077
0 6 16 2.4605 0.1028
0 6 17 27.6505 0.0710
0 6 18 8.5642 0.1812
0 6 19 -22.3621 -0.0577
0 6 20 -6.1597 0.0944
0 6 21 22.6456 -0.1163
0 6 22 8.3661 -0.0611
0 6 23 -10.4991 -0.1172
0 6 24 2.4907 -0.0379
0 6 25 13.5176 0.0221
0 6 26 1.4135 -0.0431
0 6 27 -8.2125 0.1301
0 6 28 1.1317 0.0031
0 6 29 2.4700 0.0271
0 6 30 6.2765 0.0674
0 6 31 8.3838 0.0462
0 6 32 2.8378 -0.0336
0 6 33 -0.8972 -0.0364
0 6 34 4.8875 -0.2803
0 7 1 14.8609 0.1108
0 7 2 -37.8384 0.1915
0 7 3 39.0275 -0.1713
0 7 4 37.3801 0.0434
0 7 5 5.9127 -0.1580
0 7 6 12.5048 -0.1479
0 7 7 -5.3748 0.1722
0 7 8 30.2187 -0.2746
0 7 9 -15.1446 0.2661
0 7 10 2.2937 -0.0669
0 7 11 3.4426 0.1360
0 7 12 -0.2991 0.2768
0 7 13 -23.0595 -0.0819
0 7 14 6.2425 0.2918
0 7 15 -6.5391 -0.1608
0 7 16 7.0445 -0.0837
0 7 17 4.2342 -0.0347
0 7 18 -19.1541 -0.1993
0 7 19 8.3972 0.0427
0 7 20 -4.5922 0.0147
0 7 21 -10.1868 -0.0323
0 7 22 -13.5852 -0.0082
0 7 23 14.3969 -0.1236
0 7 24 -9.6649 -0.1726
0 7 25 -11.0558 -0.0579
0 7 26 -2.6430 -0.1647
0 7 27 5.9507 0.0427
0 7 28 0.1682 -0.0646
0 7 29 -0.5903 0.0883
0 7 30 -6.0029 0.0386
0 7 31 -3.7204 0.0144
0 7 32 -6.6242 -0.2372
0 7 33 3.3429 -0.2651
0 8 0 0.8872 -0.0779
0 8 1 44.4243 0.1784
0 8 2 33.4852 0.0743
0 8 3 -44.8850 0.3333
0 8 4 -41.3964 0.0458
0 8 5 44.3159 0.1463
0 8 6 20.1715 0.1509
0 8 7 -36.8467 -0.0088
0 8 8 -10.7974 0.1094
0 8 9 -3.3768 -0.0035
0 8 10 39.1458 0.0187
0 8 11 -18.8573 -0.0744
0 8 12 -23.3994 0.0724
0 8 13 12.2916 -0.0253
0 8 14 7.6151 0.1229
0 8 15 -16.3419 0.0069
0 8 16 -5.2966 0.0574
0 8 17 11.0059 0.0392
0 8 18 2.6862 -0.1266
0 8 19 -6.2585 0.0320
0 8 20 -10.3846 -0.1978
0 8 21 15.6151 0.0052
0 8 22 4.1872 -0.1371
0 8 23 -9.0428 0.0200
0 8 24 -6.2352 0.0801
0 8 25 15.5410 0.0702
0 8 26 -0.5165 0.1212
0 8 27 0.4294 -0.0514
0 8 28 -6.7081 0.0406
0 8 29 7.4053 -0.0391
0 8 30 4.0801 -0.0450
0 8 31 5.3236 0.1780
0 8 32 -2.1997 -0.3187
0 8 33 -9.7017 0.1263
0 9 1 12.0361 0.0063
0 9 2 11.3878 0.2588
0 9 3 14.5738 0.0385
0 9 4 -6.6381 0.0743
0 9 5 11.5893 0.1468
0 9 6 -5.4089 0.0360
0 9 7 6.6888 -0.0243
0 9 8 11.8350 0.0870
0 9 9 -2.7974 -0.3001
0 9 10 3.9508 -0.0686
0 9 11 9.3164 -0.1976
0 9 12 13.1254 -0.2344
0 9 13 3.5453 0.0529
0 9 14 -11.4055 -0.1430
0 9 15 11.0004 0.0909
0 9 16 13.3554 -0.0046
0 9 17 -9.0605 -0.0549
0 9 18 1.3971 0.0144
0 9 19 0.8182 -0.0665
0 9 20 7.7111 -0.0143
0 9 21 -6.6412 0.0112
0 9 22 -8.9555 0.0043
0 9 23 14.6819 -0.0091
0 9 24 3.5243 -0.0177
0 9 25 -10.5667 0.0283
0 9 26 -6.1420 -0.0160
0 9 27 3.1554 -0.0202
0 9 28 5.4468 0.0299
0 9 29 1.3193 0.0294
0 9 30 -11.5361 0.0223
0 9 31 3.7991 -0.0146
0 9 32 10.7669 -0.1249
0 10 0 -54.4079 0.0106
0 10 1 38.0188 -0.0691
0 10 2 4.1597 0.0041
0 10 3 -36.6230 -0.1531
0 10 4 -37.7371 -0.0793
0 10 5 11.7982 -0.1632
0 10 6 1.1448 -0.0704
0 10 7 -8.9288 -0.0039
0 10 8 -14.1991 -0.0944
0 10 9 13.7508 0.0028
0 10 10 7.9551 -0.0843
0 10 11 -15.6200 -0.1131
0 10 12 -7.7739 -0.1015
0 10 13 9.4169 -0.0292
0 10 14 22.9832 -0.0756
0 10 15 -13.2613 0.1352
0 10 16 -20.4651 -0.0376
0 10 17 0.7257 0.1469
0 10 18 29.2214 0.1357
0 10 19 0.6356 -0.0095
0 10 20 -3.8971 0.1674
0 10 21 -8.0826 -0.1135
0 10 22 4.8987 -0.0955
0 10 23 3.6964 -0.0525
0 10 24 -8.8096 -0.0624
0 10 25 8.6925 0.1753
0 10 26 9.0066 0.1035
0 10 27 -1.8781 0.1891
0 10 28 -2.2456 0.0822
0 10 29 9.4398 0.0279
0 10 30 -1.7255 0.0980
0 10 31 -4.4848 0.1211
0 10 32 -5.4181 -0.4148
0 11 1 6.8340 -0.0277
0 11 2 19.6290 0.1153
0 11 3 6.4570 -0.1500
0 11 4 9.7029 -0.1103
0 11 5 -8.8420 -0.1252
0 11 6 -12.1177 -0.0820
0 11 7 9.7595 0.0039
0 11 8 7.1956 -0.0467
0 11 9 -7.0424 0.1327
0 11 10 0.7265 -0.0142
0 11 11 -8.0571 0.1137
0 11 12 1.3777 0.0444
0 11 13 -19.7298 0.0170
0 11 14 -6.5115 0.1239
0 11 15 2.1347 -0.0447
0 11 16 -0.4471 -0.0035
0 11 17 -6.5425 -0.0344
0 11 18 -5.7816 -0.1100
0 11 19 -2.2671 0.0678
0 11 20 13.9096 0.0174
0 11 21 -6.5174 -0.0030
0 11 22 -4.9548 0.0889
0 11 23 -5.7845 -0.0035
0 11 24 4.4013 -0.0181
0 11 25 -4.4086 0.1099
0 11 26 -9.0901 0.0426
0 11 27 7.2261 0.0386
0 11 28 -1.5665 0.0562
0 11 29 -1.5094 0.1401
0 11 30 -3.8539 0.1021
0 11 31 1.2988 -0.0866
0 12 0 -21.6551 0.0854
0 12 1 -12.6695 0.0139
0 12 2 13.9513 -0.0188
0 12 3 15.7267 0.1026
0 12 4 2.6558 -0.1042
0 12 5 -1.0417 0.1268
0 12 6 16.5666 -0.0069
0 12 7 7.6901 0.0469
0 12 8 1.1959 0.0198
0 12 9 10.7260 -0.0605
0 12 10 11.3130 0.0027
0 12 11 0.7104 -0.0334
0 12 12 -3.6145 0.0464
0 12 13 -6.9378 0.0457
0 12 14 15.3567 0.0852
0 12 15 7.8143 -0.0428
0 12 16 -4.3194 -0.0027
0 12 17 9.2714 -0.1778
0 12 18 3.8501 0.0025
0 12 19 -2.1985 -0.0329
0 12 20 -3.7852 -0.0139
0 12 21 -2.2934 0.1257
0 12 22 14.8703 -0.1057
0 12 23 -5.6673 0.0529
0 12 24 -6.9693 0.0062
0 12 25 -1.5735 0.0565
0 12 26 5.8947 0.0881
0 12 27 -1.1665 -0.0262
0 12 28 -7.4554 0.0256
0 12 29 -2.4062 0.0806
0 12 30 6.0044 -0.3149
0 13 1 12.5537 0.1149
0 13 2 -7.6446 -0.0133
0 13 3 -3.5047 0.0777
0 13 4 -5.3436 -0.1154
0 13 5 -5.7575 0.0758
0 13 6 -19.2643 -0.0220
0 13 7 -10.3750 -0.0286
0 13 8 -7.5953 -0.0043
0 13 9 5.2680 -0.1851
0 13 10 -14.0640 0.0632
0 13 11 -2.2606 -0.1272
0 13 12 7.5407 0.0447
0 13 13 -9.0313 0.0384
0 13 14 -17.1567 0.0414
0 13 15 -7.1495 0.1343
0 13 16 6.7575 -0.0127
0 13 17 3.2141 0.0628
0 13 18 -11.2683 -0.0372
0 13 19 9.6926 -0.0394
0 13 20 1.0080 0.0146
0 13 21 2.4298 -0.0959
0 13 22 2.6899 -0.0158
0 13 23 -6.9643 0.0569
0 13 24 18.7085 0.0295
0 13 25 6.3228 0.1160
0 13 26 -6.7665 0.1071
0 13 27 -1.0884 0.0095
0 13 28 3.2183 -0.1179
0 13 29 1.8633 -0.1195
0 14 0 -11.5426 -0.0254
0 14 1 -1.7294 -0.1177
0 14 2 -12.4818 -0.1280
0 14 3 9.9447 -0.1304
0 14 4 -9.1813 -0.1471
0 14 5 -4.7974 0.0160
0 14 6 7.3749 0.0597
0 14 7 7.5967 0.0528
0 14 8 -0.1936 0.0946
0 14 9 11.5754 -0.0197
0 14 10 -6.1694 0.0821
0 14 11 13.3959 -0.0472
0 14 12 -6.9901 0.0610
0 14 13 4.5261 0.0759
0 14 14 4.7482 0.0352
0 14 15 0.3063 0.1222
0 14 16 2.6887 -0.0680
0 14 17 -6.1222 0.0193
0 14 18 -2.6759 -0.0381
0 14 19 -2.6662 -0.0658
0 14 20 -13.9833 -0.0115
0 14 21 0.8414 -0.0918
0 14 22 -8.3311 -0.0486
0 14 23 3.7414 -0.0571
0 14 24 2.4707 0.0566
0 14 25 -9.1200 -0.0545
0 14 26 5.0551 0.0103
0 14 27 0.2691 -0.2521
0 14 28 -9.7758 -0.5351
0 15 1 3.4068 0.1571
0 15 2 -12.2281 -0.0121
0 15 3 7.5748 -0.0184
0 15 4 1.5722 -0.0504
0 15 5 11.3595 -0.0241
0 15 6 -5.4581 0.0349
0 15 7 -5.1369 0.0784
0 15 8 -4.6657 0.0406
0 15 9 9.9067 0.0963
0 15 10 -10.3805 0.0915
0 15 11 3.6095 0.1148
0 15 12 1.2654 0.0342
0 15 13 16.9706 0.0389
0 15 14 -9.1822 -0.0302
0 15 15 -8.0167 -0.0755
0 15 16 3.9503 0.0106
0 15 17 3.7779 -0.0546
0 15 18 10.5053 0.0614
0 15 19 -3.3396 0.1080
0 15 20 -11.9836 0.0085
0 15 21 5.2497 -0.0363
0 15 22 1.2889 0.0184
0 15 23 -2.5534 -0.0735
0 15 24 -9.3284 0.0699
0 15 25 5.7706 0.0469
0 15 26 9.9257 -0.1184
0 15 27 0.3896 -0.1142
0 16 0 -1.8612 0.1042
0 16 1 -6.6842 -0.0068
0 16 2 0.9805 0.0026
0 16 3 16.0046 0.0358
0 16 4 -1.4975 -0.0280
0 16 5 1.8390 0.0628
0 16 6 -1.6383 0.0932
0 16 7 12.6514 0.0022
0 16 8 -0.4015 -0.0276
0 16 9 -15.2773 -0.0860
0 16 10 -3.3238 -0.0774
0 16 11 6.0674 -0.0036
0 16 12 -4.5401 -0.0082
0 16 13 7.0643 -0.0083
0 16 14 5.1424 0.0612
0 16 15 10.1496 -0.0856
0 16 16 1.1364 -0.0189
0 16 17 -18.8854 -0.0191
0 16 18 5.3593 -0.0066
0 16 19 9.9046 0.0695
0 16 20 3.6219 0.0152
0 16 21 4.8684 0.0480
0 16 22 1.3772 0.0641
0 16 23 11.7412 0.0599
0 16 24 -6.5142 0.1879
0 16 25 -7.2526 0.0031
0 16 26 -4.9310 -0.4272
0 17 1 4.5926 -0.0520
0 17 2 9.5524 -0.0133
0 17 3 -5.0230 -0.0174
0 17 4 -6.8652 0.0091
0 17 5 -4.1428 0.0262
0 17 6 -9.9353 0.0223
0 17 7 -1.7050 0.0006
0 17 8 2.9154 -0.0861
0 17 9 -13.3225 -0.1137
0 17 10 -0.9291 0.0003
0 17 11 -7.1302 -0.0255
0 17 12 0.8464 0.0342
0 17 13 2.5960 -0.0895
0 17 14 -0.2406 -0.0323
0 17 15 1.2650 -0.1553
0 17 16 7.4077 0.0122
0 17 17 11.0519 0.0480
0 17 18 -5.6596 -0.0273
0 17 19 -16.5204 0.1062
0 17 20 12.8297 -0.0057
0 17 21 -0.7762 -0.2048
0 17 22 -4.2736 -0.0283
0 17 23 1.6576 0.0159
0 17 24 -10.3136 -0.1003
0 17 25 15.1095 0.1408
0 18 0 8.7238 -0.1141
0 18 1 -4.2652 -0.0829
0 18 2 -3.6216 -0.0613
0 18 3 4.9536 -0.0587
0 18 4 2.2946 -0.0301
0 18 5 0.4201 0.1153
0 18 6 7.1469 -0.0284
0 18 7 12.9850 0.0941
0 18 8 6.3747 -0.0505
0 18 9 -14.9354 -0.0486
0 18 10 3.4979 0.0213
0 18 11 18.7232 -0.0348
0 18 12 8.6001 0.0439
0 18 13 -15.9903 -0.0207
0 18 14 -2.4201 -0.0790
0 18 15 11.9067 -0.0138
0 18 16 -2.0242 -0.0908
0 18 17 -7.9525 0.0974
0 18 18 -3.7645 -0.0022
0 18 19 0.9073 -0.0106
0 18 20 4.5508 0.0994
0 18 21 6.0246 -0.1583
0 18 22 -6.2338 0.1303
0 18 23 -3.5849 -0.0364
0 19 1 -6.2830 0.1543
0 19 2 -0.0039 -0.1472
0 19 3 5.7316 0.0285
0 19 4 -5.7647 -0.0102
0 19 5 -4.0456 -0.1015
0 19 6 0.6984 0.1036
0 19 7 3.3417 -0.0386
0 19 8 1.1316 -0.0075
0 19 9 -4.7271 0.0125
0 19 10 -6.5345 -0.1198
0 19 11 -3.4080 0.0990
0 19 12 -4.7662 0.0094
0 19 13 -1.2650 -0.0387
0 19 14 3.0745 -0.0541
0 19 15 -7.4925 -0.0492
0 19 16 -4.2630 -0.0664
0 19 17 6.3743 0.0994
0 19 18 -3.0712 0.0363
0 19 19 -1.2018 -0.2221
0 19 20 -9.0808 -0.3679
0 19 21 -4.4205 -0.2587
0 20 0 -1.4907 0.0537
0 20 1 -11.2307 0.0408
0 20 2 -5.8996 0.0705
0 20 3 0.1326 0.1105
0 20 4 2.7689 -0.0393
0 20 5 -4.2881 -0.0126
0 20 6 -5.1559 0.0136
0 20 7 7.7211 -0.1293
0 20 8 7.7823 -0.0573
0 20 9 -3.1744 -0.0192
0 20 10 0.6214 0.0488
0 20 11 4.7021 0.2203
0 20 12 4.0705 0.0309
0 20 13 -5.6098 0.2178
0 20 14 -0.5271 0.1050
0 20 15 6.9708 -0.1507
0 20 16 -3.5526 0.3232
0 20 17 0.8531 0.0690
0 20 18 -0.0514 0.0639
0 20 19 6.4988 0.0266
0 21 1 5.8454 0.0258
0 21 2 2.3532 0.1960
0 21 3 2.6880 0.1452
0 21 4 10.8442 0.1763
0 21 5 7.7758 0.2195
0 21 6 -1.6657 0.1063
0 21 7 -15.1752 -0.0064
0 21 8 -4.4936 0.1097
0 21 9 -1.6426 -0.1640
0 21 10 3.5006 -0.1148
0 21 11 -0.1622 0.0490
0 21 12 3.2002 -0.1925
0 21 13 -3.4318 0.3272
0 21 14 -3.4085 0.0262
0 21 15 3.1238 0.2182
0 21 16 1.2821 0.4982
0 22 1 3.0984 -0.0064
0 22 2 -7.7331 0.1914
0 22 3 -15.4413 -0.0163
0 22 4 0.5516 0.3185
0 22 5 4.3115 -0.2871
0 22 6 1.0510 0.1222
0 22 7 -2.4321 0.0709
0 22 8 -2.1521 -0.1978
0 22 9 -10.8283 0.1055
0 22 10 -2.1675 0.0362
0 22 11 0.4069 -0.1006
0 22 12 11.0723 -0.0768
0 22 13 -0.7251 -0.3853
0 22 14 2.7830 -0.5078
0 23 2 4.9094 -0.1713
0 23 3 -2.7012 -0.1144
0 23 4 6.7649 -0.4780
0 23 5 -3.5113 -0.2477
0 23 6 6.4503 -0.2087
0 23 7 1.5737 -0.3031
0 23 8 1.0690 0.2004
0 23 9 2.2646 0.0723
1 0 2 -221.0119 -0.2721
1 0 4 89.3339 1.1367
1 0 6 -42.8955 -0.4714
1 0 8 -2.3575 -1.2348
1 0 10 -58.4184 0.1254
1 0 12 49.9972 1.5358
1 0 14 -24.2185 1.1857
1 0 16 13.3593 -0.6747
1 0 18 -19.7808 -1.5615
1 0 20 -6.9169 -0.5463
1 0 22 -1.7501 0.6619
1 0 24 7.5350 0.4640
1 0 26 1.6767 -0.3692
1 0 28 -10.2862 -0.3407
1 0 30 12.2875 0.3124
1 0 32 1.6168 0.5896
1 1 1 278.2165 1.7646
1 1 2 -33.0907 -0.8018
1 1 3 -93.9621 0.1579
1 1 4 -12.8577 0.9157
1 1 5 57.7181 0.0083
1 1 6 -43.6286 2.4442
1 1 7 -65.7870 0.2814
1 1 8 9.4677 1.1324
1 1 9 101.3489 0.1869
1 1 10 -5.0238 -1.0443
1 1 11 -37.9183 -0.3429
1 1 12 -0.5684 -1.0507
1 1 13 30.8105 -0.4561
1 1 14 -8.6849 0.1550
1 1 15 -26.9590 0.0271
1 1 16 2.9494 0.2391
1 1 17 38.8656 0.2354
1 1 18 9.5097 -0.5419
1 1 19 -16.8759 0.1831
1 1 20 -4.8428 -0.6618
1 1 21 10.2105 0.0265
1 1 22 -8.3015 0.0413
1 1 23 -10.2370 -0.0050
1 1 24 0.9877 0.7561
1 1 25 6.0338 0.0368
1 1 26 0.1385 0.6148
1 1 27 3.1173 0.0765
1 1 28 4.1748 -0.1590
1 1 29 -0.5763 -0.0028
1 1 30 -5.0425 -0.4858
1 1 31 -8.9279 -0.0517
1 1 32 8.1371 -0.2821
1 1 33 -0.2299 -0.1774
1 1 34 0.3064 0.1858
1 2 1 -11.7348 0.1292
1 2 2 -84.5044 0.0616
1 2 3 -69.9794 -0.2839
1 2 4 15.9018 -0.0126
1 2 5 41.9870 -0.1008
1 2 6 -28.1959 0.2101
1 2 7 -31.6185 0.0015
1 2 8 0.7166 -0.0463
1 2 9 3.1344 0.0718
1 2 10 -39.8148 -0.4574
1 2 11 2.2656 0.1586
1 2 12 -16.4809 -0.7877
1 2 13 -2.4766 0.0378
1 2 14 -2.4676 -0.4561
1 2 15 -13.4460 -0.2010
1 2 16 -15.1276 0.1506
1 2 17 -3.6001 -0.2078
1 2 18 -5.6626 0.6068
1 2 19 4.3306 0.1287
1 2 20 10.2641 0.4349
1 2 21 -2.1181 0.2626
1 2 22 -5.4831 -0.0160
1 2 23 2.9602 0.0144
1 2 24 9.8517 -0.1217
1 2 25 -4.2250 -0.1155
1 2 26 -4.2132 0.0049
1 2 27 -0.2149 -0.0305
1 2 28 -1.2700 -0.0971
1 2 29 1.0485 0.0923
1 2 30 1.1549 -0.1983
1 2 31 -0.3457 0.0182
1 2 32 5.1294 -0.0736
1 2 33 3.8465 0.0813
1 2 34 -4.8368 0.0435
1 3 0 -143.0175 0.2464
1 3 1 21.8113 0.0255
1 3 2 64.1380 0.3458
1 3 3 -43.1995 -0.7732
1 3 4 -34.8952 -0.8022
1 3 5 59.4035 -0.1302
1 3 6 67.3543 -0.8505
1 3 7 -13.3797 0.1787
1 3 8 27.7634 -0.2858
1 3 9 52.3632 0.0856
1 3 10 -0.2676 0.1687
1 3 11 -22.8277 -0.2845
1 3 12 -23.2021 0.1768
1 3 13 43.0738 -0.2976
1 3 14 23.9248 0.0374
1 3 15 -5.0018 -0.0190
1 3 16 -18.1592 0.1156
1 3 17 14.7931 0.1829
1 3 18 8.2176 0.2653
1 3 19 -9.6355 0.2186
1 3 20 -17.3300 0.1789
1 3 21 12.3315 -0.0139
1 3 22 12.2612 -0.1165
1 3 23 -6.4137 -0.1272
1 3 24 -5.3438 -0.2942
1 3 25 3.0893 -0.0450
1 3 26 3.8901 -0.2136
1 3 27 -1.2701 0.0175
1 3 28 -10.2345 0.0007
1 3 29 -1.7492 -0.0545
1 3 30 4.1576 0.1227
1 3 31 0.4271 -0.1050
1 3 32 1.5418 0.0391
1 3 33 8.0149 -0.1534
1 3 34 2.0356 0.0633
1 4 0 -17.9472 -0.5171
1 4 1 7.5843 0.1584
1 4 2 -56.5085 -0.0270
1 4 3 -10.3696 -0.2943
1 4 4 45.4618 0.1699
1 4 5 14.8333 -0.1600
1 4 6 -0.0743 -0.0073
1 4 7 -18.5187 -0.0579
1 4 8 28.1660 -0.3321
1 4 9 -31.2829 -0.0790
1 4 10 -7.6910 0.0418
1 4 11 22.0560 0.0273
1 4 12 -4.6062 0.5300
1 4 13 -7.2683 0.0559
1 4 14 -4.9840 0.3709
1 4 15 19.4750 0.0023
1 4 16 13.4981 -0.2319
1 4 17 6.3833 0.0191
1 4 18 -11.7426 -0.2832
1 4 19 17.0066 0.1471
1 4 20 -1.8733 -0.0035
1 4 21 -1.1911 0.0866
1 4 22 -9.7178 0.1653
1 4 23 7.7142 -0.0838
1 4 24 3.0461 0.0533
1 4 25 4.3024 -0.0642
1 4 26 -10.5782 -0.1390
1 4 27 -0.0480 -0.0088
1 4 28 6.6297 -0.0850
1 4 29 3.6903 0.0571
1 4 30 -7.5204 0.0983
1 4 31 -1.4630 0.0648
1 4 32 2.1138 0.1356
1 4 33 -2.8536 0.0237
1 4 34 -2.2093 -0.1334
1 5 0 30.2671 -0.2780
1 5 1 54.6335 -0.0063
1 5 2 55.2187 -0.1564
1 5 3 12.5109 0.2327
1 5 4 10.5822 0.1016
1 5 5 -15.1739 0.1480
1 5 6 35.4689 0.4852
1 5 7 -25.9515 -0.0456
1 5 8 -12.0060 0.0903
1 5 9 -25.3012 -0.0466
1 5 10 44.3532 -0.1801
1 5 11 -22.1555 -0.0113
1 5 12 -36.9082 -0.1417
1 5 13 18.6540 -0.0550
1 5 14 3.7327 0.0525
1 5 15 -2.6739 -0.0696
1 5 16 -32.0104 0.0489
1 5 17 -7.4037 0.0880
1 5 18 17.3722 -0.0312
1 5 19 -7.9258 0.1792
1 5 20 -25.0437 -0.0600
1 5 21 9.8685 0.0070
1 5 22 0.8270 -0.0460
1 5 23 -1.5726 -0.0562
1 5 24 -11.9847 0.1094
1 5 25 -2.3222 -0.0829
1 5 26 8.3602 0.0954
1 5 27 2.8477 -0.0163
1 5 28 -8.9275 -0.0877
1 5 29 -5.0903 0.0971
1 5 30 4.1755 -0.0106
1 5 31 2.4606 -0.0131
1 5 32 -3.9496 -0.0050
1 5 33 7.5432 -0.0532
1 5 34 1.6387 0.2083
1 6 0 -2.2767 0.1451
1 6 1 -38.3230 -0.2071
1 6 2 5.6194 0.0049
1 6 3 -46.4566 -0.1708
1 6 4 -10.6299 -0.0571
1 6 5 15.1159 0.1904
1 6 6 -7.9555 0.2052
1 6 7 -24.2603 0.1064
1 6 8 18.8727 0.2302
1 6 9 -6.3808 -0.1902
1 6 10 -6.0799 -0.1204
1 6 11 -19.3232 -0.1033
1 6 12 12.7425 -0.2799
1 6 13 19.0988 0.1585
1 6 14 -27.9823 -0.0657
1 6 15 21.0723 0.1619
1 6 16 21.6429 0.1038
1 6 17 4.8858 0.0080
1 6 18 -3.0888 0.1774
1 6 19 -5.6953 0.0269
1 6 20 20.8473 0.0456
1 6 21 5.0892 -0.0586
1 6 22 -4.4710 -0.0015
1 6 23 7.0052 -0.0676
1 6 24 9.4636 -0.0188
1 6 25 1.6134 0.0657
1 6 26 1.4287 -0.0060
1 6 27 0.7101 -0.0139
1 6 28 4.1536 0.0639
1 6 29 -2.1160 0.0238
1 6 30 -3.8845 0.0353
1 6 31 -2.3021 0.0627
1 6 32 4.5084 -0.0510
1 6 33 -7.1495 0.2199
1 7 0 -22.4100 0.1328
1 7 1 -12.3235 -0.1947
1 7 2 38.7564 0.0616
1 7 3 6.7361 -0.3345
1 7 4 -23.4028 0.0038
1 7 5 -12.6271 -0.0355
1 7 6 3.0211 -0.1598
1 7 7 20.7135 0.2750
1 7 8 5.2397 -0.2416
1 7 9 -14.7030 0.2233
1 7 10 -15.5095 0.0679
1 7 11 24.3168 0.0352
1 7 12 1.1064 0.2300
1 7 13 -24.4971 -0.0828
1 7 14 18.9449 -0.0112
1 7 15 20.0861 0.0024
1 7 16 -38.3444 -0.1360
1 7 17 -12.2317 0.0666
1 7 18 19.6222 0.1066
1 7 19 -3.0266 -0.0207
1 7 20 -7.2764 0.1616
1 7 21 -10.0069 -0.1320
1 7 22 10.1158 -0.1290
1 7 23 2.3058 -0.1047
1 7 24 -17.6794 -0.2208
1 7 25 -7.5683 -0.0546
1 7 26 6.1862 -0.1429
1 7 27 -3.0794 0.1178
1 7 28 -5.8557 0.0016
1 7 29 -3.9689 0.1715
1 7 30 5.6307 0.1105
1 7 31 6.2684 -0.0547
1 7 32 12.9924 -0.2853
1 7 33 4.6982 -0.4580
1 8 0 -28.7215 0.0422
1 8 1 -3.4985 0.2521
1 8 2 -0.2594 -0.0053
1 8 3 -23.4785 0.1378
1 8 4 11.8761 0.0557
1 8 5 -1.1346 0.1293
1 8 6 5.3221 -0.0106
1 8 7 -10.9457 0.1412
1 8 8 -1.7752 -0.0350
1 8 9 -4.1232 0.1226
1 8 10 -0.1365 0.0917
1 8 11 -14.2615 -0.0179
1 8 12 16.6694 0.1785
1 8 13 2.1326 -0.0805
1 8 14 1.6954 0.1483
1 8 15 -12.5688 -0.0264
1 8 16 2.6718 -0.0205
1 8 17 15.6761 0.0053
1 8 18 -9.5641 -0.1986
1 8 19 -4.1703 0.0343
1 8 20 9.4032 -0.1974
1 8 21 -3.6098 -0.0329
1 8 22 -9.1434 -0.0374
1 8 23 8.4172 0.0018
1 8 24 11.4377 0.0228
1 8 25 9.9414 0.0307
1 8 26 -7.6046 -0.0046
1 8 27 -7.1169 -0.0556
1 8 28 4.0892 0.0079
1 8 29 0.3431 0.0024
1 8 30 -11.3963 0.0972
1 8 31 -2.6368 -0.0446
1 8 32 6.0988 -0.3089
1 9 0 -15.2255 0.0443
1 9 1 -17.3183 0.1116
1 9 2 46.0559 0.0605
1 9 3 23.2682 0.2556
1 9 4 -17.4194 0.0475
1 9 5 -34.6955 0.2461
1 9 6 41.4238 0.1658
1 9 7 20.0748 -0.1130
1 9 8 -3.2364 0.1155
1 9 9 -24.8998 -0.2577
1 9 10 13.3725 -0.0229
1 9 11 9.1960 -0.0454
1 9 12 -6.3213 -0.0925
1 9 13 -22.6439 0.0553
1 9 14 16.6337 -0.0502
1 9 15 17.7497 -0.0258
1 9 16 -13.1787 -0.0254
1 9 17 -17.5497 -0.0252
1 9 18 2.7920 -0.0515
1 9 19 11.2225 0.0134
1 9 20 -11.1307 -0.0216
1 9 21 -12.7587 0.0012
1 9 22 4.7468 0.0053
1 9 23 6.7507 0.0656
1 9 24 -9.8137 0.0046
1 9 25 -2.4156 0.0094
1 9 26 2.5544 -0.0573
1 9 27 6.9104 -0.0647
1 9 28 -3.5150 0.0341
1 9 29 -0.5244 0.0195
1 9 30 -7.4045 0.1281
1 9 31 4.0863 -0.2430
1 9 32 4.7817 -0.1027
1 10 0 -10.4251 0.0460
1 10 1 5.6751 0.0288
1 10 2 5.3901 0.0487
1 10 3 21.2574 -0.0710
1 10 4 -1.7776 -0.0201
1 10 5 1.5031 0.0895
1 10 6 5.1143 -0.0509
1 10 7 -17.7983 0.0021
1 10 8 8.6070 -0.0324
1 10 9 28.3836 -0.2209
1 10 10 2.2278 -0.0204
1 10 11 8.5653 -0.2199
1 10 12 9.4262 -0.1409
1 10 13 5.8088 0.0302
1 10 14 1.3767 -0.1534
1 10 15 -5.4482 0.2008
1 10 16 9.2448 0.0568
1 10 17 10.9649 0.1016
1 10 18 -4.0793 0.1640
1 10 19 -5.3242 -0.0844
1 10 20 0.7399 -0.0484
1 10 21 13.1700 -0.0908
1 10 22 -0.4777 -0.1331
1 10 23 -6.2827 0.0167
1 10 24 5.5792 -0.0114
1 10 25 9.5364 0.1218
1 10 26 -3.6523 0.0102
1 10 27 -9.4056 0.0196
1 10 28 -0.1068 0.0166
1 10 29 1.9192 -0.1036
1 10 30 -5.8642 -0.1577
1 10 31 8.7758 0.2008
1 11 0 -9.5330 0.0214
1 11 1 -18.9157 -0.0516
1 11 2 -26.5043 -0.0714
1 11 3 29.0480 -0.2001
1 11 4 -16.6634 -0.1109
1 11 5 -13.5421 -0.0823
1 11 6 -8.4809 -0.0384
1 11 7 5.5855 0.0197
1 11 8 -2.7148 -0.0767
1 11 9 -19.5184 0.0026
1 11 10 -21.3128 -0.0492
1 11 11 22.0420 0.0496
1 11 12 7.2583 0.0337
1 11 13 -24.9088 -0.0126
1 11 14 -2.5751 0.0112
1 11 15 3.1814 0.0486
1 11 16 4.4803 -0.0780
1 11 17 -18.6340 0.1209
1 11 18 -4.1921 -0.0319
1 11 19 6.9748 0.0330
1 11 20 2.6207 0.1328
1 11 21 -11.3385 -0.0460
1 11 22 -6.2660 0.0611
1 11 23 9.2841 0.0434
1 11 24 0.7876 -0.0153
1 11 25 0.4350 0.0379
1 11 26 6.3993 0.0493
1 11 27 7.6446 0.1221
1 11 28 -4.5784 -0.0007
1 11 29 -1.8272 0.3552
1 11 30 7.0246 0.1932
1 11 31 8.3232 -0.2355
1 12 0 0.0925 0.1041
1 12 1 6.0151 0.0361
1 12 2 -2.4766 -0.0797
1 12 3 4.2115 0.0108
1 12 4 -8.2010 -0.0974
1 12 5 10.5617 0.0757
1 12 6 -4.9216 -0.0099
1 12 7 -4.8216 0.0307
1 12 8 10.4933 -0.0584
1 12 9 -5.1429 0.0289
1 12 10 -2.1103 -0.0146
1 12 11 -4.5318 0.0410
1 12 12 -1.3273 0.0438
1 12 13 -3.7136 -0.0324
1 12 14 8.6073 0.0436
1 12 15 -11.6112 -0.0989
1 12 16 8.4599 0.0110
1 12 17 2.7498 -0.0645
1 12 18 9.6098 -0.0291
1 12 19 -4.9480 0.0657
1 12 20 2.7371 -0.0871
1 12 21 4.4897 0.0327
1 12 22 2.4939 -0.0284
1 12 23 -8.9425 -0.0482
1 12 24 -2.3707 0.0055
1 12 25 3.9957 0.0163
1 12 26 -7.2432 0.0840
1 12 27 -0.4614 -0.0090
1 12 28 -0.6224 0.1816
1 12 29 -1.1821 0.1759
1 12 30 -0.5824 -0.4729
1 13 0 10.1249 0.0257
1 13 1 -7.6647 0.1095
1 13 2 -6.5958 -0.0551
1 13 3 9.0111 0.0898
1 13 4 12.1944 -0.0971
1 13 5 -1.5229 0.1191
1 13 6 4.9639 -0.0683
1 13 7 3.8756 -0.0705
1 13 8 12.6023 -0.0242
1 13 9 -11.4506 -0.1880
1 13 10 6.7771 0.0045
1 13 11 2.9842 -0.0281
1 13 12 7.2388 0.0954
1 13 13 -5.4009 0.0392
1 13 14 3.2427 0.0021
1 13 15 4.6541 -0.0029
1 13 16 13.3254 -0.0169
1 13 17 -8.0026 -0.0608
1 13 18 3.4291 -0.0201
1 13 19 2.0241 -0.0021
1 13 20 6.7194 0.0048
1 13 21 -5.8958 0.0785
1 13 22 -8.9977 -0.0116
1 13 23 6.6968 0.0852
1 13 24 8.9245 0.0182
1 13 25 -0.6931 0.0496
1 13 26 -7.3437 0.0617
1 13 27 -2.4876 0.1678
1 13 28 5.3429 0.1613
1 13 29 -2.7932 -0.1048
1 14 0 6.3466 0.0230
1 14 1 0.7703 0.0066
1 14 2 3.0479 -0.1457
1 14 3 1.3292 -0.0489
1 14 4 -4.8482 -0.0348
1 14 5 -7.7217 0.0917
1 14 6 3.7296 0.0916
1 14 7 -2.4501 0.0137
1 14 8 -1.5448 0.0187
1 14 9 -13.2808 -0.1430
1 14 10 5.3072 0.0773
1 14 11 -9.6246 -0.0380
1 14 12 -5.9433 0.0780
1 14 13 -1.6597 0.1020
1 14 14 0.5581 -0.0561
1 14 15 -6.7598 0.1154
1 14 16 -7.7355 -0.0470
1 14 17 5.9846 0.0515
1 14 18 7.9430 0.0526
1 14 19 -8.1971 -0.0564
1 14 20 -5.4351 -0.0046
1 14 21 0.6438 -0.1008
1 14 22 3.6505 -0.0933
1 14 23 -4.4420 -0.0581
1 14 24 -5.9755 0.0469
1 14 25 5.1091 -0.0871
1 14 26 6.8085 0.0001
1 14 27 -5.3660 0.0388
1 14 28 0.5663 -0.5746
1 15 0 3.8607 -0.1061
1 15 1 -4.7568 -0.0067
1 15 2 -21.8673 -0.0779
1 15 3 -0.4657 -0.0670
1 15 4 1.1828 -0.0290
1 15 5 -2.0664 0.0513
1 15 6 5.7717 0.0357
1 15 7 7.2208 -0.0241
1 15 8 -2.1511 0.0208
1 15 9 -4.5850 0.0582
1 15 10 -3.8674 0.0740
1 15 11 0.1525 0.1378
1 15 12 -0.8146 0.0739
1 15 13 -5.0653 0.0619
1 15 14 -13.1367 -0.0190
1 15 15 5.9130 -0.0872
1 15 16 7.9203 0.0046
1 15 17 -6.3755 0.0223
1 15 18 -9.0819 -0.0048
1 15 19 3.6751 0.0205
1 15 20 10.0612 0.0028
1 15 21 3.1226 -0.1487
1 15 22 -10.6553 0.0135
1 15 23 1.8813 0.0501
1 15 24 5.6066 -0.0673
1 15 25 -3.0832 0.1101
1 15 26 -1.9364 -0.0796
1 15 27 -10.8788 -0.2709
1 16 0 -0.9958 -0.0120
1 16 1 8.1162 0.0655
1 16 2 -4.4229 -0.0406
1 16 3 7.4513 0.0072
1 16 4 -7.4704 0.0578
1 16 5 2.0347 0.0839
1 16 6 0.4306 0.0857
1 16 7 21.5674 0.0433
1 16 8 2.2047 -0.0213
1 16 9 0.1550 0.0828
1 16 10 7.8963 -0.0503
1 16 11 5.0297 0.0908
1 16 12 -3.7777 0.0523
1 16 13 -1.1117 -0.0161
1 16 14 -0.4565 0.0395
1 16 15 3.5985 -0.1179
1 16 16 -4.9782 0.0225
1 16 17 8.5327 -0.0946
1 16 18 -0.9686 0.0695
1 16 19 -4.4863 0.0479
1 16 20 -10.4870 -0.1193
1 16 21 -1.1875 0.1324
1 16 22 11.1104 0.1239
1 16 23 6.5561 0.0666
1 16 24 0.6451 0.3167
1 16 25 -0.5219 0.0850
1 16 26 3.3802 -0.7180
1 17 0 -8.5100 -0.0136
1 17 1 7.9607 -0.0181
1 17 2 4.0028 0.0607
1 17 3 -6.0211 0.0570
1 17 4 -6.1635 0.0988
1 17 5 1.1636 -0.0257
1 17 6 -19.2916 0.0042
1 17 7 -1.7364 -0.1176
1 17 8 3.9043 -0.1168
1 17 9 8.0565 -0.0288
1 17 10 -6.1664 -0.0199
1 17 11 0.4902 0.0274
1 17 12 9.0945 -0.0365
1 17 13 3.7999 -0.0761
1 17 14 4.2533 0.0074
1 17 15 -7.7045 -0.0919
1 17 16 1.8300 0.0031
1 17 17 10.5071 0.1008
1 17 18 -6.8172 0.0339
1 17 19 11.0600 0.0834
1 17 20 1.2447 0.0401
1 17 21 -7.7400 -0.1321
1 17 22 -4.3019 -0.1261
1 17 23 3.6917 0.0008
1 17 24 -0.0422 -0.1494
1 18 0 6.1882 -0.0914
1 18 1 3.2194 -0.2133
1 18 2 7.0050 -0.0215
1 18 3 14.4120 -0.0617
1 18 4 1.0736 0.0098
1 18 5 6.3664 0.1001
1 18 6 -0.2918 -0.0157
1 18 7 -1.0917 -0.0253
1 18 8 -1.3021 -0.0156
1 18 9 -8.6912 -0.0137
1 18 10 -1.4278 -0.0240
1 18 11 5.5124 -0.0879
1 18 12 -8.4108 -0.0455
1 18 13 -3.8566 0.0388
1 18 14 11.2994 -0.0541
1 18 15 1.3664 0.0929
1 18 16 -6.9030 0.0094
1 18 17 -5.8723 0.0212
1 18 18 -3.0551 0.0367
1 18 19 1.2538 0.1816
1 18 20 3.0244 -0.0675
1 18 21 7.3593 -0.0353
1 18 22 -0.9637 0.1030
1 18 23 1.9615 0.2383
1 19 0 -6.2040 -0.0650
1 19 1 12.6216 -0.0458
1 19 2 -0.8081 -0.1042
1 19 3 -14.5430 -0.0773
1 19 4 -1.8033 0.0738
1 19 5 4.4119 -0.0340
1 19 6 -12.7974 0.0179
1 19 7 -10.7732 0.0353
1 19 8 6.2842 0.0096
1 19 9 7.4903 0.1185
1 19 10 -3.7628 0.0186
1 19 11 1.8472 -0.0248
1 19 12 3.5109 -0.1281
1 19 13 -0.8335 -0.0764
1 19 14 -3.6798 -0.2456
1 19 15 4.1965 -0.0060
1 19 16 6.8390 -0.1136
1 19 17 0.5250 0.0006
1 19 18 -0.1955 -0.0269
1 19 19 1.2837 -0.1268
1 19 20 -5.4743 -0.2959
1 19 21 -4.0559 -0.2782
1 20 0 5.4800 0.0040
1 20 1 -1.3903 -0.0313
1 20 2 -4.7296 -0.0906
1 20 3 2.6995 0.0150
1 20 4 11.6773 -0.0143
1 20 5 6.5182 -0.0874
1 20 6 1.5361 -0.0164
1 20 7 2.0679 -0.1655
1 20 8 -3.1739 0.0202
1 20 9 -11.3976 0.1393
1 20 10 -0.8819 -0.0299
1 20 11 12.5289 0.1221
1 20 12 1.3687 -0.1160
1 20 13 -1.3132 0.0404
1 20 14 -15.6170 0.1270
1 20 15 -2.0886 -0.0491
1 20 16 2.4764 0.1780
1 20 17 -4.9080 -0.0481
1 20 18 -8.4125 -0.0614
1 20 19 2.3701 -0.2395
1 21 0 0.7580 0.1451
1 21 1 4.3537 0.1272
1 21 2 -3.3320 0.1250
1 21 3 -12.1368 0.1900
1 21 4 5.9763 0.0054
1 21 5 2.1530 0.2015
1 21 6 -3.6142 0.0715
1 21 7 -1.0198 -0.0226
1 21 8 8.2478 0.0645
1 21 9 3.6459 0.1031
1 21 10 -3.4153 0.0155
1 21 11 -1.8325 0.0640
1 21 12 -2.4400 -0.1737
1 21 13 16.4243 0.3570
1 21 14 -0.1880 0.2861
1 21 15 3.3933 0.1261
1 21 17 11.0288 -0.3680
1 22 0 7.3342 0.0282
1 22 1 1.3790 0.0882
1 22 2 5.2071 0.3012
1 22 3 -0.5482 -0.1007
1 22 4 1.8638 0.4038
1 22 5 -5.4933 -0.0541
1 22 6 2.1105 -0.1019
1 22 7 1.3096 0.0745
1 22 8 -1.8140 -0.1001
1 22 9 0.3028 0.2524
1 22 10 -1.2949 0.0101
1 22 11 0.9780 -0.1222
1 22 12 4.6114 -0.2822
1 23 4 5.7483 0.0159
1 23 5 5.1006 -0.2369
1 23 6 -3.2104 0.2951
1 23 7 -14.2915 0.2465
1 23 8 -8.1643 -0.0359
1 23 9 6.6716 -0.0667
2 0 0 93.5010 -0.6926
2 0 2 7.8707 0.6453
2 0 4 -65.2333 -1.1959
2 0 6 68.9761 -1.8619
2 0 8 -25.2717 -0.7034
2 0 10 -19.7211 1.1663
2 0 12 -61.0332 1.6523
2 0 14 10.5839 0.3002
2 0 16 -22.4056 -0.9360
2 0 18 15.1595 -0.5743
2 0 20 -15.9276 0.4139
2 0 22 12.2453 0.3373
2 0 24 -7.6298 -0.4822
2 0 26 -1.3453 -0.6390
2 0 28 -2.3154 0.1655
2 0 30 7.8733 0.7072
2 0 32 7.4490 0.3464
2 1 0 -13.3377 -0.7651
2 1 1 153.6142 0.9501
2 1 2 7.7593 -0.4553
2 1 3 -101.6749 -0.0551
2 1 4 -29.8365 1.0346
2 1 5 -9.6859 0.2014
2 1 6 -8.7462 1.2401
2 1 7 4.5031 0.5510
2 1 8 -14.8153 -0.0513
2 1 9 36.2608 -0.0349
2 1 10 33.3243 -0.4034
2 1 11 -7.1195 -0.3228
2 1 12 -19.3271 0.5753
2 1 13 34.7342 -0.3261
2 1 14 -2.8138 0.5359
2 1 15 -7.7462 -0.0047
2 1 16 -9.7933 -0.6636
2 1 17 6.5983 0.0947
2 1 18 -2.6387 -1.2691
2 1 19 -5.0804 0.0085
2 1 20 -4.6029 -0.5503
2 1 21 8.4843 0.0313
2 1 22 -2.9362 0.4392
2 1 23 1.9952 0.0800
2 1 24 -2.4131 0.7298
2 1 25 -6.9914 0.0946
2 1 26 -0.4201 0.1523
2 1 27 4.4042 -0.0056
2 1 28 -4.2333 -0.2715
2 1 29 -3.1196 -0.0182
2 1 30 -0.9540 -0.1122
2 1 31 -5.8132 0.0554
2 1 32 3.4127 0.1300
2 1 33 -0.9620 -0.1513
2 2 0 52.3485 0.3033
2 2 1 -13.5742 0.0930
2 2 2 93.8991 0.2706
2 2 3 30.1553 0.0839
2 2 4 -86.8609 0.7376
2 2 5 -0.8862 0.1147
2 2 6 57.7654 0.8978
2 2 7 25.2954 0.1621
2 2 8 -39.5322 0.1368
2 2 9 -31.7572 0.2225
2 2 10 38.1260 -0.5175
2 2 11 10.1506 0.1935
2 2 12 -6.3572 -0.7523
2 2 13 6.7052 -0.0774
2 2 14 3.6925 -0.4746
2 2 15 17.5211 -0.2021
2 2 16 -15.0537 0.0571
2 2 17 -10.8401 0.0070
2 2 18 20.3217 0.2515
2 2 19 9.4115 0.1820
2 2 20 -11.2776 0.1542
2 2 21 6.8274 0.1159
2 2 22 0.5599 0.1237
2 2 23 4.0536 -0.0535
2 2 24 0.0760 0.2122
2 2 25 -3.2513 -0.0183
2 2 26 5.5481 0.1611
2 2 27 6.7469 0.0886
2 2 28 1.5119 -0.0923
2 2 29 -0.3476 0.1166
2 2 30 -1.5497 -0.2478
2 2 31 0.4580 -0.0619
2 2 32 3.2108 -0.1571
2 2 33 -8.3047 0.0265
2 2 34 5.7616 -0.2241
2 3 0 38.9368 1.1564
2 3 1 -16.3723 -0.2343
2 3 2 19.7562 0.0842
2 3 3 -69.8290 -0.4680
2 3 4 -63.8769 -0.8096
2 3 5 6.1945 0.1394
2 3 6 6.5605 -0.6022
2 3 7 24.9660 0.3616
2 3 8 -15.5390 -0.1280
2 3 9 14.5912 -0.0863
2 3 10 0.3609 -0.1346
2 3 11 -17.4710 -0.3387
2 3 12 -18.3917 -0.2886
2 3 13 6.5663 -0.2261
2 3 14 8.5561 -0.2001
2 3 15 -9.1822 0.0532
2 3 16 -17.8002 0.2352
2 3 17 4.5455 0.0932
2 3 18 -1.2647 0.4124
2 3 19 -8.7483 -0.0574
2 3 20 -0.0135 0.1498
2 3 21 0.3605 -0.0672
2 3 22 -1.8779 -0.1489
2 3 23 -3.9017 0.0783
2 3 24 -3.0876 -0.1866
2 3 25 -3.8150 0.0927
2 3 26 0.0114 -0.1025
2 3 27 1.0121 -0.0448
2 3 28 1.3040 -0.0306
2 3 29 1.4990 -0.1448
2 3 30 -3.1180 -0.0180
2 3 31 -7.0439 -0.1623
2 3 32 -3.5680 0.0036
2 3 33 2.1514 -0.0771
2 3 34 0.6045 0.2210
2 4 0 -17.2910 -0.0502
2 4 1 -110.1309 -0.1984
2 4 2 5.9716 0.0916
2 4 3 6.8931 -0.3671
2 4 4 -2.3221 -0.3074
2 4 5 10.3889 -0.0670
2 4 6 13.3713 -0.5734
2 4 7 26.7628 -0.0048
2 4 8 -60.8899 -0.3121
2 4 9 -17.5004 -0.0409
2 4 10 3.6958 0.4745
2 4 11 42.9660 0.0238
2 4 12 -21.2104 0.5672
2 4 13 -18.3894 -0.0369
2 4 14 4.9078 0.0093
2 4 15 23.4436 -0.0657
2 4 16 -8.7146 -0.2903
2 4 17 -15.0163 0.1372
2 4 18 7.0941 -0.0437
2 4 19 21.1250 0.1809
2 4 20 3.4983 0.2045
2 4 21 -9.2600 0.0220
2 4 22 3.7295 0.1609
2 4 23 10.2900 -0.0513
2 4 24 5.3867 -0.1595
2 4 25 -7.0503 -0.0446
2 4 26 -0.2534 -0.2689
2 4 27 7.6177 0.0120
2 4 28 -6.0077 0.0377
2 4 29 -2.3874 0.0954
2 4 30 3.9308 0.2035
2 4 31 9.0370 -0.0234
2 4 32 10.3640 0.0686
2 4 33 -8.9962 0.1195
2 5 0 27.7678 -0.2121
2 5 1 -25.7080 0.1981
2 5 2 11.0446 -0.1290
2 5 3 41.3242 0.0938
2 5 4 27.4174 0.0888
2 5 5 7.0897 0.0397
2 5 6 43.6122 0.1676
2 5 7 15.8362 0.0017
2 5 8 -13.4525 -0.0295
2 5 9 44.7407 -0.0017
2 5 10 4.7539 -0.0581
2 5 11 -19.6245 -0.0512
2 5 12 7.8749 0.0551
2 5 13 19.2176 -0.1304
2 5 14 -11.2191 0.0615
2 5 15 -17.4615 -0.0048
2 5 16 -1.8676 -0.0173
2 5 17 8.6183 0.1177
2 5 18 -1.4697 -0.0976
2 5 19 -2.0452 0.1003
2 5 20 -3.3441 -0.1151
2 5 21 5.8350 0.0133
2 5 22 -0.3870 0.0193
2 5 23 -9.2199 -0.0032
2 5 24 -10.8085 0.1895
2 5 25 3.0383 -0.0384
2 5 26 6.3826 -0.0121
2 5 27 -1.2100 -0.0068
2 5 28 -2.2662 -0.1150
2 5 29 -1.7961 -0.0036
2 5 30 -9.0270 -0.0205
2 5 31 1.6021 0.0054
2 5 32 1.6943 -0.1090
2 5 33 -5.6773 -0.1951
2 6 0 12.2465 0.0810
2 6 1 -60.1226 -0.1121
2 6 2 8.0684 -0.2497
2 6 3 4.1094 0.2137
2 6 4 13.3742 -0.0367
2 6 5 -62.7465 0.2242
2 6 6 -13.2373 0.3854
2 6 7 6.6927 -0.1592
2 6 8 -5.0821 0.1457
2 6 9 -21.7155 -0.2738
2 6 10 -10.2488 -0.1808
2 6 11 30.5872 0.0391
2 6 12 19.1071 -0.2643
2 6 13 -31.1290 0.1599
2 6 14 -3.4782 -0.0128
2 6 15 30.4075 0.0393
2 6 16 5.3114 0.0437
2 6 17 -0.0354 0.0388
2 6 18 -10.1236 0.0641
2 6 19 -8.8874 0.0860
2 6 20 4.5368 0.0600
2 6 21 1.6327 -0.0289
2 6 22 -0.9987 0.0228
2 6 23 14.6085 0.0198
2 6 24 0.2813 0.0532
2 6 25 -12.5208 -0.0198
2 6 26 0.7672 0.0795
2 6 27 6.1383 -0.1370
2 6 28 -2.6011 0.0518
2 6 29 -0.2589 0.0217
2 6 30 -0.9826 0.0026
2 6 31 9.9377 -0.0855
2 6 32 -1.5149 0.0304
2 6 33 -3.9634 0.4215
2 7 0 -6.5224 0.1538
2 7 1 -7.3887 -0.4616
2 7 2 15.6648 -0.1013
2 7 3 -11.9590 -0.3450
2 7 4 -10.2500 -0.1040
2 7 5 -0.3821 0.0648
2 7 6 29.3294 -0.0767
2 7 7 -14.2933 0.1974
2 7 8 -8.8782 -0.0134
2 7 9 12.2878 0.0726
2 7 10 -13.1430 0.0879
2 7 11 -14.4963 -0.0364
2 7 12 -24.3243 -0.0909
2 7 13 15.2704 0.0235
2 7 14 7.8095 -0.2071
2 7 15 -18.5167 0.1093
2 7 16 -10.5364 0.1070
2 7 17 30.0065 0.0446
2 7 18 3.6137 0.3404
2 7 19 -13.2516 -0.0066
2 7 20 -2.7417 0.0925
2 7 21 2.8218 -0.0988
2 7 22 1.1054 -0.2119
2 7 23 -4.1407 -0.1216
2 7 24 4.7555 -0.1506
2 7 25 7.7673 0.0217
2 7 26 1.9014 -0.0618
2 7 27 3.2967 0.1261
2 7 28 -3.1278 0.1038
2 7 29 -3.0977 0.0339
2 7 30 -4.0659 0.0052
2 7 31 4.5074 -0.0579
2 7 32 4.9332 0.0493
2 8 0 23.8771 0.1061
2 8 1 5.6244 0.0134
2 8 2 -26.8246 -0.1241
2 8 3 22.8255 -0.0896
2 8 4 14.7412 -0.0132
2 8 5 -34.1778 0.1408
2 8 6 -6.4088 -0.1093
2 8 7 30.2517 0.2877
2 8 8 13.8323 -0.0461
2 8 9 -9.4455 0.1549
2 8 10 -7.9087 0.1819
2 8 11 26.4916 -0.0002
2 8 12 3.6565 0.2125
2 8 13 -14.8012 -0.1002
2 8 14 -14.7087 0.1197
2 8 15 13.8196 -0.0098
2 8 16 14.6390 -0.1074
2 8 17 -10.5227 0.0156
2 8 18 -9.8357 -0.1221
2 8 19 18.3771 -0.0167
2 8 20 12.1541 -0.0183
2 8 21 -12.2007 -0.0583
2 8 22 -6.5118 -0.0441
2 8 23 -2.2385 -0.0274
2 8 24 3.0686 -0.1167
2 8 25 -7.8781 -0.0195
2 8 26 -6.8873 -0.1431
2 8 27 -1.6031 0.0121
2 8 28 1.1617 -0.0004
2 8 29 6.2115 -0.0312
2 8 30 -2.8531 0.1470
2 8 31 -4.9512 -0.1578
2 8 32 5.2049 -0.3610
2 9 0 -6.5925 0.1064
2 9 1 -15.1738 0.2006
2 9 2 -1.1705 -0.1438
2 9 3 25.1155 0.2717
2 9 4 0.9680 0.1238
2 9 5 -16.8364 0.1634
2 9 6 -0.0564 0.1709
2 9 7 -31.3802 -0.0828
2 9 8 -6.4133 0.0267
2 9 9 -15.6827 -0.0253
2 9 10 13.8718 0.0592
2 9 11 -8.3888 0.0671
2 9 12 -2.2035 0.0820
2 9 13 -4.8236 -0.0514
2 9 14 1.7884 0.0209
2 9 15 -5.3591 -0.1390
2 9 16 -12.4056 -0.0702
2 9 17 -6.9369 0.0140
2 9 18 6.8203 -0.1401
2 9 19 -7.4017 0.1030
2 9 20 3.2641 -0.0352
2 9 21 5.6944 0.0252
2 9 22 -6.0052 0.0314
2 9 23 1.2468 -0.0624
2 9 24 -0.2940 -0.0015
2 9 25 -1.5736 -0.0846
2 9 26 3.6799 -0.0121
2 9 27 2.5036 0.0506
2 9 28 3.9832 0.1518
2 9 29 1.6209 0.1780
2 9 30 4.1772 -0.1031
2 9 31 -3.0023 -0.3611
2 10 0 39.2782 0.0898
2 10 1 -31.0395 0.1160
2 10 2 -29.3916 0.0497
2 10 3 -2.0148 0.1371
2 10 4 28.5537 0.0287
2 10 5 2.2316 0.2496
2 10 6 -3.7737 0.0152
2 10 7 -12.2919 -0.1451
2 10 8 35.5624 0.0745
2 10 9 -16.3566 -0.2860
2 10 10 8.4046 -0.0385
2 10 11 -7.0353 -0.0927
2 10 12 29.2032 -0.2036
2 10 13 9.7607 0.0878
2 10 14 -14.2336 -0.0987
2 10 15 9.1036 0.0540
2 10 16 25.0839 0.0878
2 10 17 -2.1884 -0.0578
2 10 18 -16.9182 0.0286
2 10 19 2.4255 -0.0552
2 10 20 16.8189 -0.1370
2 10 21 -6.9008 -0.0372
2 10 22 -12.5905 -0.0473
2 10 23 11.6664 0.0499
2 10 24 -0.6407 0.0206
2 10 25 1.5163 0.0751
2 10 26 -3.6187 -0.0087
2 10 27 -5.9607 -0.0674
2 10 28 -2.5773 0.0632
2 10 29 9.7940 -0.1377
2 10 30 4.2456 -0.5207
2 10 31 -7.9083 -0.0304
2 11 0 -3.5030 -0.0391
2 11 1 -1.3141 -0.0725
2 11 2 31.6717 -0.1096
2 11 3 -2.0790 -0.1556
2 11 4 12.9710 0.0397
2 11 5 -15.0284 -0.0023
2 11 6 -8.7055 -0.0041
2 11 7 20.7133 -0.0141
2 11 8 3.0497 -0.1175
2 11 9 -14.7355 -0.1059
2 11 10 20.2695 -0.0415
2 11 11 -1.3601 -0.0538
2 11 12 -2.7684 0.0072
2 11 13 1.7523 0.0744
2 11 14 -4.0432 -0.0685
2 11 15 2.1315 0.1360
2 11 16 -13.9878 -0.0711
2 11 17 -3.6458 0.1424
2 11 18 9.1137 0.1356
2 11 19 3.1847 -0.0497
2 11 20 -6.8694 0.1165
2 11 21 3.2534 0.0163
2 11 22 2.0492 -0.0316
2 11 23 6.2020 0.0629
2 11 24 1.0439 -0.0062
2 11 25 -6.1373 0.0126
2 11 26 -1.2739 0.0238
2 11 27 -2.7497 0.1168
2 11 28 -8.9482 0.1892
2 11 29 2.5010 0.0016
2 11 30 0.1808 0.2342
2 12 0 0.2770 0.0350
2 12 1 25.3395 0.0075
2 12 2 -3.5008 0.0053
2 12 3 -16.2039 -0.0927
2 12 4 10.6510 -0.0041
2 12 5 13.8755 -0.0585
2 12 6 -15.5806 0.0004
2 12 7 7.5498 -0.0093
2 12 8 0.7939 -0.0553
2 12 9 12.0111 0.1389
2 12 10 -6.3385 -0.0086
2 12 11 -1.1609 0.1021
2 12 12 7.0387 0.0201
2 12 13 3.1744 -0.0532
2 12 14 -14.7212 0.0543
2 12 15 -5.4625 -0.0875
2 12 16 -0.6885 0.0242
2 12 17 5.7861 0.0777
2 12 18 -5.7056 -0.0217
2 12 19 -16.8977 0.0548
2 12 20 1.2152 -0.0408
2 12 21 2.1469 -0.1236
2 12 22 -2.4726 0.0086
2 12 23 -1.1983 0.0038
2 12 24 5.7567 -0.0377
2 12 25 7.3460 0.0594
2 12 26 0.7276 0.0845
2 12 27 -11.3678 -0.1732
2 12 28 5.0488 -0.2239
2 12 29 9.1345 0.1988
2 13 0 -13.7405 0.0337
2 13 1 -3.3908 0.0233
2 13 2 -13.2637 -0.0575
2 13 3 -1.9294 0.0886
2 13 4 -1.5405 -0.0205
2 13 5 -10.3044 -0.0027
2 13 6 -16.5379 -0.0571
2 13 7 9.8660 -0.1255
2 13 8 -13.1928 -0.0361
2 13 9 4.8800 -0.0376
2 13 10 -0.4468 -0.0433
2 13 11 0.2568 0.0680
2 13 12 -7.4327 -0.0169
2 13 13 -14.7859 -0.0594
2 13 14 5.4524 0.0425
2 13 15 1.4574 -0.1817
2 13 16 -11.1511 0.0291
2 13 17 7.4532 -0.0740
2 13 18 16.3041 -0.0211
2 13 19 3.7151 0.0595
2 13 20 -1.0747 -0.1180
2 13 21 -9.6548 0.1741
2 13 22 8.9559 0.0712
2 13 23 2.8615 0.0758
2 13 24 7.6751 0.0398
2 13 25 -0.3370 -0.0390
2 13 26 0.0028 -0.1122
2 13 27 -0.3759 -0.1079
2 13 28 -2.6377 0.2968
2 14 0 6.0282 0.0056
2 14 1 27.1101 0.0499
2 14 2 -0.3928 0.0133
2 14 3 -6.0570 0.0964
2 14 4 15.1921 0.0406
2 14 5 1.8019 0.0054
2 14 6 -0.2725 -0.0813
2 14 7 -0.3014 -0.1203
2 14 8 6.3184 -0.0504
2 14 9 2.3677 -0.1049
2 14 10 2.1201 0.0398
2 14 11 2.4614 -0.0325
2 14 12 8.5446 0.0076
2 14 13 6.1567 0.0401
2 14 14 2.6406 -0.0424
2 14 15 -5.4134 0.1045
2 14 16 12.1855 0.0153
2 14 17 11.1877 -0.0188
2 14 18 -6.1513 0.0627
2 14 19 -8.6864 -0.1117
2 14 20 3.7586 -0.0467
2 14 21 -4.9287 0.0573
2 14 22 -1.6826 0.0210
2 14 23 -3.7719 0.0873
2 14 24 1.8855 -0.0182
2 14 25 1.4963 -0.1715
2 14 26 1.8404 -0.1999
2 14 27 -4.7990 0.3080
2 15 0 -2.2273 -0.0902
2 15 1 -2.0720 -0.1118
2 15 2 -5.2514 -0.1365
2 15 3 -12.6075 -0.0324
2 15 4 2.5357 -0.0254
2 15 5 -10.8491 -0.0512
2 15 6 -5.1066 -0.0406
2 15 7 1.5120 -0.0698
2 15 8 7.1528 0.0515
2 15 9 -11.2224 0.0757
2 15 10 -0.5130 0.0941
2 15 11 1.9431 0.1217
2 15 12 -2.1600 0.0328
2 15 13 -7.5998 0.0603
2 15 14 0.6172 -0.0401
2 15 15 -1.2225 0.0454
2 15 16 3.4168 -0.0409
2 15 17 -4.0202 0.0432
2 15 18 -10.7951 -0.0597
2 15 19 5.7414 -0.1343
2 15 20 5.2416 0.0697
2 15 21 -10.5888 -0.0224
2 15 22 2.1561 0.1261
2 15 23 4.2341 0.0581
2 15 24 -3.5128 -0.2322
2 15 25 -6.5358 -0.5039
2 15 26 1.7461 -0.1178
2 16 0 -1.2185 -0.0544
2 16 1 20.3568 0.0761
2 16 2 3.4996 -0.0084
2 16 3 -4.3776 0.0043
2 16 4 0.7138 0.1505
2 16 5 1.5903 0.0169
2 16 6 6.5931 0.1253
2 16 7 -10.4555 0.0634
2 16 8 0.7394 0.0422
2 16 9 0.3612 0.1942
2 16 10 -7.1540 -0.0004
2 16 11 -1.5061 0.1136
2 16 12 -3.1777 0.0067
2 16 13 2.3395 -0.0021
2 16 14 2.6675 0.0956
2 16 15 2.1742 -0.0079
2 16 16 -1.0490 0.0939
2 16 17 1.9712 -0.0238
2 16 18 1.7286 -0.1249
2 16 19 -10.9315 0.0648
2 16 20 -2.4855 -0.1123
2 16 21 3.8267 0.1279
2 16 22 2.1977 0.3416
2 16 23 -6.1496 0.0010
2 16 24 -5.6583 -0.3823
2 16 25 -2.8976 -0.0362
2 17 0 -2.1393 0.0419
2 17 1 -1.6306 0.0673
2 17 2 -5.9979 0.1225
2 17 3 3.7845 0.0445
2 17 4 3.9722 0.1008
2 17 5 6.1002 -0.0753
2 17 6 5.6443 -0.0682
2 17 7 5.0912 -0.1358
2 17 8 7.7034 -0.0899
2 17 9 -5.3828 0.0391
2 17 10 1.1950 -0.0256
2 17 11 1.6589 0.0192
2 17 12 -11.0990 0.0010
2 17 13 6.9022 -0.0900
2 17 14 -1.9927 0.0016
2 17 15 3.2702 -0.0701
2 17 16 6.7782 -0.0019
2 17 17 -2.6978 -0.0026
2 17 18 -0.8584 0.0142
2 17 19 4.1907 -0.0591
2 17 20 2.7564 0.0547
2 17 21 -2.5266 0.1469
2 17 22 18.6616 -0.0292
2 17 23 -3.7172 -0.4291
2 17 24 -2.7039 -0.1437
2 18 0 -8.8628 -0.0313
2 18 1 8.1433 -0.0763
2 18 2 5.9892 -0.0354
2 18 3 -17.2612 0.0030
2 18 4 -3.7170 0.0232
2 18 5 16.0463 -0.0516
2 18 6 -10.2263 0.0293
2 18 7 -13.5109 -0.0347
2 18 8 -0.8945 -0.0444
2 18 9 1.5535 -0.0524
2 18 10 3.1814 -0.0230
2 18 11 5.0136 -0.0390
2 18 12 -8.3889 -0.0812
2 18 13 -4.2093 -0.0600
2 18 14 5.4007 0.0624
2 18 15 11.6589 0.1048
2 18 16 -6.8519 0.0382
2 18 17 -1.8978 0.0621
2 18 18 5.5587 0.0245
2 18 19 -4.5506 0.0181
2 18 20 -0.9577 0.0872
2 18 21 -4.4454 0.0823
2 18 22 2.5278 0.0280
2 19 0 2.7761 -0.0377
2 19 1 3.0976 -0.0846
2 19 2 3.8939 0.0549
2 19 3 2.7253 -0.0531
2 19 4 -11.8085 0.0076
2 19 5 3.6749 0.0596
2 19 6 16.1994 -0.0380
2 19 7 -1.5332 0.0786
2 19 8 -0.3595 0.0166
2 19 9 7.9052 0.0398
2 19 10 -3.3182 0.1539
2 19 11 4.3911 -0.0966
2 19 12 7.3617 -0.0638
2 19 13 4.6058 -0.0478
2 19 14 -4.6222 -0.2515
2 19 15 0.3658 0.0711
2 19 16 0.0907 0.0477
2 19 17 5.1396 0.0768
2 19 18 1.9225 0.0319
2 19 19 -4.1415 0.0500
2 19 20 1.8988 -0.0532
2 20 0 21.1856 -0.0023
2 20 1 -2.9290 -0.0518
2 20 2 -7.9528 -0.0882
2 20 3 -0.8964 -0.0899
2 20 4 4.5557 0.0141
2 20 5 5.5592 -0.0708
2 20 6 -0.5175 -0.1203
2 20 7 -4.5534 0.0369
2 20 8 -15.5973 0.0520
2 20 9 -7.3012 0.0202
2 20 10 -2.0909 -0.0375
2 20 11 -4.2011 0.0595
2 20 12 -13.0182 -0.1137
2 20 13 -4.3447 -0.2067
2 20 14 11.5384 -0.0312
2 20 15 -3.4202 0.1658
2 20 16 -8.4253 -0.1594
2 20 17 -0.9965 -0.2515
2 20 18 6.9867 -0.1054
2 21 0 2.4481 -0.0010
2 21 1 -2.7928 0.1830
2 21 2 1.3812 -0.1248
2 21 3 -0.8199 0.0883
2 21 4 -6.7089 -0.2285
2 21 5 0.0751 -0.1253
2 21 6 2.8387 0.0219
2 21 7 0.4784 0.0159
2 21 8 1.3106 0.0302
2 21 9 11.6239 0.1876
2 21 10 0.9987 -0.1106
2 21 11 2.3421 0.0888
2 21 12 -0.2772 0.0254
2 21 13 0.8308 0.1136
2 21 14 -1.4381 0.3094
2 21 16 8.7285 0.2057
2 22 0 3.9022 0.0684
2 22 1 -5.9904 0.3179
2 22 2 -1.8412 0.3957
2 22 3 8.8878 -0.0717
2 22 4 1.0970 0.1875
2 22 5 1.8569 0.1780
2 22 6 10.9675 -0.1480
2 22 7 -2.9823 0.0500
2 22 8 -14.8510 0.0603
2 22 9 5.2278 0.1402
2 22 10 -2.0869 0.0034
2 22 11 -2.1293 0.3413
2 22 12 6.3156 -0.2093
2 23 0 -3.8189 0.2945
2 23 1 6.3404 0.2453
2 23 6 9.6037 0.0693
2 23 7 -5.6715 0.1926
2 23 8 0.6355 -0.3364
2 23 9 13.8396 -0.5605
3 0 0 -61.6349 2.8464
3 0 2 43.1710 -0.4770
3 0 4 -43.8052 -2.7650
3 0 6 25.1801 -1.7237
3 0 8 -40.1755 0.4642
3 0 10 41.4099 1.2567
3 0 12 17.9358 0.4724
3 0 14 6.9766 -0.5187
3 0 16 -5.2449 -0.1681
3 0 18 22.6943 0.7914
3 0 20 2.5429 0.6791
3 0 22 14.7858 -0.5060
3 0 24 7.2609 -1.0076
3 0 26 0.7738 -0.2187
3 0 28 -0.7706 0.6147
3 0 30 2.3358 0.5593
3 0 32 -0.3264 -0.2909
3 1 0 -25.2619 -0.0031
3 1 1 -34.6681 0.2764
3 1 2 -10.7187 0.0684
3 1 3 18.0574 0.2654
3 1 4 7.1257 0.1831
3 1 5 18.9086 0.3834
3 1 6 4.8807 -0.6138
3 1 7 8.6210 0.3552
3 1 8 -10.6888 -0.4993
3 1 9 -5.2346 -0.0962
3 1 10 -44.9690 0.9629
3 1 11 4.2705 -0.1993
3 1 12 0.4846 1.5523
3 1 13 -17.9250 -0.0492
3 1 14 -8.6918 0.1623
3 1 15 7.9383 -0.0946
3 1 16 -11.5366 -1.2490
3 1 17 -14.5175 -0.1426
3 1 18 -14.0084 -1.0670
3 1 19 0.0970 -0.0924
3 1 20 5.2350 -0.0544
3 1 21 -11.1931 0.0534
3 1 22 -8.2968 0.4840
3 1 23 -6.9384 0.1254
3 1 24 1.0912 0.0979
3 1 25 -6.3733 0.0994
3 1 26 -2.2649 -0.3036
3 1 27 1.1071 -0.0437
3 1 28 1.2352 -0.0260
3 1 29 -1.4916 0.0024
3 1 30 3.5413 0.3207
3 1 31 -1.1210 -0.1530
3 1 32 -5.7584 0.3995
3 1 33 3.1344 -0.5210
3 2 0 2.2535 -0.9415
3 2 1 30.1756 0.2001
3 2 2 31.8795 0.3127
3 2 3 -32.3818 0.2057
3 2 4 -49.3598 1.3126
3 2 5 -42.2558 0.1807
3 2 6 0.7092 0.9273
3 2 7 30.9921 0.2160
3 2 8 -30.2492 0.2029
3 2 9 -20.0632 0.1973
3 2 10 -19.8197 -0.2995
3 2 11 29.8702 0.0561
3 2 12 -12.5737 -0.3331
3 2 13 -14.4361 -0.0824
3 2 14 12.8206 -0.3143
3 2 15 21.5565 -0.0519
3 2 16 -9.1683 -0.2213
3 2 17 4.1248 0.0821
3 2 18 9.2875 -0.2165
3 2 19 11.1336 0.0635
3 2 20 -2.5660 -0.0327
3 2 21 -1.4936 -0.0290
3 2 22 9.6860 0.2271
3 2 23 5.6894 -0.0213
3 2 24 2.6510 0.3865
3 2 25 -1.8864 0.0653
3 2 26 0.1371 0.1861
3 2 27 -0.6758 0.1847
3 2 28 5.8847 -0.1578
3 2 29 -8.1812 0.0189
3 2 30 2.2084 -0.1471
3 2 31 8.1790 0.0329
3 2 32 3.2109 -0.0932
3 2 33 -7.7307 0.0578
3 3 0 -3.6038 0.7287
3 3 1 63.9666 -0.3528
3 3 2 7.2420 -0.1868
3 3 3 -2.1481 0.0081
3 3 4 49.4144 -0.1951
3 3 5 30.0542 0.3173
3 3 6 -7.1134 -0.0385
3 3 7 14.4643 0.2208
3 3 8 45.4721 -0.0532
3 3 9 13.6945 -0.1749
3 3 10 -14.7660 -0.4538
3 3 11 25.8445 -0.1464
3 3 12 10.9122 -0.5575
3 3 13 -2.5030 -0.0101
3 3 14 -12.3180 -0.1683
3 3 15 4.9701 -0.0107
3 3 16 0.8809 0.2783
3 3 17 0.7161 -0.0928
3 3 18 -15.6688 0.2282
3 3 19 1.9854 -0.1608
3 3 20 5.8302 0.0502
3 3 21 -11.8471 0.0351
3 3 22 -9.3446 -0.0010
3 3 23 -1.5068 0.1486
3 3 24 4.1011 -0.0564
3 3 25 1.7650 0.0912
3 3 26 2.6768 0.0305
3 3 27 4.8932 -0.1052
3 3 28 3.8301 -0.0282
3 3 29 -9.9163 -0.1265
3 3 30 -2.7963 -0.2095
3 3 31 -6.5491 -0.0972
3 3 32 0.0552 -0.0790
3 3 33 9.1625 -0.3463
3 4 0 -13.3904 0.2267
3 4 1 -93.1877 -0.5883
3 4 2 -59.7699 0.0011
3 4 3 -0.1925 -0.2465
3 4 4 -43.3311 -0.5556
3 4 5 8.6943 0.0795
3 4 6 9.1220 -0.6839
3 4 7 -4.5572 -0.0060
3 4 8 -6.4329 -0.0056
3 4 9 -6.3875 0.0058
3 4 10 -4.0247 0.4929
3 4 11 22.1495 -0.0535
3 4 12 -19.7631 0.2173
3 4 13 -0.6950 -0.0895
3 4 14 13.8777 -0.2801
3 4 15 7.8151 -0.0084
3 4 16 -4.5365 -0.0882
3 4 17 -0.4171 0.1477
3 4 18 1.3011 0.2307
3 4 19 16.3573 0.0816
3 4 20 -0.9931 0.2841
3 4 21 -1.6373 0.0231
3 4 22 1.8780 -0.0501
3 4 23 -6.9242 -0.0072
3 4 24 -1.9015 -0.2934
3 4 25 3.1607 -0.0614
3 4 26 0.5252 -0.0962
3 4 27 3.2525 0.0499
3 4 28 -7.9784 0.1324
3 4 29 -0.7157 -0.0495
3 4 30 8.6358 0.1393
3 4 31 -3.2114 -0.2095
3 4 32 -5.8611 0.1811
3 4 33 2.1141 0.1158
3 5 0 67.4877 -0.0846
3 5 1 2.9072 0.0692
3 5 2 -35.6515 -0.0515
3 5 3 23.2058 -0.1364
3 5 4 8.2014 -0.0421
3 5 5 -6.6291 -0.0450
3 5 6 -36.0242 -0.1954
3 5 7 -19.1889 0.0695
3 5 8 12.8868 -0.0031
3 5 9 -5.6214 -0.0035
3 5 10 -46.1336 0.1715
3 5 11 15.0967 -0.0880
3 5 12 10.1334 0.2170
3 5 13 -13.9653 -0.0643
3 5 14 -37.0897 0.0159
3 5 15 -4.9242 0.0175
3 5 16 22.1648 -0.0854
3 5 17 -4.3482 0.0578
3 5 18 -19.2996 -0.1450
3 5 19 -3.0253 -0.0439
3 5 20 1.3791 -0.0833
3 5 21 8.1577 0.0661
3 5 22 -5.0210 0.1965
3 5 23 -0.5022 0.1117
3 5 24 5.7165 0.0754
3 5 25 6.0313 -0.0118
3 5 26 -0.4220 -0.1410
3 5 27 -0.9340 -0.0388
3 5 28 1.8100 -0.0353
3 5 29 -0.7290 0.0166
3 5 30 -4.4104 0.0311
3 5 31 -0.0082 0.0027
3 5 32 18.4678 0.2483
3 5 33 5.8410 -0.2909
3 6 0 -7.5043 -0.1877
3 6 1 -19.1057 0.1452
3 6 2 35.5427 -0.2255
3 6 3 49.3584 0.4114
3 6 4 17.0793 0.1300
3 6 5 17.0169 0.0544
3 6 6 23.4188 0.3101
3 6 7 34.0817 -0.3058
3 6 8 10.0191 0.0193
3 6 9 -14.4307 -0.1601
3 6 10 29.3593 -0.1067
3 6 11 12.4386 0.0659
3 6 12 -5.8404 -0.0504
3 6 13 7.2392 0.0158
3 6 14 10.1354 -0.0416
3 6 15 -3.3397 -0.0678
3 6 16 -5.7140 -0.0259
3 6 17 1.9439 0.0681
3 6 18 20.2648 -0.0197
3 6 19 3.2363 0.0752
3 6 20 -8.4367 0.0671
3 6 21 -3.7426 0.1295
3 6 22 -12.0029 0.0774
3 6 23 13.5927 0.0662
3 6 24 -2.0333 0.1089
3 6 25 -5.1635 -0.1753
3 6 26 2.4899 0.0624
3 6 27 -6.3849 -0.0275
3 6 28 3.7007 -0.0108
3 6 29 -6.7493 -0.0182
3 6 30 -12.9029 0.0780
3 6 31 -4.6049 -0.1925
3 6 32 7.9874 -0.0302
3 7 0 34.8558 0.0482
3 7 1 -7.4407 -0.2398
3 7 2 -26.8278 -0.0582
3 7 3 -50.5159 -0.1319
3 7 4 7.0031 -0.1340
3 7 5 8.0632 0.0070
3 7 6 -38.0138 0.0509
3 7 7 -27.6343 -0.0770
3 7 8 21.6734 0.1806
3 7 9 -1.0010 -0.1231
3 7 10 -11.4135 -0.0936
3 7 11 -10.5307 -0.0261
3 7 12 4.2406 -0.4042
3 7 13 -10.2842 0.1337
3 7 14 0.0476 -0.1517
3 7 15 0.9192 0.1274
3 7 16 3.1824 0.3403
3 7 17 5.9493 0.0388
3 7 18 -8.5195 0.2620
3 7 19 -7.3157 -0.0247
3 7 20 8.1418 -0.0649
3 7 21 11.0764 -0.0737
3 7 22 -21.2811 -0.0700
3 7 23 7.4753 -0.0345
3 7 24 6.1534 -0.0051
3 7 25 16.7521 0.0421
3 7 26 0.2609 0.0123
3 7 27 -8.4184 -0.0296
3 7 28 9.2676 0.0858
3 7 29 2.4868 0.0336
3 7 30 -0.8696 -0.0349
3 7 31 -5.5287 -0.0599
3 7 32 -1.2560 0.2091
3 8 0 -17.3675 -0.0007
3 8 1 -40.5075 -0.2957
3 8 2 26.1205 -0.0463
3 8 3 6.6839 -0.1859
3 8 4 7.7920 -0.1602
3 8 5 -12.2717 0.0604
3 8 6 -7.2696 -0.1630
3 8 7 21.8908 0.2547
3 8 8 4.1477 0.0322
3 8 9 -9.9273 0.1473
3 8 10 7.9686 0.1655
3 8 11 13.3192 -0.0143
3 8 12 4.7779 0.0958
3 8 13 -2.0601 -0.0101
3 8 14 -4.7761 -0.0071
3 8 15 19.9881 0.0772
3 8 16 3.1351 -0.0423
3 8 17 -0.8745 -0.0302
3 8 18 -2.3889 0.0226
3 8 19 7.5177 -0.1052
3 8 20 -8.4329 0.0853
3 8 21 0.0275 -0.0048
3 8 22 -8.1406 -0.0912
3 8 23 1.2112 -0.0690
3 8 24 -5.0930 -0.2161
3 8 25 7.0529 -0.0596
3 8 26 -7.5211 -0.1403
3 8 27 -0.7474 0.0510
3 8 28 -5.7617 0.0777
3 8 29 -2.5837 -0.1462
3 8 30 5.1922 -0.0107
3 8 31 -3.3772 0.0284
3 9 0 10.0457 -0.0104
3 9 1 16.2653 0.1550
3 9 2 16.3496 -0.0494
3 9 3 -28.8453 0.0958
3 9 4 21.6538 0.0785
3 9 5 25.9361 -0.0543
3 9 6 -7.3089 0.1019
3 9 7 -3.0331 0.1064
3 9 8 -15.8837 0.0738
3 9 9 13.9157 0.2299
3 9 10 -17.3056 0.1249
3 9 11 -19.4256 0.0513
3 9 12 -6.4444 0.1091
3 9 13 12.2932 -0.1739
3 9 14 -11.2939 0.0364
3 9 15 -21.3702 -0.1044
3 9 16 -3.2092 -0.0418
3 9 17 19.8234 0.0842
3 9 18 -4.0637 -0.1195
3 9 19 -6.3292 0.1047
3 9 20 4.0857 0.0030
3 9 21 9.1304 0.0024
3 9 22 -3.5638 0.0243
3 9 23 -8.0724 -0.1838
3 9 24 -1.0908 0.0049
3 9 25 6.7740 -0.1288
3 9 26 3.6674 0.1083
3 9 27 -3.9025 0.0902
3 9 28 -2.1661 -0.0196
3 9 29 2.8293 0.0738
3 9 30 -2.6097 -0.0325
3 9 31 -1.3604 -0.2147
3 10 0 -2.6827 0.0937
3 10 1 2.8296 0.1665
3 10 2 -0.9625 0.0536
3 10 3 -5.1754 0.2935
3 10 4 28.0404 0.1209
3 10 5 -14.6944 0.0740
3 10 6 -4.8234 0.1543
3 10 7 13.7460 -0.2159
3 10 8 -0.6976 0.0962
3 10 9 -1.0161 -0.1251
3 10 10 -17.8132 -0.0795
3 10 11 1.1409 0.0655
3 10 12 13.0274 -0.1332
3 10 13 -2.2888 0.0227
3 10 14 3.7912 0.0372
3 10 15 0.9654 -0.0669
3 10 16 -3.5095 0.0946
3 10 17 -1.8674 -0.1200
3 10 18 -7.3858 -0.1309
3 10 19 6.3251 -0.0314
3 10 20 4.7987 -0.0911
3 10 21 -9.4796 0.0909
3 10 22 -5.3898 0.0341
3 10 23 -0.0579 0.0497
3 10 24 -2.4180 -0.0700
3 10 25 -3.7069 -0.0480
3 10 26 8.9773 0.0447
3 10 27 1.4812 -0.1573
3 10 28 -1.6958 0.0985
3 10 29 0.1672 -0.2756
3 10 30 3.8140 -0.4957
3 11 0 -26.5560 -0.0790
3 11 1 6.6029 -0.0740
3 11 2 -2.2011 0.0107
3 11 3 -28.4674 -0.0152
3 11 4 -11.0202 0.1294
3 11 5 -13.6661 0.0526
3 11 6 25.0262 -0.0043
3 11 7 -34.3975 -0.1018
3 11 8 -0.4769 -0.0515
3 11 9 10.7557 -0.2031
3 11 10 5.1963 -0.0159
3 11 11 -13.1189 -0.0832
3 11 12 0.8195 -0.1042
3 11 13 11.4399 0.1564
3 11 14 23.7384 -0.1499
3 11 15 -7.2323 0.1249
3 11 16 3.8998 0.0777
3 11 17 15.5341 -0.0244
3 11 18 -7.4761 0.1261
3 11 19 -1.4126 -0.0522
3 11 20 -3.1295 0.0165
3 11 21 6.6259 0.0631
3 11 22 10.2251 -0.0172
3 11 23 4.0192 -0.0303
3 11 24 -5.6256 -0.0192
3 11 25 5.8556 0.0347
3 11 26 -2.7769 -0.0349
3 11 27 -3.0055 0.2544
3 11 28 5.9649 0.1407
3 11 29 4.3901 -0.2462
3 12 0 17.0305 -0.0726
3 12 1 2.6006 -0.0491
3 12 2 -3.1211 0.0732
3 12 3 -6.8769 -0.1180
3 12 4 29.1098 0.1089
3 12 5 -1.4294 -0.0747
3 12 6 10.5909 0.0164
3 12 7 -10.9742 0.0278
3 12 8 23.5167 -0.0496
3 12 9 0.6164 0.1300
3 12 10 -0.5402 -0.0398
3 12 11 6.7760 0.0471
3 12 12 9.5072 -0.0084
3 12 13 -6.3040 -0.0703
3 12 14 3.0504 0.0222
3 12 15 -3.1891 0.0460
3 12 16 7.9799 -0.0143
3 12 17 -5.7887 0.0915
3 12 18 -15.0367 0.0152
3 12 19 10.1791 -0.1290
3 12 20 -7.5277 0.0683
3 12 21 -1.5308 -0.0895
3 12 22 -7.5213 -0.0092
3 12 23 0.7858 0.1675
3 12 24 3.8317 0.0800
3 12 25 1.8860 0.0351
3 12 26 -5.7446 0.2007
3 12 27 1.9311 -0.0078
3 12 28 -6.3315 -0.2382
3 12 29 -3.1996 -0.0913
3 13 0 4.1054 -0.0192
3 13 1 5.3047 0.0234
3 13 2 6.3298 -0.0439
3 13 3 -4.6284 0.0411
3 13 4 -15.1389 0.0326
3 13 5 11.9512 -0.1038
3 13 6 11.6612 0.0443
3 13 7 -18.0679 -0.0963
3 13 8 0.5310 -0.0487
3 13 9 0.4427 0.1035
3 13 10 -1.7558 -0.0672
3 13 11 -5.7758 0.0377
3 13 12 -16.7990 -0.0356
3 13 13 2.3076 -0.0843
3 13 14 6.2724 0.0820
3 13 15 -12.3664 -0.2165
3 13 16 -2.2590 0.0513
3 13 17 -4.0847 0.0087
3 13 18 10.8840 -0.0942
3 13 19 9.2939 0.1224
3 13 20 -19.7981 -0.0645
3 13 21 1.9413 0.0477
3 13 22 5.8955 0.0903
3 13 23 -5.4938 0.0137
3 13 24 -7.7971 -0.0366
3 13 25 5.1417 0.1700
3 13 26 1.9286 -0.0599
3 13 27 -2.7070 -0.1510
3 13 28 0.5034 0.2367
3 14 0 5.8597 0.0586
3 14 1 -6.3977 0.0543
3 14 2 -4.2086 0.1317
3 14 3 4.7456 0.1178
3 14 4 -5.7311 0.0272
3 14 5 10.3980 -0.0523
3 14 6 -4.3632 -0.0945
3 14 7 6.7299 -0.1616
3 14 8 6.6633 0.0215
3 14 9 -2.1650 -0.0928
3 14 10 2.9200 0.0030
3 14 11 3.3687 -0.0027
3 14 12 -3.6818 -0.0970
3 14 13 1.7753 0.0473
3 14 14 -6.9525 -0.0371
3 14 15 -11.6108 0.0553
3 14 16 5.8994 0.1134
3 14 17 -5.3422 -0.0691
3 14 18 2.8499 0.0685
3 14 19 4.1584 0.0095
3 14 20 12.5343 -0.2134
3 14 21 2.4650 0.1266
3 14 22 2.5800 -0.0867
3 14 23 10.4201 -0.0927
3 14 24 -0.8237 0.2979
3 14 25 -1.2574 -0.0687
3 14 26 3.6161 -0.1208
3 14 27 -0.5786 0.1678
3 15 0 10.8395 -0.0858
3 15 1 -0.4443 -0.0965
3 15 2 -4.2271 -0.1142
3 15 3 -1.9553 0.0167
3 15 4 11.5753 -0.0270
3 15 5 0.3468 -0.0876
3 15 6 -15.6052 -0.0450
3 15 7 -0.1865 -0.0579
3 15 8 4.6820 0.0241
3 15 9 -2.9923 0.0024
3 15 10 -9.0770 0.0575
3 15 11 -3.1296 -0.0366
3 15 12 3.2023 -0.0380
3 15 13 8.4864 0.0547
3 15 14 8.0169 -0.0551
3 15 15 -0.8251 0.0966
3 15 16 4.6869 -0.0966
3 15 17 -2.1048 0.0156
3 15 18 9.0448 0.0106
3 15 19 -14.5149 -0.1810
3 15 20 -1.1487 0.1007
3 15 21 2.1978 -0.0792
3 15 22 9.5867 -0.0428
3 15 23 0.2717 0.0079
3 15 24 -7.5386 -0.3390
3 15 25 1.7071 -0.4533
3 15 26 -10.3959 0.2675
3 16 0 4.1736 -0.0329
3 16 1 -14.8958 0.0154
3 16 2 0.3536 -0.1014
3 16 3 -7.0408 -0.0068
3 16 4 -2.6940 0.0008
3 16 5 -3.6813 -0.0297
3 16 6 -8.3455 0.0780
3 16 7 6.7663 0.0897
3 16 8 2.1260 0.1000
3 16 9 6.6646 0.1760
3 16 10 -1.5974 -0.0146
3 16 11 -18.5118 0.0378
3 16 12 3.5416 0.0119
3 16 13 9.6592 -0.0128
3 16 14 -6.1456 0.0913
3 16 15 -9.9331 -0.0018
3 16 16 4.1958 0.0335
3 16 17 -1.5233 0.0765
3 16 18 -2.5803 -0.1165
3 16 19 -6.6768 0.0588
3 16 20 -0.5382 0.1345
3 16 21 -2.3192 -0.0795
3 16 22 4.8346 0.3263
3 16 23 4.7566 -0.0198
3 16 24 -4.6443 -0.2963
3 17 0 -4.7761 0.0310
3 17 1 -11.3720 0.0924
3 17 2 -1.6288 -0.0033
3 17 3 9.2547 -0.0209
3 17 4 11.6063 0.0284
3 17 5 -11.6944 -0.0439
3 17 6 13.1894 -0.0320
3 17 7 6.4779 0.0912
3 17 8 -7.7794 0.0460
3 17 9 7.4529 0.1333
3 17 10 -2.1626 0.0481
3 17 11 -0.3817 -0.0174
3 17 12 0.6682 0.0602
3 17 13 -3.7952 0.0067
3 17 14 3.8638 0.0333
3 17 15 6.3111 -0.1156
3 17 16 5.5001 0.0525
3 17 17 -9.8190 -0.0525
3 17 18 0.6910 -0.0053
3 17 19 -1.0877 0.0923
3 17 20 -4.1274 -0.1448
3 17 21 2.4422 0.1450
3 17 22 -1.7445 0.1879
3 17 23 -4.8851 -0.7764
3 18 0 -1.1081 0.0103
3 18 1 0.0128 0.0982
3 18 2 6.8781 -0.0407
3 18 3 -6.1677 0.0103
3 18 4 1.0994 -0.0385
3 18 5 9.0776 -0.0197
3 18 6 5.3794 0.0047
3 18 7 -5.6498 0.0158
3 18 8 -7.2254 -0.0502
3 18 9 1.7552 -0.0741
3 18 10 -4.6206 -0.1321
3 18 11 -0.2374 -0.0721
3 18 12 7.6338 0.0060
3 18 13 -7.9396 0.0317
3 18 14 -2.1554 0.1952
3 18 15 6.3001 0.0188
3 18 16 1.3613 0.1131
3 18 17 -5.6993 -0.0082
3 18 18 10.0833 0.0239
3 18 19 -0.1076 -0.2195
3 18 20 -3.9482 0.0889
3 18 21 -0.5577 0.1184
3 19 0 -1.9018 -0.0019
3 19 1 -11.3291 -0.0318
3 19 2 4.1831 0.0430
3 19 3 13.5776 0.0317
3 19 4 -10.3233 -0.0798
3 19 5 -7.9680 0.0359
3 19 6 7.9455 -0.0531
3 19 7 11.6957 0.0206
3 19 8 -5.8857 0.0148
3 19 9 4.0520 -0.0685
3 19 10 -9.6377 0.0208
3 19 11 1.0468 -0.1366
3 19 12 3.3696 -0.0240
3 19 13 -6.6192 0.0090
3 19 14 10.3121 0.0888
3 19 15 -2.1358 -0.0324
3 19 16 -5.2969 -0.1423
3 19 17 -6.8661 0.2952
3 19 18 -0.9925 0.0468
3 19 19 11.2857 0.0014
3 19 20 4.7333 0.4840
3 20 0 -14.6642 -0.0492
3 20 1 1.0690 -0.1395
3 20 2 -3.7437 0.0202
3 20 3 2.4536 -0.1123
3 20 4 -6.9300 -0.0283
3 20 5 -7.1236 0.1244
3 20 6 -4.0187 0.0838
3 20 7 -1.6177 0.2684
3 20 8 -0.7496 -0.0369
3 20 9 9.4982 -0.1520
3 20 10 -2.6819 -0.0869
3 20 11 6.4753 -0.2538
3 20 12 8.6155 0.1859
3 20 13 4.1459 0.0448
3 20 14 3.6262 -0.1616
3 20 15 -1.6890 -0.0139
3 20 16 -5.1531 -0.2772
3 20 17 2.8862 -0.5693
3 20 18 14.2871 0.0663
3 21 0 -0.5505 -0.1228
3 21 1 12.3254 -0.0430
3 21 2 -1.5448 -0.2163
3 21 3 14.8597 -0.1056
3 21 4 6.0215 -0.0392
3 21 5 4.8583 -0.1263
3 21 6 1.1003 -0.0333
3 21 7 3.9869 0.1791
3 21 8 1.5273 -0.1912
3 21 9 -4.7961 0.0206
3 21 10 -13.7676 -0.0895
3 21 11 -7.0540 0.2077
3 21 12 4.2381 0.1844
3 21 13 -4.6101 -0.0314
3 21 14 -3.0092 0.2094
3 21 15 -8.7279 -0.3024
3 22 0 -1.5265 0.1026
3 22 1 -0.7611 0.1812
3 22 2 -9.3343 0.1376
3 22 3 3.0502 0.1664
3 22 4 -9.1825 -0.2306
3 22 5 -4.4851 -0.0005
3 22 6 -2.2652 0.0141
3 22 7 -1.9798 0.0441
3 22 8 -4.7946 0.2157
3 22 9 4.3304 0.0399
3 22 10 4.8424 -0.1508
3 22 11 1.4400 0.6705
3 22 12 10.8187 -0.2140
3 23 0 -1.4406 0.1618
3 23 1 2.8711 -0.3376
3 23 2 0.0713 0.1497
3 23 3 8.3617 -0.0148
3 23 4 6.7893 0.2796
3 23 5 2.2487 0.4198
3 23 6 -5.2949 -0.0476
3 23 8 3.2821 -0.4154
4 0 0 28.2815 3.5700
4 0 2 -78.7893 -1.7449
4 0 4 -41.2574 -2.2874
4 0 6 -1.9645 -0.3548
4 0 8 0.1143 0.8735
4 0 10 0.4541 0.1403
4 0 12 5.9805 -0.8490
4 0 14 21.9193 -0.3878
4 0 16 16.9664 1.0392
4 0 18 3.8446 1.4262
4 0 20 10.2369 0.1389
4 0 22 4.4394 -1.0230
4 0 24 10.0900 -0.6620
4 0 26 13.2968 0.4158
4 0 28 2.7977 0.5799
4 0 30 -8.6243 -0.0324
4 0 32 -0.3963 -0.5253
4 1 0 -37.9498 0.4473
4 1 1 67.6505 -0.0407
4 1 2 -9.7597 0.0069
4 1 3 90.0264 0.3378
4 1 4 -21.0113 -1.1852
4 1 5 -40.1998 0.2632
4 1 6 -20.2666 -1.6779
4 1 7 47.9293 0.0230
4 1 8 40.9008 -0.0281
4 1 9 -17.4277 0.0431
4 1 10 -6.0919 1.7808
4 1 11 22.4237 0.1058
4 1 12 1.7540 1.2915
4 1 13 -18.1193 0.0876
4 1 14 0.9394 -0.3708
4 1 15 -8.5993 -0.1776
4 1 16 20.0020 -0.9574
4 1 17 -20.2345 -0.2133
4 1 18 4.6640 -0.2050
4 1 19 0.6131 -0.1168
4 1 20 13.8311 0.3809
4 1 21 -4.4855 0.0193
4 1 22 -12.8244 -0.0019
4 1 23 -7.2537 0.0965
4 1 24 7.6530 -0.6239
4 1 25 -2.1956 0.0205
4 1 26 -6.4995 -0.3313
4 1 27 -0.5494 -0.0175
4 1 28 1.4764 0.3970
4 1 29 -5.6862 0.0478
4 1 30 9.8319 0.6248
4 1 31 4.5823 -0.0086
4 1 32 -11.8066 0.0287
4 1 33 10.5238 -0.5752
4 2 0 -34.0529 -0.8975
4 2 1 12.4973 0.3678
4 2 2 -43.3341 0.3582
4 2 3 -5.2729 0.2372
4 2 4 -42.7526 0.9587
4 2 5 35.7321 0.2381
4 2 6 -24.2615 0.4631
4 2 7 -25.1229 0.0826
4 2 8 4.4544 0.2908
4 2 9 4.3425 -0.0384
4 2 10 4.3867 0.2473
4 2 11 -5.5263 -0.0767
4 2 12 -13.0251 0.1222
4 2 13 6.4620 0.1016
4 2 14 12.6770 -0.2073
4 2 15 -14.4041 0.1368
4 2 16 2.5337 -0.4932
4 2 17 -10.8595 -0.0458
4 2 18 6.8709 -0.4664
4 2 19 -12.0882 -0.1016
4 2 20 4.9601 -0.1892
4 2 21 4.8072 -0.0789
4 2 22 -2.3723 0.2793
4 2 23 -2.6443 0.0037
4 2 24 -4.4997 0.3908
4 2 25 2.2480 0.1332
4 2 26 -2.7876 0.0755
4 2 27 -4.2335 0.0732
4 2 28 2.6923 -0.0808
4 2 29 -2.5402 -0.0992
4 2 30 2.0206 -0.0058
4 2 31 6.6649 0.0900
4 2 32 -6.8778 -0.1157
4 3 0 70.5973 0.0235
4 3 1 -5.9806 0.1113
4 3 2 23.7773 -0.0006
4 3 3 43.4551 0.3923
4 3 4 -9.5517 0.5367
4 3 5 -8.4215 0.1695
4 3 6 -38.0943 0.4159
4 3 7 32.4406 -0.0663
4 3 8 1.9656 -0.1318
4 3 9 -24.1509 -0.0021
4 3 10 -15.1673 -0.5913
4 3 11 -7.1167 0.1421
4 3 12 0.6741 -0.4371
4 3 13 -9.9011 0.0824
4 3 14 1.6183 0.0345
4 3 15 4.4325 -0.1585
4 3 16 -4.0884 0.0440
4 3 17 -9.3681 -0.2475
4 3 18 1.7238 0.0033
4 3 19 -0.6537 -0.1263
4 3 20 12.0473 0.0713
4 3 21 -0.1214 0.1153
4 3 22 -5.1833 0.0982
4 3 23 6.3346 0.2047
4 3 24 3.6164 0.1356
4 3 25 -10.1822 0.0628
4 3 26 4.6904 0.0967
4 3 27 6.8944 -0.1221
4 3 28 -0.8296 -0.1443
4 3 29 -4.5630 -0.0439
4 3 30 2.7822 -0.0772
4 3 31 3.1994 -0.0610
4 3 32 13.8570 -0.0289
4 4 0 8.4515 0.2202
4 4 1 27.6452 -0.3903
4 4 2 0.5539 -0.2459
4 4 3 -35.8760 0.0160
4 4 4 13.4710 -0.4936
4 4 5 47.5999 0.1142
4 4 6 -30.9840 -0.3073
4 4 7 1.0879 -0.0791
4 4 8 11.3328 0.1997
4 4 9 23.1775 -0.0633
4 4 10 7.4451 0.1055
4 4 11 2.3253 -0.0978
4 4 12 10.7495 -0.2678
4 4 13 23.5718 -0.0541
4 4 14 8.8399 -0.2324
4 4 15 -3.0366 -0.0286
4 4 16 1.2157 0.1932
4 4 17 13.7755 -0.0603
4 4 18 -5.8108 0.3404
4 4 19 -14.0597 0.0121
4 4 20 1.3668 0.0609
4 4 21 5.3344 0.0414
4 4 22 2.6670 -0.2503
4 4 23 -2.5764 -0.0382
4 4 24 3.5164 -0.2050
4 4 25 2.3461 0.0051
4 4 26 0.4302 0.0877
4 4 27 -8.1071 0.0296
4 4 28 0.3407 0.1298
4 4 29 0.2031 -0.1566
4 4 30 -2.5273 -0.0269
4 4 31 -4.1731 -0.2553
4 4 32 -5.1458 -0.2443
4 5 0 -54.0242 0.0078
4 5 1 -43.4941 -0.2074
4 5 2 -12.2535 -0.0642
4 5 3 6.4060 -0.2524
4 5 4 4.4631 -0.2980
4 5 5 -6.5341 -0.0537
4 5 6 -25.8276 -0.3570
4 5 7 29.8648 0.0534
4 5 8 6.0624 0.0932
4 5 9 -14.7597 0.0143
4 5 10 -19.5522 0.3268
4 5 11 -2.4616 -0.0398
4 5 12 2.5123 0.2388
4 5 13 -4.6449 0.0416
4 5 14 -14.4795 0.0153
4 5 15 6.5598 0.0522
4 5 16 -1.9045 -0.1314
4 5 17 3.3441 -0.0738
4 5 18 -3.5511 -0.0790
4 5 19 5.5277 -0.0475
4 5 20 0.9779 0.1092
4 5 21 -5.5565 0.1391
4 5 22 -4.8837 0.1465
4 5 23 -1.4181 0.0795
4 5 24 2.9312 -0.1293
4 5 25 -0.1165 0.0165
4 5 26 -1.8137 -0.0468
4 5 27 1.3325 -0.0052
4 5 28 0.4083 -0.0012
4 5 29 0.1546 -0.0178
4 5 30 1.8866 -0.0596
4 5 31 5.0946 0.0466
4 5 32 -10.8277 0.2220
4 6 0 32.8825 -0.3728
4 6 1 33.3162 0.3119
4 6 2 -16.2021 -0.1304
4 6 3 -20.0130 0.3216
4 6 4 13.6050 0.2194
4 6 5 -19.9682 -0.0959
4 6 6 12.6159 0.1198
4 6 7 5.9824 -0.1988
4 6 8 -22.3344 -0.0096
4 6 9 28.7854 0.0357
4 6 10 8.3075 0.0418
4 6 11 -6.8295 0.0142
4 6 12 -5.1635 0.1197
4 6 13 13.1799 -0.0845
4 6 14 -1.1654 -0.0674
4 6 15 -11.9307 -0.0968
4 6 16 -14.9514 -0.1536
4 6 17 14.5680 -0.0227
4 6 18 4.0223 -0.0437
4 6 19 -7.1113 0.1317
4 6 20 1.5569 0.0569
4 6 21 3.2324 0.2150
4 6 22 0.8580 0.1201
4 6 23 -3.9831 -0.0694
4 6 24 4.1438 0.1055
4 6 25 -4.0938 -0.1588
4 6 26 -0.4085 0.0568
4 6 27 -0.8292 0.0770
4 6 28 2.0660 -0.0421
4 6 29 9.5355 -0.0997
4 6 30 -1.8963 -0.0311
4 6 31 -4.6551 -0.1329
4 6 32 0.3848 -0.1190
4 7 0 31.6411 -0.0712
4 7 1 41.0868 0.1245
4 7 2 -6.4372 -0.0116
4 7 3 -12.2878 0.1276
4 7 4 46.6300 0.0383
4 7 5 8.2659 -0.1454
4 7 6 -23.2834 0.2328
4 7 7 -17.5476 -0.2870
4 7 8 -1.3913 0.1319
4 7 9 11.5285 -0.1924
4 7 10 -20.7076 -0.3187
4 7 11 6.3457 0.0422
4 7 12 10.7976 -0.3350
4 7 13 -5.7361 0.1774
4 7 14 -10.9927 0.0708
4 7 15 3.8312 0.0392
4 7 16 2.2185 0.2227
4 7 17 3.3396 -0.0132
4 7 18 -6.0903 0.0193
4 7 19 2.9258 0.0082
4 7 20 12.4566 -0.0411
4 7 21 -4.7552 0.0339
4 7 22 0.1298 0.1651
4 7 23 0.9736 0.0922
4 7 24 4.9215 0.1090
4 7 25 -7.6835 -0.0558
4 7 26 7.1049 0.1311
4 7 27 -4.2440 -0.0950
4 7 28 -4.9005 0.0105
4 7 29 3.6114 0.0883
4 7 30 0.3982 0.0169
4 7 31 -7.7307 -0.0058
4 8 0 -18.6263 -0.0987
4 8 1 7.0932 -0.3919
4 8 2 6.3112 -0.0652
4 8 3 -12.5095 -0.1777
4 8 4 -18.7156 -0.1298
4 8 5 -15.0431 -0.0156
4 8 6 36.3881 -0.0707
4 8 7 19.7332 0.0617
4 8 8 -18.0034 0.0243
4 8 9 1.7145 -0.0186
4 8 10 4.5852 -0.0210
4 8 11 7.2224 -0.0108
4 8 12 -14.7438 -0.0459
4 8 13 -7.3797 0.1456
4 8 14 12.6607 -0.0549
4 8 15 3.8190 0.0469
4 8 16 -12.8244 0.0844
4 8 17 3.6206 -0.1110
4 8 18 3.5651 0.1389
4 8 19 -4.7042 -0.0180
4 8 20 -13.8825 0.0027
4 8 21 4.1115 0.0241
4 8 22 17.2680 -0.1058
4 8 23 2.8181 -0.1007
4 8 24 -3.6732 -0.1399
4 8 25 -6.6959 -0.0371
4 8 26 2.8769 -0.0980
4 8 27 5.2723 0.0414
4 8 28 2.9659 0.0855
4 8 29 1.3947 -0.1416
4 8 30 1.7737 -0.0116
4 8 31 -1.8585 -0.0381
4 9 0 1.0264 -0.1479
4 9 1 11.5352 0.0135
4 9 2 -34.8404 0.0146
4 9 3 -20.1965 -0.1131
4 9 4 7.1665 0.0062
4 9 5 -12.8879 -0.1196
4 9 6 -17.3033 0.0208
4 9 7 -24.7089 0.2641
4 9 8 17.6743 0.1228
4 9 9 16.5503 0.2631
4 9 10 -19.1539 0.0992
4 9 11 7.7250 -0.0239
4 9 12 6.3161 0.1084
4 9 13 10.9262 -0.1341
4 9 14 6.1021 0.0336
4 9 15 -2.3365 0.0035
4 9 16 -1.8741 -0.0391
4 9 17 4.6643 0.0585
4 9 18 -7.2721 -0.0320
4 9 19 3.1454 0.0061
4 9 20 -0.9664 0.0070
4 9 21 6.5209 -0.1198
4 9 22 2.7836 -0.0193
4 9 23 1.2847 -0.0943
4 9 24 -3.1557 -0.0035
4 9 25 -5.2802 -0.0054
4 9 26 -6.6554 0.0839
4 9 27 -3.4071 0.0218
4 9 28 -5.3092 -0.0693
4 9 29 2.5961 -0.1202
4 9 30 -4.6285 0.1304
4 10 0 22.6129 0.0248
4 10 1 1.0735 0.2154
4 10 2 23.9857 0.0347
4 10 3 37.0292 0.1882
4 10 4 -20.9733 0.1568
4 10 5 9.2445 -0.1306
4 10 6 32.0316 0.1541
4 10 7 14.4277 -0.0247
4 10 8 -9.9777 0.0376
4 10 9 -7.5314 0.1172
4 10 10 5.6606 -0.0507
4 10 11 6.6424 0.0674
4 10 12 -32.1608 0.0649
4 10 13 -0.9206 -0.1000
4 10 14 10.1681 0.1005
4 10 15 5.9156 -0.1481
4 10 16 -4.5046 -0.0570
4 10 17 -11.4145 -0.0563
4 10 18 6.7158 -0.1620
4 10 19 -0.8713 0.0324
4 10 20 -21.5641 0.0489
4 10 21 -1.7698 0.0224
4 10 22 7.1584 -0.0050
4 10 23 13.1555 -0.0891
4 10 24 1.1363 -0.0455
4 10 25 -4.1133 -0.0069
4 10 26 3.2813 0.0905
4 10 27 -6.4802 -0.1020
4 10 28 2.0626 -0.0599
4 10 29 4.9628 -0.3412
4 11 0 16.1660 -0.0359
4 11 1 -3.5937 0.0133
4 11 2 5.6364 0.0367
4 11 3 3.2330 0.0903
4 11 4 -14.3577 0.0311
4 11 5 22.1163 0.0169
4 11 6 -17.0145 0.0265
4 11 7 -19.8606 -0.1202
4 11 8 -1.1544 0.1081
4 11 9 1.0851 -0.1940
4 11 10 3.3745 -0.0390
4 11 11 -6.5497 -0.0158
4 11 12 -17.1464 -0.1358
4 11 13 11.3812 0.1553
4 11 14 -10.7072 -0.0661
4 11 15 -7.8390 0.0250
4 11 16 10.5288 0.1507
4 11 17 5.9398 -0.0674
4 11 18 6.8037 0.0136
4 11 19 -3.8658 0.0729
4 11 20 3.4125 -0.1007
4 11 21 -5.6336 0.0144
4 11 22 -11.1715 -0.0536
4 11 23 -3.4748 -0.0614
4 11 24 0.8398 -0.0549
4 11 25 6.0677 0.1101
4 11 26 -1.4418 0.0485
4 11 27 0.9228 0.0314
4 11 28 6.9727 -0.1322
4 11 29 -6.1383 -0.2849
4 12 0 4.8703 -0.0975
4 12 1 -18.6322 -0.0439
4 12 2 1.4510 0.0557
4 12 3 5.1568 -0.1400
4 12 4 -6.1981 0.1113
4 12 5 -5.1459 -0.0503
4 12 6 -10.0358 0.0244
4 12 7 8.6713 0.1014
4 12 8 2.8186 -0.0174
4 12 9 -22.2807 0.0109
4 12 10 16.4709 -0.0453
4 12 11 11.7103 -0.0352
4 12 12 4.4119 0.0404
4 12 13 -4.2132 0.0889
4 12 14 1.1254 -0.0605
4 12 15 19.0341 0.2069
4 12 16 -7.9364 -0.0266
4 12 17 -14.8395 -0.0053
4 12 18 10.6403 0.0985
4 12 19 4.1720 -0.2049
4 12 20 1.6006 0.1373
4 12 21 -7.1452 0.0505
4 12 22 11.1407 -0.0332
4 12 23 9.5618 0.0737
4 12 24 -4.6604 0.0869
4 12 25 3.0035 0.0459
4 12 26 -2.3104 0.1630
4 12 27 2.7500 -0.0711
4 12 28 -4.5550 -0.2083
4 13 0 0.1576 -0.0818
4 13 1 -11.8425 0.0532
4 13 2 11.8197 -0.0011
4 13 3 -11.3011 -0.1158
4 13 4 4.5933 0.0323
4 13 5 -0.0894 -0.0733
4 13 6 4.6329 0.0349
4 13 7 6.6813 0.0917
4 13 8 -5.9850 -0.0444
4 13 9 6.2186 0.0608
4 13 10 23.5059 -0.0743
4 13 11 -2.9474 -0.0515
4 13 12 11.5166 0.0510
4 13 13 2.5153 -0.0978
4 13 14 0.9329 0.1064
4 13 15 3.7489 -0.0755
4 13 16 1.0558 -0.0723
4 13 17 3.3071 0.0561
4 13 18 0.0298 -0.1407
4 13 19 -3.3615 0.0645
4 13 20 1.6160 0.1001
4 13 21 0.5061 -0.1341
4 13 22 -10.2501 0.0687
4 13 23 -2.0423 0.0200
4 13 24 5.7028 -0.0834
4 13 25 2.4784 -0.0003
4 13 26 0.7313 0.0465
4 13 27 4.9464 -0.3910
4 14 0 5.6400 0.1238
4 14 1 -6.3810 0.1295
4 14 2 14.1537 0.0908
4 14 3 0.1241 0.0835
4 14 4 -7.3789 -0.1293
4 14 5 -8.9902 0.0034
4 14 6 3.4945 0.0071
4 14 7 -0.0819 -0.0860
4 14 8 -5.2455 0.0724
4 14 9 -14.4268 -0.1146
4 14 10 -4.9318 -0.0856
4 14 11 -7.1780 -0.0715
4 14 12 2.3891 -0.0761
4 14 13 -10.2729 0.0333
4 14 14 -4.8993 0.0577
4 14 15 -1.1108 -0.1282
4 14 16 -12.5112 0.0947
4 14 17 -5.1792 -0.1219
4 14 18 -9.6398 -0.0994
4 14 19 -0.4280 0.1759
4 14 20 -4.5036 -0.0950
4 14 21 -3.0100 0.1799
4 14 22 -1.4776 0.0531
4 14 23 2.4037 -0.0146
4 14 24 -4.3177 0.2323
4 14 25 -2.7726 0.2495
4 14 26 3.6608 0.1504
4 15 0 -3.6619 -0.0339
4 15 1 6.6942 0.0028
4 15 2 10.7227 -0.0217
4 15 3 1.0836 0.0132
4 15 4 10.7299 -0.0289
4 15 5 -2.5634 0.0428
4 15 6 8.3798 -0.0617
4 15 7 7.5084 -0.0352
4 15 8 -0.0277 -0.0563
4 15 9 6.1019 -0.1758
4 15 10 6.5411 -0.0444
4 15 11 -4.5116 -0.0732
4 15 12 7.4981 -0.0005
4 15 13 -4.3652 0.1078
4 15 14 14.3374 -0.0509
4 15 15 -0.1598 0.1387
4 15 16 2.3207 -0.1280
4 15 17 10.4543 -0.1404
4 15 18 -3.3602 0.1876
4 15 19 6.0113 -0.0610
4 15 20 -3.3045 0.2009
4 15 21 4.1318 0.0800
4 15 22 7.5837 -0.3559
4 15 23 -2.6596 -0.1213
4 15 24 -4.5813 0.1926
4 15 25 3.9744 -0.3781
4 16 0 1.3496 -0.0714
4 16 1 2.6598 -0.0386
4 16 2 -14.3230 -0.1063
4 16 3 7.8977 -0.0183
4 16 4 6.9468 -0.1173
4 16 5 -10.8835 -0.0226
4 16 6 -3.0339 0.0218
4 16 7 3.8017 0.0636
4 16 8 -2.0225 0.0080
4 16 9 -6.5731 0.0363
4 16 10 -1.9499 0.0042
4 16 11 5.8522 -0.0047
4 16 12 6.5275 0.0743
4 16 13 -21.3589 0.0448
4 16 14 2.0435 0.0642
4 16 15 -5.5638 0.0624
4 16 16 3.1152 -0.1492
4 16 17 -2.5114 0.0064
4 16 18 -0.7000 -0.0899
4 16 19 11.6812 0.0266
4 16 20 3.7498 0.2486
4 16 21 0.9613 -0.1209
4 16 22 -2.3212 -0.1519
4 16 23 4.4262 -0.0386
4 16 24 -4.1365 -0.3131
4 17 0 -5.1236 0.0198
4 17 1 9.8689 0.0049
4 17 2 -11.3449 -0.0222
4 17 3 3.9488 -0.0498
4 17 4 -31.6351 -0.0144
4 17 5 -1.8766 0.1575
4 17 6 13.7455 0.0558
4 17 7 -7.4655 0.1643
4 17 8 -5.3319 0.0501
4 17 9 -0.9211 0.1162
4 17 10 -0.0682 0.0473
4 17 11 -4.2325 0.0840
4 17 12 10.2487 0.1123
4 17 13 -1.0931 -0.0435
4 17 14 2.3049 0.0902
4 17 15 1.0352 -0.2004
4 17 16 4.2499 -0.0428
4 17 17 -10.0918 -0.0876
4 17 18 -0.7416 -0.0515
4 17 19 9.0125 0.4251
4 17 20 -11.6272 0.1084
4 17 21 0.0340 -0.4808
4 17 22 -3.0509 0.2185
4 18 0 -3.9546 0.0591
4 18 1 7.8135 0.0960
4 18 2 -6.4803 -0.0196
4 18 3 5.3798 0.0025
4 18 4 -5.1045 -0.0600
4 18 5 1.5495 -0.0324
4 18 6 1.1465 -0.1177
4 18 7 1.2671 -0.0335
4 18 8 12.1359 -0.1012
4 18 9 -1.6493 -0.0074
4 18 10 -1.4995 -0.0714
4 18 11 0.1770 -0.0727
4 18 12 0.3939 0.0943
4 18 13 -8.0081 -0.0209
4 18 14 -1.3517 -0.0272
4 18 15 4.6280 -0.0111
4 18 16 4.0992 0.1111
4 18 17 -5.9603 -0.1350
4 18 18 6.2062 0.1355
4 18 19 -3.8233 -0.0699
4 18 20 -1.4540 -0.3103
4 18 21 11.1661 -0.0707
4 19 0 1.6926 0.0403
4 19 1 6.9792 0.0085
4 19 2 12.9179 0.0203
4 19 3 8.5536 -0.0154
4 19 4 -15.5152 -0.1400
4 19 5 8.5417 -0.0235
4 19 6 10.7006 -0.0861
4 19 7 -1.7928 -0.0188
4 19 8 4.1186 0.0331
4 19 9 -10.5319 0.0342
4 19 10 4.0083 0.1040
4 19 11 -1.4605 -0.0006
4 19 12 -0.6164 0.0299
4 19 13 -0.3568 -0.0622
4 19 14 2.1151 0.0830
4 19 15 4.5732 0.0685
4 19 16 -7.1870 -0.0127
4 19 17 -1.3751 0.2546
4 19 18 9.8845 0.4242
4 19 19 -9.4178 -0.3424
4 20 0 -4.9514 0.0506
4 20 1 -6.0409 -0.1438
4 20 2 -12.9956 0.1265
4 20 3 6.0590 0.0644
4 20 4 2.2122 0.0623
4 20 5 -1.1525 0.2728
4 20 6 -8.2799 0.1272
4 20 7 -5.1512 -0.0368
4 20 8 -5.0440 0.0461
4 20 9 -3.8928 -0.1202
4 20 10 8.7646 0.0512
4 20 11 -2.4059 -0.1576
4 20 12 9.3152 0.1093
4 20 13 -5.5293 0.3234
4 20 14 -5.9686 -0.1090
4 20 15 10.1113 -0.0466
4 20 16 0.9685 -0.1424
4 20 17 7.8401 -0.0884
4 21 0 -0.6403 -0.1056
4 21 1 4.5709 -0.0504
4 21 2 2.5138 -0.1625
4 21 3 8.3778 -0.1280
4 21 4 -4.7571 -0.0208
4 21 5 -9.0693 -0.0551
4 21 6 13.0933 -0.0811
4 21 7 4.0113 0.0023
4 21 8 -5.8283 -0.2654
4 21 9 -7.6048 -0.0117
4 21 10 -0.0337 0.0196
4 21 11 -0.6920 -0.0746
4 21 12 2.1992 -0.0195
4 21 13 0.0754 -0.3532
4 21 14 -5.4995 -0.7203
4 22 0 -5.9991 -0.0646
4 22 1 -0.8651 0.0702
4 22 2 -3.9633 -0.1752
4 22 3 1.2888 0.1146
4 22 4 6.7377 -0.0651
4 22 5 7.6208 -0.1676
4 22 6 5.2002 0.2360
4 22 7 -4.8401 -0.2297
4 22 8 -1.1447 -0.1904
4 22 9 5.2748 0.2709
4 22 10 4.0541 -0.2896
4 23 0 -1.6333 0.1361
4 23 1 8.0648 -0.1728
4 23 2 1.0017 0.1223
4 23 3 -1.3456 0.4055
4 23 4 -3.3257 0.2363
4 23 5 -1.3358 0.2866
5 0 0 62.8969 1.3502
5 0 2 2.4525 -1.3362
5 0 4 76.9841 0.0622
5 0 6 -16.4333 0.9935
5 0 8 28.4731 0.0573
5 0 10 -21.8255 -1.2871
5 0 12 22.0625 -1.1653
5 0 14 12.3954 0.4247
5 0 16 -5.8047 1.5825
5 0 18 -4.9350 0.8966
5 0 20 -1.2616 -0.5091
5 0 22 -5.4704 -0.6500
5 0 24 -1.9427 0.2095
5 0 26 -4.1466 0.5715
5 0 28 -10.5404 0.0322
5 0 30 9.9165 -0.5410
5 0 32 1.6341 -0.3192
5 1 0 -27.3170 0.1662
5 1 1 -2.2246 -0.4250
5 1 2 2.6753 -0.6461
5 1 3 -34.8864 0.0543
5 1 4 -19.9118 -1.9053
5 1 5 7.9621 -0.0850
5 1 6 -16.4712 -1.4063
5 1 7 -7.0054 -0.1135
5 1 8 14.1359 0.5264
5 1 9 -25.1394 0.1813
5 1 10 -6.2936 1.3170
5 1 11 4.8405 0.3206
5 1 12 -4.4643 0.3034
5 1 13 -9.3819 0.0695
5 1 14 -0.9721 -0.4372
5 1 15 1.6309 -0.1877
5 1 16 -5.3562 0.0523
5 1 17 -8.6754 -0.2143
5 1 18 5.7058 0.6451
5 1 19 6.0147 -0.1288
5 1 20 1.9222 0.2756
5 1 21 -2.8234 0.0888
5 1 22 11.3847 -0.7518
5 1 23 4.5896 0.0387
5 1 24 5.2931 -0.7938
5 1 25 2.1474 -0.1292
5 1 26 5.7772 0.1104
5 1 27 8.2083 -0.0155
5 1 28 1.2649 0.6532
5 1 29 -8.5527 0.1864
5 1 30 -4.6870 0.4933
5 1 31 5.7623 -0.0127
5 1 32 -0.6926 -0.5280
5 2 0 -2.4313 -0.1853
5 2 1 9.5122 0.4594
5 2 2 -34.1829 0.1467
5 2 3 -10.7331 0.2798
5 2 4 32.7675 0.1200
5 2 5 13.0615 0.1974
5 2 6 -27.2266 0.0921
5 2 7 10.5497 -0.1240
5 2 8 25.7981 0.4832
5 2 9 19.2909 -0.2149
5 2 10 0.4060 0.6848
5 2 11 -21.3505 0.0662
5 2 12 19.1789 0.3687
5 2 13 8.5657 0.2413
5 2 14 5.7224 -0.1127
5 2 15 -2.2667 0.0687
5 2 16 2.6431 -0.4812
5 2 17 3.3686 -0.1434
5 2 18 5.6879 -0.5584
5 2 19 -8.6783 -0.1499
5 2 20 7.8756 -0.1733
5 2 21 -1.5690 -0.0849
5 2 22 0.7486 0.2279
5 2 23 -2.4658 0.0646
5 2 24 -0.8964 0.0758
5 2 25 -11.5608 0.1445
5 2 26 -5.1757 -0.0037
5 2 27 3.7488 -0.0733
5 2 28 -1.3515 0.1717
5 2 29 -1.3446 0.0541
5 2 30 2.9255 -0.0269
5 2 31 5.2193 -0.2822
5 2 32 -5.5568 -0.2368
5 3 0 -81.2019 -0.4282
5 3 1 22.8118 0.5211
5 3 2 39.2127 0.3856
5 3 3 -18.1964 0.3776
5 3 4 -37.4553 0.8969
5 3 5 -21.5659 -0.1444
5 3 6 29.4936 0.4206
5 3 7 -4.1158 -0.1249
5 3 8 -30.6774 -0.2499
5 3 9 -14.1640 0.2373
5 3 10 5.9993 -0.3577
5 3 11 2.4436 0.2629
5 3 12 -9.3057 -0.0543
5 3 13 -27.5403 0.0482
5 3 14 17.9523 -0.0459
5 3 15 -3.3071 -0.1444
5 3 16 -11.3770 -0.2106
5 3 17 -8.1715 -0.2197
5 3 18 2.1108 -0.1192
5 3 19 -0.7436 -0.0773
5 3 20 -3.2236 0.0301
5 3 21 -4.2337 0.1594
5 3 22 7.4528 0.1992
5 3 23 -0.2776 0.1023
5 3 24 -0.6114 0.2964
5 3 25 -0.9962 -0.0712
5 3 26 5.7245 0.0229
5 3 27 11.0217 0.1027
5 3 28 -5.9898 -0.2206
5 3 29 -13.6850 0.1157
5 3 30 3.4392 0.0271
5 3 31 8.5748 -0.2026
5 3 32 -5.0752 -0.1866
5 4 0 2.8977 0.0951
5 4 1 26.9289 0.1131
5 4 2 -14.7039 -0.2553
5 4 3 4.8355 0.1512
5 4 4 43.8047 -0.1021
5 4 5 13.2892 0.0345
5 4 6 0.1620 0.1492
5 4 7 4.6246 -0.0728
5 4 8 5.8053 0.0504
5 4 9 27.0691 -0.0605
5 4 10 -11.3743 -0.4158
5 4 11 -6.1182 0.0163
5 4 12 12.8239 -0.4603
5 4 13 9.3490 -0.0056
5 4 14 3.3848 0.0581
5 4 15 -4.1887 -0.0871
5 4 16 4.9273 0.3212
5 4 17 6.2482 -0.1050
5 4 18 2.2294 0.1163
5 4 19 -3.8925 -0.0541
5 4 20 -5.9294 -0.1735
5 4 21 -0.5108 -0.0668
5 4 22 2.7971 -0.1869
5 4 23 -13.3719 -0.0066
5 4 24 1.0523 0.0570
5 4 25 4.9945 0.0910
5 4 26 7.3967 0.1793
5 4 27 -1.4804 -0.0882
5 4 28 -5.5183 -0.0672
5 4 29 0.6462 -0.0858
5 4 30 4.1028 -0.1215
5 4 31 -5.7367 -0.2247
5 5 0 -8.2759 0.1454
5 5 1 24.3185 -0.3223
5 5 2 -14.5903 -0.1560
5 5 3 16.3763 -0.2390
5 5 4 -50.0998 -0.4011
5 5 5 -11.4651 -0.0365
5 5 6 11.0044 -0.2515
5 5 7 -4.3305 0.0260
5 5 8 -35.0962 0.1394
5 5 9 12.8908 0.0178
5 5 10 -8.1138 0.2603
5 5 11 12.8817 0.0306
5 5 12 -20.1159 0.0572
5 5 13 -2.4461 0.1079
5 5 14 5.4275 -0.0756
5 5 15 4.7126 -0.0146
5 5 16 -7.0503 -0.0359
5 5 17 -7.0759 -0.1149
5 5 18 7.2363 0.1314
5 5 19 6.7230 0.0210
5 5 20 0.4304 0.1448
5 5 21 -0.2144 0.0717
5 5 22 8.5521 -0.1004
5 5 23 -0.6977 0.0668
5 5 24 0.8212 -0.0810
5 5 25 -3.4189 0.0501
5 5 26 7.9161 0.0309
5 5 27 5.1726 -0.0305
5 5 28 -3.3435 0.0372
5 5 29 -3.8836 0.0539
5 5 30 6.7404 0.0850
5 5 31 -14.0704 -0.0613
5 6 0 -19.4811 -0.1816
5 6 1 17.4580 0.1862
5 6 2 -19.2566 -0.0129
5 6 3 10.4929 -0.0622
5 6 4 -27.7975 0.0396
5 6 5 47.8993 -0.0753
5 6 6 10.1769 -0.1319
5 6 7 -16.2596 0.0720
5 6 8 -7.4931 0.0446
5 6 9 18.6182 0.1381
5 6 10 -13.7235 0.2448
5 6 11 0.8453 -0.0578
5 6 12 6.9942 0.1517
5 6 13 20.6957 -0.1532
5 6 14 -10.6839 -0.1302
5 6 15 -6.9850 -0.1226
5 6 16 -2.2868 -0.1725
5 6 17 -1.2295 -0.0027
5 6 18 -1.6263 -0.0101
5 6 19 -5.9041 0.1587
5 6 20 -1.7286 0.0301
5 6 21 1.7914 0.0635
5 6 22 -1.6801 0.0189
5 6 23 -8.4700 -0.1413
5 6 24 -1.1038 0.0208
5 6 25 -1.8233 0.0103
5 6 26 0.8196 0.0311
5 6 27 -3.4024 0.0816
5 6 28 -0.8176 0.0066
5 6 29 7.6155 -0.1135
5 6 30 -0.8382 -0.1033
5 6 31 -7.9808 -0.2569
5 7 0 11.2460 -0.0973
5 7 1 -9.3508 0.3429
5 7 2 -14.6048 -0.0084
5 7 3 16.2335 0.1264
5 7 4 -18.7153 0.1496
5 7 5 14.3239 -0.2216
5 7 6 6.4489 0.2047
5 7 7 9.4519 -0.2913
5 7 8 5.1209 -0.0301
5 7 9 -7.9857 -0.0670
5 7 10 3.4186 -0.2503
5 7 11 11.3329 0.1302
5 7 12 -4.6303 -0.0537
5 7 13 7.1322 0.0779
5 7 14 -3.8804 0.1298
5 7 15 4.7290 -0.0527
5 7 16 -0.8408 -0.0543
5 7 17 -2.8121 -0.0241
5 7 18 14.0081 -0.0670
5 7 19 5.1797 0.0658
5 7 20 -5.6162 0.1339
5 7 21 -2.4903 0.1671
5 7 22 -3.7918 0.1871
5 7 23 1.4415 0.0618
5 7 24 1.3586 0.1531
5 7 25 -0.8501 -0.1332
5 7 26 5.8137 0.1227
5 7 27 -0.3093 -0.0294
5 7 28 2.5678 -0.0794
5 7 29 0.0375 0.0712
5 7 30 -3.8770 0.1567
5 8 0 6.0210 -0.0037
5 8 1 27.7889 -0.2373
5 8 2 49.4080 -0.0788
5 8 3 -3.0480 -0.0457
5 8 4 -24.5453 -0.0444
5 8 5 33.2103 0.0019
5 8 6 10.2723 0.0332
5 8 7 -14.2122 -0.1577
5 8 8 -16.7671 -0.0684
5 8 9 7.1519 -0.1220
5 8 10 14.4750 -0.1815
5 8 11 -19.4566 0.0818
5 8 12 -6.7598 -0.1833
5 8 13 10.7334 0.1892
5 8 14 3.1821 0.0391
5 8 15 -0.6386 -0.1031
5 8 16 -13.2097 0.1712
5 8 17 -1.5355 -0.0915
5 8 18 6.0126 0.1209
5 8 19 -0.7136 0.1149
5 8 20 -1.6717 -0.0372
5 8 21 3.0239 0.0472
5 8 22 -4.7628 -0.0725
5 8 23 -0.2497 -0.0730
5 8 24 5.2847 -0.0702
5 8 25 -5.3046 0.0028
5 8 26 2.5357 0.0164
5 8 27 4.4097 -0.0186
5 8 28 3.0280 -0.0282
5 8 29 -2.8989 -0.0460
5 8 30 -4.2411 0.0184
5 9 0 -16.5141 -0.1583
5 9 1 -42.2647 -0.1665
5 9 2 -0.3780 -0.0522
5 9 3 5.2224 -0.2060
5 9 4 -13.1426 -0.0816
5 9 5 -9.5817 0.0402
5 9 6 -21.6128 -0.0409
5 9 7 3.4696 0.2400
5 9 8 5.9268 0.0612
5 9 9 -13.0540 0.1037
5 9 10 -3.2416 0.0554
5 9 11 3.4156 -0.0784
5 9 12 3.3997 0.0902
5 9 13 -14.3255 0.0299
5 9 14 -9.0790 0.0448
5 9 15 17.7791 0.0846
5 9 16 5.2190 -0.0463
5 9 17 -0.6250 -0.0183
5 9 18 2.1798 0.0596
5 9 19 -2.4387 -0.0678
5 9 20 6.4807 -0.0548
5 9 21 -5.9807 -0.0722
5 9 22 -10.7495 -0.0791
5 9 23 9.3892 0.0275
5 9 24 2.7770 0.0957
5 9 25 2.4540 0.0358
5 9 26 -4.8282 -0.1017
5 9 27 -0.1002 -0.0409
5 9 28 10.5427 -0.0488
5 9 29 -1.3887 -0.0879
5 10 0 -5.3910 -0.0475
5 10 1 -1.0588 0.0752
5 10 2 -5.3422 0.0260
5 10 3 -16.2833 0.0247
5 10 4 5.6513 0.1361
5 10 5 2.0880 -0.0511
5 10 6 12.1706 0.0635
5 10 7 8.1796 0.1403
5 10 8 -18.5924 -0.0227
5 10 9 3.6008 0.1687
5 10 10 15.9483 0.0451
5 10 11 -3.8225 0.0181
5 10 12 -4.7152 0.1264
5 10 13 2.8136 -0.1689
5 10 14 -1.1599 0.0643
5 10 15 -7.4128 -0.1430
5 10 16 -16.0651 -0.1877
5 10 17 13.2429 0.0645
5 10 18 4.7575 -0.0507
5 10 19 -4.5864 0.0963
5 10 20 5.9588 0.0684
5 10 21 1.1459 -0.1240
5 10 22 2.8068 0.0408
5 10 23 -1.5871 -0.1279
5 10 24 -11.3978 0.0317
5 10 25 -0.6276 0.0189
5 10 26 -0.7395 -0.0712
5 10 27 3.8004 0.0592
5 10 28 -11.3002 -0.0763
5 10 29 -9.7064 -0.2643
5 11 0 8.2430 0.0692
5 11 1 -12.7842 0.1307
5 11 2 0.3241 0.0446
5 11 3 0.2201 0.1495
5 11 4 17.8345 0.0070
5 11 5 -5.2058 -0.0265
5 11 6 -14.5620 0.0611
5 11 7 17.9568 -0.1232
5 11 8 15.0060 0.0401
5 11 9 3.1559 -0.0615
5 11 10 -10.6929 -0.0940
5 11 11 5.2517 0.0230
5 11 12 13.4251 -0.0446
5 11 13 -1.3008 -0.0420
5 11 14 -8.5167 0.1031
5 11 15 15.6705 -0.0679
5 11 16 10.7657 0.0067
5 11 17 -0.3275 0.0515
5 11 18 -20.8677 -0.1040
5 11 19 12.6235 0.1139
5 11 20 3.3541 -0.0824
5 11 21 -6.2963 -0.0788
5 11 22 -0.4460 -0.0488
5 11 23 3.5972 -0.0690
5 11 24 2.3876 0.0455
5 11 25 -2.2079 0.1238
5 11 26 4.8244 0.0070
5 11 27 5.2739 -0.3930
5 11 28 -0.1209 -0.2091
5 12 0 -3.2644 -0.0142
5 12 1 7.9201 -0.0666
5 12 2 9.5905 -0.0073
5 12 3 3.8231 -0.0098
5 12 4 3.4269 0.0386
5 12 5 -16.3177 0.0584
5 12 6 16.1779 -0.0251
5 12 7 1.4066 -0.0089
5 12 8 -20.4867 0.0041
5 12 9 -1.7765 -0.1131
5 12 10 -9.5032 0.0542
5 12 11 -3.8759 0.0298
5 12 12 -16.5853 0.0129
5 12 13 0.6842 0.1926
5 12 14 3.6025 -0.1459
5 12 15 -12.1675 0.1206
5 12 16 -6.0363 0.0136
5 12 17 9.6876 -0.1306
5 12 18 -11.0888 0.1645
5 12 19 5.1272 -0.0502
5 12 20 -5.5786 0.0647
5 12 21 -1.1960 0.0750
5 12 22 1.5655 -0.0043
5 12 23 -2.5139 0.0650
5 12 24 -12.6218 0.0490
5 12 25 -2.9398 0.1926
5 12 26 7.1526 -0.0605
5 12 27 -0.7329 -0.3651
5 13 0 -12.2460 -0.0813
5 13 1 -2.3009 -0.0841
5 13 2 -10.2745 0.0083
5 13 3 -0.2532 -0.1213
5 13 4 11.3537 0.0493
5 13 5 -7.7825 0.0730
5 13 6 -5.5368 -0.0083
5 13 7 -7.4729 0.2124
5 13 8 7.1837 -0.0440
5 13 9 3.7720 0.0860
5 13 10 5.7852 0.0117
5 13 11 6.4368 -0.0197
5 13 12 -0.1395 0.1557
5 13 13 8.7719 -0.0996
5 13 14 1.6594 0.0328
5 13 15 10.4340 0.0448
5 13 16 12.9539 -0.1479
5 13 17 -2.7139 0.0631
5 13 18 -13.7068 0.0042
5 13 19 9.7718 -0.1464
5 13 20 5.7046 0.1882
5 13 21 3.0285 -0.0551
5 13 22 4.0892 -0.0019
5 13 23 0.6380 0.0944
5 13 24 2.9207 -0.0639
5 13 25 2.3744 -0.1601
5 13 26 -4.3343 -0.1382
5 14 0 0.0882 0.0801
5 14 1 2.8347 0.0777
5 14 2 -5.1001 0.0289
5 14 3 -4.5992 0.0303
5 14 4 1.3296 -0.0543
5 14 5 -2.3864 -0.0083
5 14 6 7.8131 0.0397
5 14 7 12.1313 -0.0193
5 14 8 -3.6422 -0.0171
5 14 9 -6.1919 -0.0472
5 14 10 4.2877 -0.0775
5 14 11 -7.0462 0.0076
5 14 12 -4.0171 0.0608
5 14 13 1.5961 -0.0909
5 14 14 0.7945 0.0834
5 14 15 7.5013 -0.2092
5 14 16 0.6035 -0.0098
5 14 17 1.6878 0.0183
5 14 18 0.2507 -0.2055
5 14 19 1.4335 0.1227
5 14 20 -8.1198 -0.1141
5 14 21 6.4321 0.0534
5 14 22 4.1109 0.1974
5 14 23 -2.6085 0.1773
5 14 24 1.7851 0.0862
5 14 25 -0.7130 -0.0616
5 15 0 2.2814 0.0632
5 15 1 -4.6595 0.0306
5 15 2 -13.1588 0.1093
5 15 3 -4.6597 0.0929
5 15 4 1.5299 -0.0571
5 15 5 -5.4282 0.0905
5 15 6 1.7412 -0.0909
5 15 7 -5.2255 -0.1093
5 15 8 20.3103 -0.0790
5 15 9 2.1219 -0.2042
5 15 10 -19.1905 0.0024
5 15 11 -5.5621 -0.0156
5 15 12 1.6251 0.0561
5 15 13 7.3752 0.0360
5 15 14 -6.0384 -0.0718
5 15 15 -1.6148 -0.0229
5 15 16 -10.1151 0.0670
5 15 17 0.5828 -0.1449
5 15 18 -6.5774 0.1573
5 15 19 -11.0101 -0.0139
5 15 20 -5.8910 -0.1518
5 15 21 6.9576 0.2620
5 15 22 -6.5157 -0.1231
5 15 23 -1.1873 -0.2397
5 15 24 12.1406 0.2019
5 16 0 10.3036 -0.0287
5 16 1 8.9868 -0.0956
5 16 2 11.1307 -0.0739
5 16 3 -6.8992 0.0302
5 16 4 6.7073 -0.0093
5 16 5 -6.4902 -0.0099
5 16 6 1.8256 -0.0118
5 16 7 3.8264 -0.0510
5 16 8 4.1119 -0.0802
5 16 9 -6.6702 -0.0987
5 16 10 -3.0967 -0.0366
5 16 11 -5.4341 -0.0094
5 16 12 -0.8763 0.0179
5 16 13 11.5926 -0.0172
5 16 14 -0.9577 -0.1263
5 16 15 3.0439 0.0963
5 16 16 -7.1734 -0.0766
5 16 17 0.9763 0.0288
5 16 18 1.5386 0.0993
5 16 19 7.6253 -0.1579
5 16 20 0.9496 0.0892
5 16 21 -10.3192 -0.2651
5 16 22 -0.9188 -0.2280
5 16 23 11.2882 0.0140
5 17 0 -1.2134 -0.0379
5 17 1 6.0596 -0.1127
5 17 2 -2.6453 0.0146
5 17 3 -0.6793 -0.0039
5 17 4 11.8734 0.1386
5 17 5 6.1727 0.0949
5 17 6 0.0560 0.1566
5 17 7 -6.7513 0.0638
5 17 8 15.0635 -0.0193
5 17 9 6.4870 0.0616
5 17 10 1.3722 0.0620
5 17 11 -5.3139 0.1171
5 17 12 -5.2761 0.1382
5 17 13 6.3254 -0.1779
5 17 14 -7.6808 0.0401
5 17 15 -0.8003 0.0221
5 17 16 4.3568 -0.0807
5 17 17 4.2487 0.4491
5 17 18 -3.1659 -0.0696
5 17 19 0.7567 0.4080
5 17 20 5.0893 0.2681
5 17 21 4.7726 -0.7144
5 18 0 -1.4659 0.0744
5 18 1 0.2210 0.0020
5 18 2 -8.0847 -0.0734
5 18 3 0.6644 -0.0459
5 18 4 3.0177 -0.0289
5 18 5 -13.9764 0.0218
5 18 6 -8.6983 -0.0198
5 18 7 -8.0288 0.0028
5 18 8 7.1355 -0.0644
5 18 9 1.3742 0.0116
5 18 10 1.4910 0.0112
5 18 11 -1.9173 0.0571
5 18 12 3.1794 0.0489
5 18 13 -7.7388 -0.0635
5 18 14 -3.2825 -0.0793
5 18 15 10.7855 -0.1437
5 18 16 -10.4678 0.3084
5 18 17 9.5136 -0.1148
5 18 18 4.5054 -0.0175
5 18 19 -10.9756 -0.0014
5 18 20 -1.1806 -0.9770
5 19 0 2.1340 -0.0204
5 19 1 -2.7582 0.0683
5 19 2 -10.1919 -0.0365
5 19 3 -12.4228 -0.1161
5 19 4 8.7619 0.0039
5 19 5 2.5363 -0.1259
5 19 6 12.5682 -0.0291
5 19 7 -8.1616 -0.0317
5 19 8 -4.9716 -0.1632
5 19 9 3.0726 0.0557
5 19 10 -8.9863 0.0696
5 19 11 -4.1661 0.0927
5 19 12 6.0194 0.1755
5 19 13 4.0050 -0.2918
5 19 14 1.7640 -0.3375
5 19 15 -10.0950 0.2804
5 19 16 -0.9744 0.0419
5 19 17 2.0699 0.1521
5 19 18 2.3821 0.5980
5 20 0 10.3305 0.0469
5 20 1 -14.9745 -0.0621
5 20 2 -1.3061 0.0406
5 20 3 11.9332 0.1097
5 20 4 9.7778 0.2147
5 20 5 -2.6778 0.0902
5 20 6 13.2650 0.0964
5 20 7 9.6172 -0.1464
5 20 8 3.7007 -0.0049
5 20 9 2.8087 -0.1912
5 20 10 0.5963 0.3115
5 20 11 2.4573 -0.0391
5 20 12 2.3760 0.1034
5 20 13 2.3371 0.0568
5 20 14 -7.6697 -0.0661
5 20 15 -10.0158 0.2080
5 20 16 7.9908 -0.3637
5 21 0 0.4555 -0.1879
5 21 1 -5.2185 -0.0969
5 21 2 -1.3476 -0.0323
5 21 3 -8.2540 -0.0898
5 21 4 -3.3956 0.0815
5 21 5 -4.3009 0.1958
5 21 6 -4.8154 -0.0878
5 21 7 -8.7815 0.0831
5 21 8 -9.4925 0.1504
5 21 9 -2.0727 -0.1100
5 21 10 -0.0690 0.2338
5 21 11 -5.5480 -0.0949
5 21 12 1.6442 -0.5494
5 21 13 15.3874 -0.1501
5 22 0 0.2686 -0.2083
5 22 1 -7.2280 0.0997
5 22 2 1.6065 -0.1304
5 22 3 3.7183 -0.0245
5 22 4 15.6241 -0.0849
5 22 5 3.0680 0.1200
5 22 6 -2.2052 -0.3194
5 22 7 -9.5355 0.0469
5 22 8 3.9324 -0.4028
5 22 9 15.0092 0.4543
5 23 0 4.8513 0.0438
5 23 1 -1.0240 0.0939
5 23 2 2.4085 -0.0564
5 23 3 -3.7158 0.1216
5 23 4 2.2168 0.1836
6 0 0 7.0091 -1.5988
6 0 2 -1.0645 0.7271
6 0 4 22.7749 2.4617
6 0 6 23.7519 0.9887
6 0 8 25.0705 -1.2456
6 0 10 2.1120 -1.7253
6 0 12 16.2996 -0.4110
6 0 14 8.8313 1.0279
6 0 16 2.6965 0.9020
6 0 18 -16.9546 -0.2122
6 0 20 -5.2075 -0.4702
6 0 22 1.0942 0.3086
6 0 24 -8.0496 0.7583
6 0 26 -7.2356 0.1486
6 0 28 5.9677 -0.5785
6 0 30 -9.3316 -0.5803
6 1 0 13.0829 -0.4458
6 1 1 52.9733 -0.6308
6 1 2 19.6644 -1.0197
6 1 3 -32.5119 -0.2279
6 1 4 -2.3116 -1.3720
6 1 5 5.4626 -0.3327
6 1 6 15.6587 -0.3991
6 1 7 -30.8755 -0.1318
6 1 8 10.0188 0.4089
6 1 9 17.2627 0.2774
6 1 10 3.1914 -0.0794
6 1 11 -21.9362 0.2713
6 1 12 -1.3425 -0.5417
6 1 13 -2.0859 0.0728
6 1 14 2.7137 0.1864
6 1 15 6.3398 -0.0373
6 1 16 -5.1714 1.1097
6 1 17 2.5698 -0.1403
6 1 18 -2.4215 0.8641
6 1 19 5.2931 0.0062
6 1 20 -9.9259 -0.3520
6 1 21 3.8051 0.0347
6 1 22 -5.0442 -0.9299
6 1 23 4.3309 -0.1256
6 1 24 1.6849 -0.2510
6 1 25 -4.7190 -0.0801
6 1 26 4.1259 0.3571
6 1 27 6.7110 0.1753
6 1 28 -4.5510 0.4762
6 1 29 -2.3776 0.0587
6 1 30 2.1553 -0.0052
6 1 31 9.1805 -0.0154
6 2 0 -12.8957 0.3728
6 2 1 -9.7751 0.3581
6 2 2 -2.4156 -0.3594
6 2 3 45.5469 0.2748
6 2 4 -5.2902 -0.6470
6 2 5 -21.9671 -0.0290
6 2 6 -16.6712 -0.0783
6 2 7 -2.2828 -0.2846
6 2 8 20.2240 0.5893
6 2 9 -6.2011 -0.1687
6 2 10 -19.6872 0.7501
6 2 11 17.0547 0.2441
6 2 12 8.6020 0.3875
6 2 13 -0.5207 0.2443
6 2 14 -7.4202 0.0085
6 2 15 7.6359 0.0217
6 2 16 2.2084 -0.3290
6 2 17 -4.9472 -0.1358
6 2 18 -5.8063 -0.2951
6 2 19 2.2244 -0.1628
6 2 20 4.3703 -0.0238
6 2 21 0.8532 -0.0211
6 2 22 -4.4443 -0.1718
6 2 23 -0.0133 0.1189
6 2 24 2.1481 -0.2492
6 2 25 -1.5153 -0.0577
6 2 26 -5.2355 0.1141
6 2 27 -0.7338 -0.1346
6 2 28 7.1150 0.2101
6 2 29 -7.2351 0.0091
6 2 30 -3.7813 0.0443
6 2 31 2.3605 -0.2089
6 3 0 -35.2895 -0.4216
6 3 1 -3.7384 0.5570
6 3 2 -31.2792 0.6439
6 3 3 2.7129 0.0381
6 3 4 -37.2452 0.7472
6 3 5 24.9228 -0.3213
6 3 6 11.9997 0.2061
6 3 7 -13.1614 -0.0088
6 3 8 -12.9493 -0.1075
6 3 9 -5.6673 0.2943
6 3 10 0.3129 0.1074
6 3 11 -7.6159 0.1973
6 3 12 -8.0060 0.1015
6 3 13 2.5637 -0.0041
6 3 14 4.9936 -0.2182
6 3 15 -2.3758 -0.1314
6 3 16 3.5366 -0.3134
6 3 17 -5.7619 -0.1235
6 3 18 9.9608 -0.2703
6 3 19 1.3704 0.0620
6 3 20 8.3469 -0.0209
6 3 21 3.2641 0.0719
6 3 22 4.5440 0.2610
6 3 23 -1.7734 -0.1312
6 3 24 -5.0896 0.2278
6 3 25 0.6408 -0.0153
6 3 26 3.6506 -0.0990
6 3 27 1.7620 0.1662
6 3 28 3.6293 0.0795
6 3 29 -0.9923 0.2402
6 3 30 3.0938 -0.1591
6 3 31 -2.3100 -0.2401
6 4 0 14.4885 0.0404
6 4 1 -1.4973 0.5071
6 4 2 -0.3952 0.0986
6 4 3 32.1758 0.2025
6 4 4 2.0308 0.4508
6 4 5 1.3290 -0.0376
6 4 6 2.2035 0.3434
6 4 7 11.2736 -0.0276
6 4 8 23.8865 -0.3116
6 4 9 -19.7847 0.0286
6 4 10 10.5001 -0.6661
6 4 11 2.5058 0.1151
6 4 12 11.9847 -0.1898
6 4 13 -11.8052 -0.0300
6 4 14 -4.6518 0.2839
6 4 15 0.2945 -0.0644
6 4 16 4.6369 0.1372
6 4 17 -14.7017 -0.1113
6 4 18 1.1051 -0.2030
6 4 19 -4.6482 -0.1153
6 4 20 -1.9954 -0.2354
6 4 21 -4.8956 0.0025
6 4 22 -2.5928 0.0549
6 4 23 -1.5254 0.1112
6 4 24 4.7645 0.2605
6 4 25 -3.6566 -0.0535
6 4 26 -14.1289 0.0920
6 4 27 1.8038 -0.0081
6 4 28 4.0972 -0.0773
6 4 29 2.0005 0.0855
6 4 30 0.7778 -0.4759
6 4 31 3.0468 -0.4653
6 5 0 -19.1185 0.0297
6 5 1 -28.9943 -0.2894
6 5 2 21.1192 -0.1247
6 5 3 -1.9061 -0.1514
6 5 4 -20.8971 -0.2146
6 5 5 -5.6824 -0.0495
6 5 6 7.1312 -0.0502
6 5 7 -3.7203 0.0077
6 5 8 -5.9059 0.0401
6 5 9 -16.4050 0.0104
6 5 10 22.6594 -0.0196
6 5 11 -6.2142 0.1013
6 5 12 -1.6080 -0.1193
6 5 13 -11.4205 0.0908
6 5 14 14.5893 -0.0337
6 5 15 10.5691 -0.0362
6 5 16 4.8307 0.1477
6 5 17 -2.9719 -0.0411
6 5 18 2.1287 0.1729
6 5 19 4.7985 -0.0204
6 5 20 -2.4897 -0.0652
6 5 21 -1.8471 0.0094
6 5 22 3.7489 -0.1656
6 5 23 0.6206 0.0400
6 5 24 -0.1871 -0.0190
6 5 25 3.3665 -0.0490
6 5 26 4.2030 0.0597
6 5 27 -3.3973 -0.0120
6 5 28 -0.6158 -0.0013
6 5 29 5.4596 0.1585
6 5 30 -7.8175 -0.1132
6 6 0 16.6326 0.0905
6 6 1 32.2409 -0.1529
6 6 2 -2.9928 -0.0031
6 6 3 -4.6758 -0.2682
6 6 4 4.7189 -0.2186
6 6 5 2.8496 0.0974
6 6 6 -8.5165 -0.1838
6 6 7 22.1043 0.2834
6 6 8 1.2263 0.1107
6 6 9 -2.2653 0.0848
6 6 10 2.6647 0.2644
6 6 11 -10.6779 -0.0867
6 6 12 7.7700 0.1131
6 6 13 -1.7662 -0.1043
6 6 14 -5.9987 -0.0787
6 6 15 -3.5168 -0.0260
6 6 16 1.6811 -0.0302
6 6 17 -3.5508 0.0656
6 6 18 -2.3852 -0.0149
6 6 19 0.4141 0.0544
6 6 20 8.6586 -0.0310
6 6 21 -2.3297 -0.1262
6 6 22 -3.9701 -0.0151
6 6 23 5.0333 -0.0030
6 6 24 3.8263 -0.0044
6 6 25 -5.1311 0.2082
6 6 26 -2.5967 -0.0392
6 6 27 -2.5139 0.0963
6 6 28 1.9025 -0.0095
6 6 29 3.2172 -0.0578
6 6 30 -2.2418 -0.2502
6 7 0 -39.9208 -0.0791
6 7 1 -12.0724 0.2628
6 7 2 -6.9138 0.0576
6 7 3 4.1715 0.0128
6 7 4 -23.2672 0.1441
6 7 5 -9.4380 -0.1351
6 7 6 -16.2764 0.0093
6 7 7 15.2311 -0.0894
6 7 8 -20.3001 -0.1301
6 7 9 -2.5844 0.0270
6 7 10 -3.9994 0.0143
6 7 11 2.8489 0.0472
6 7 12 -8.8570 0.1488
6 7 13 -4.9763 -0.0760
6 7 14 7.0373 -0.0670
6 7 15 6.1271 -0.0758
6 7 16 -3.8991 -0.2347
6 7 17 -12.9579 -0.0151
6 7 18 2.4310 -0.0180
6 7 19 7.6380 0.1315
6 7 20 4.0225 0.1449
6 7 21 -3.2328 0.1540
6 7 22 4.2234 0.1167
6 7 23 -0.6928 -0.0011
6 7 24 4.2513 0.2226
6 7 25 0.4984 -0.0585
6 7 26 -8.0120 -0.0403
6 7 27 -1.7872 0.0745
6 7 28 4.9541 -0.1295
6 7 29 -1.8680 -0.0139
6 8 0 -8.4406 0.0865
6 8 1 9.1888 -0.0087
6 8 2 6.6185 0.0266
6 8 3 18.2812 0.0601
6 8 4 9.5278 0.0761
6 8 5 7.5575 -0.0836
6 8 6 7.3000 0.0393
6 8 7 15.1870 -0.2821
6 8 8 -16.0369 -0.1883
6 8 9 26.5126 -0.0985
6 8 10 -0.2741 -0.2796
6 8 11 -3.0241 0.1796
6 8 12 1.4068 -0.1199
6 8 13 2.3896 0.0464
6 8 14 -4.3681 0.0841
6 8 15 4.0780 -0.1127
6 8 16 -3.3436 0.0886
6 8 17 7.9572 0.0485
6 8 18 -4.0216 0.0211
6 8 19 -6.4884 0.1170
6 8 20 4.2938 -0.0189
6 8 21 0.2027 -0.0534
6 8 22 -7.2204 -0.0040
6 8 23 -6.0722 0.0737
6 8 24 6.1968 0.0544
6 8 25 2.0773 0.0843
6 8 26 -0.2858 0.0678
6 8 27 -8.2237 0.0130
6 8 28 5.9069 0.0213
6 8 29 6.5278 -0.0530
6 9 0 -15.8968 -0.0513
6 9 1 1.1599 -0.2921
6 9 2 11.3728 -0.0900
6 9 3 20.8809 -0.1172
6 9 4 3.3765 -0.1647
6 9 5 -16.1384 0.1148
6 9 6 15.4098 -0.0878
6 9 7 15.8201 0.0440
6 9 8 -10.3759 -0.0255
6 9 9 2.1946 -0.0785
6 9 10 0.4774 0.0342
6 9 11 22.4811 0.0126
6 9 12 -0.0027 0.0182
6 9 13 -3.1212 0.1811
6 9 14 12.4093 -0.0033
6 9 15 6.2620 0.0645
6 9 16 -12.0907 0.1062
6 9 17 3.4388 -0.0889
6 9 18 -7.8411 0.0460
6 9 19 10.1294 -0.0884
6 9 20 -4.0894 -0.1582
6 9 21 1.6375 0.0247
6 9 22 10.5226 -0.0123
6 9 23 0.2209 0.0280
6 9 24 6.6466 0.0530
6 9 25 -7.0256 0.0061
6 9 26 -2.1554 -0.1685
6 9 27 3.0597 -0.0354
6 9 28 8.1923 0.0147
6 10 0 9.3012 -0.0635
6 10 1 4.8950 -0.1238
6 10 2 -19.9204 0.0285
6 10 3 -5.4201 -0.0432
6 10 4 -0.2652 0.0819
6 10 5 -12.6577 0.1321
6 10 6 -13.2289 -0.0055
6 10 7 -22.7450 0.2152
6 10 8 -7.0115 -0.0327
6 10 9 0.4958 0.1738
6 10 10 -24.9404 0.1431
6 10 11 -3.7832 -0.0282
6 10 12 2.2366 0.1563
6 10 13 -9.4463 -0.1488
6 10 14 -8.0647 -0.0453
6 10 15 -6.1799 -0.0339
6 10 16 10.0022 -0.1024
6 10 17 3.6503 0.0863
6 10 18 -20.0909 0.0148
6 10 19 -1.0723 0.0045
6 10 20 -2.5710 0.0457
6 10 21 1.6813 -0.1863
6 10 22 -4.5758 0.0303
6 10 23 -5.6580 0.0053
6 10 24 8.2609 0.0752
6 10 25 -1.7214 0.0843
6 10 26 1.6671 -0.0620
6 10 27 -4.6006 -0.0236
6 10 28 2.0514 0.2128
6 11 0 -1.3292 0.0770
6 11 1 -13.1202 0.1253
6 11 2 1.7834 0.0750
6 11 3 23.0210 0.1484
6 11 4 -9.9290 0.0829
6 11 5 -11.8963 -0.0236
6 11 6 6.2327 0.0091
6 11 7 11.4025 -0.0339
6 11 8 16.5323 -0.0692
6 11 9 -1.5317 0.0786
6 11 10 0.6229 -0.0088
6 11 11 16.0404 -0.0261
6 11 12 -7.1282 0.0620
6 11 13 -3.5407 -0.1782
6 11 14 -1.4957 0.1049
6 11 15 2.6879 -0.0600
6 11 16 11.2119 -0.1001
6 11 17 -6.9021 0.1353
6 11 18 7.7984 -0.1658
6 11 19 7.6952 0.0381
6 11 20 -0.0486 -0.1394
6 11 21 4.1632 -0.1663
6 11 22 -1.1948 0.0466
6 11 23 0.8143 0.1206
6 11 24 5.7861 0.0767
6 11 25 -4.6350 0.0081
6 11 26 0.7999 -0.4348
6 11 27 1.3081 -0.3230
6 12 0 6.4803 0.0318
6 12 1 0.2032 -0.0393
6 12 2 1.1943 -0.0136
6 12 3 -3.2467 0.1000
6 12 4 -4.2436 0.0366
6 12 5 24.6365 -0.0124
6 12 6 -8.8762 -0.0629
6 12 7 -13.2085 -0.2022
6 12 8 4.1932 -0.0427
6 12 9 2.1954 -0.1095
6 12 10 0.0053 0.0455
6 12 11 -11.0084 0.1127
6 12 12 -5.4465 -0.0856
6 12 13 13.9430 0.1512
6 12 14 -0.3712 -0.0451
6 12 15 -3.2325 -0.0455
6 12 16 -5.1027 0.0953
6 12 17 3.5696 0.0100
6 12 18 5.1347 0.0933
6 12 19 -10.4271 0.0548
6 12 20 -2.6886 -0.0597
6 12 21 1.7648 -0.0593
6 12 22 -1.4730 -0.0426
6 12 23 1.3702 0.1329
6 12 24 -2.2814 0.0604
6 12 25 -1.7221 -0.1839
6 12 26 -3.4931 -0.0834
6 13 0 15.8040 -0.0083
6 13 1 -6.3713 -0.1962
6 13 2 1.9822 0.0364
6 13 3 4.9051 -0.0465
6 13 4 1.2482 0.0715
6 13 5 -0.2631 0.1208
6 13 6 -7.0310 -0.0516
6 13 7 16.4605 0.0893
6 13 8 2.8851 -0.0340
6 13 9 -2.6586 0.0610
6 13 10 4.1943 0.1244
6 13 11 6.0852 0.0245
6 13 12 -7.3676 0.1277
6 13 13 0.6212 0.0514
6 13 14 -4.0945 -0.0955
6 13 15 6.3510 0.1240
6 13 16 0.0900 0.0137
6 13 17 -2.2993 -0.0546
6 13 18 -8.2416 0.1833
6 13 19 -4.7977 -0.2039
6 13 20 4.4089 0.1005
6 13 21 -5.4747 0.0403
6 13 22 -6.2125 0.0486
6 13 23 6.6852 0.1478
6 13 24 -1.7976 -0.1911
6 13 25 4.2116 -0.3435
6 14 0 6.9864 0.0562
6 14 1 -17.5488 -0.0012
6 14 2 -2.8352 -0.0269
6 14 3 -4.0135 -0.0910
6 14 4 -3.9184 0.1103
6 14 5 3.3406 -0.0115
6 14 6 -9.1222 0.0069
6 14 7 -3.0702 0.0469
6 14 8 -1.0488 -0.0414
6 14 9 5.2761 0.0563
6 14 10 -3.6008 0.0537
6 14 11 4.6228 -0.0445
6 14 12 -0.3585 0.0431
6 14 13 6.8210 -0.2041
6 14 14 -1.5476 -0.0066
6 14 15 3.8140 -0.0998
6 14 16 -0.6416 -0.1241
6 14 17 12.0332 0.1194
6 14 18 6.2405 -0.0648
6 14 19 -5.8975 0.0025
6 14 20 4.7586 0.0632
6 14 21 4.5721 0.0279
6 14 22 6.0741 -0.0511
6 14 23 -1.8359 0.0541
6 14 24 -1.7006 -0.0419
6 15 0 16.5101 0.0964
6 15 1 2.8663 0.0488
6 15 2 9.3943 0.1013
6 15 3 4.1762 0.0676
6 15 4 4.6950 0.0218
6 15 5 -3.6741 -0.0442
6 15 6 -6.8687 0.0005
6 15 7 4.6914 -0.1455
6 15 8 13.8111 0.0575
6 15 9 7.3557 -0.0235
6 15 10 -21.1740 0.0297
6 15 11 -1.5317 0.0529
6 15 12 13.1511 -0.0625
6 15 13 -3.8463 0.0769
6 15 14 -7.8108 0.0341
6 15 15 10.2589 -0.2408
6 15 16 -3.0077 0.1771
6 15 17 -9.2721 -0.0293
6 15 18 -7.9591 -0.0638
6 15 19 -7.1505 0.2239
6 15 20 4.6441 -0.2910
6 15 21 2.1282 0.1296
6 15 22 -0.9903 0.2747
6 15 23 -7.7689 0.1859
6 16 0 -12.2967 -0.0360
6 16 1 -14.5578 0.0140
6 16 2 8.0221 0.0281
6 16 3 -15.8178 -0.0298
6 16 4 3.2011 -0.0035
6 16 5 -4.9697 -0.0574
6 16 6 0.7947 -0.0946
6 16 7 1.1139 -0.1071
6 16 8 -7.1317 -0.0124
6 16 9 -2.8126 -0.0843
6 16 10 1.1165 0.0032
6 16 11 0.1027 -0.0605
6 16 12 -3.5903 -0.0497
6 16 13 6.0553 -0.0047
6 16 14 11.7227 -0.1302
6 16 15 -0.0195 -0.1088
6 16 16 -5.3276 -0.0626
6 16 17 13.2871 0.0052
6 16 18 1.0848 0.1172
6 16 19 -16.1561 -0.2039
6 16 20 3.6398 -0.2786
6 16 21 5.0579 0.1238
6 16 22 -1.5656 -0.1749
6 17 0 16.9967 -0.0611
6 17 1 -4.4230 -0.1116
6 17 2 8.2233 0.0763
6 17 3 -8.2328 0.0313
6 17 4 7.9143 0.1195
6 17 5 -4.1205 -0.0832
6 17 6 1.9690 0.0272
6 17 7 -1.1200 -0.0667
6 17 8 -8.2478 0.0350
6 17 9 1.6978 0.0542
6 17 10 -0.6884 0.0972
6 17 11 4.3851 0.0253
6 17 12 -0.6551 0.0025
6 17 13 -8.2811 -0.0848
6 17 14 -1.4283 -0.0766
6 17 15 -10.4267 0.1640
6 17 16 2.2798 -0.2053
6 17 17 3.3257 0.4475
6 17 18 -15.1548 0.1483
6 17 19 0.3423 -0.2525
6 17 20 5.8488 0.3458
6 18 0 5.1862 0.0560
6 18 1 21.9409 0.0202
6 18 2 8.2585 -0.0534
6 18 3 -2.4499 0.0048
6 18 4 4.1775 0.0755
6 18 5 -10.7902 -0.0360
6 18 6 10.7172 0.1304
6 18 7 1.6146 0.0034
6 18 8 -10.5471 0.1347
6 18 9 18.0573 0.0859
6 18 10 -0.9923 0.0399
6 18 11 -2.2738 -0.0065
6 18 12 2.9702 -0.1393
6 18 13 -3.4580 -0.0587
6 18 14 6.4027 0.3064
6 18 15 8.0328 -0.0885
6 18 16 -0.0635 0.0809
6 18 17 -2.6142 0.2009
6 18 18 1.1051 -0.9577
6 18 19 17.1930 0.1291
6 19 0 3.4421 0.0271
6 19 1 1.5165 0.1180
6 19 2 -6.9367 -0.0146
6 19 3 6.4560 -0.0617
6 19 4 -4.4309 -0.0334
6 19 5 -5.6073 -0.1243
6 19 6 1.1647 -0.3389
6 19 7 -4.8391 -0.0062
6 19 8 3.8397 -0.1326
6 19 9 4.7316 0.0055
6 19 10 -13.8226 -0.0156
6 19 11 -2.8820 -0.1522
6 19 12 6.7250 0.0047
6 19 13 6.8488 -0.1490
6 19 14 -13.5479 0.0117
6 19 15 0.6778 0.1997
6 19 16 1.2209 0.2370
6 19 17 -0.8160 -0.4285
6 20 0 -4.0998 -0.0703
6 20 1 6.0619 0.1566
6 20 2 -3.5151 0.0574
6 20 3 -3.8532 -0.0354
6 20 4 0.0032 -0.0311
6 20 5 -10.6084 -0.1486
6 20 6 2.4998 -0.0312
6 20 7 11.6619 -0.1388
6 20 8 -11.4813 0.1067
6 20 9 3.8516 -0.0241
6 20 10 -1.3060 0.0401
6 20 11 -5.7352 0.2761
6 20 12 2.4849 0.0340
6 20 13 -0.7874 0.4598
6 20 14 -2.6224 -0.0317
6 21 0 5.1335 0.1040
6 21 1 7.9194 -0.0528
6 21 2 -7.0399 0.0216
6 21 3 -5.5877 0.1800
6 21 4 1.5572 -0.0511
6 21 5 6.5433 0.3194
6 21 6 8.1111 0.2044
6 21 7 6.3387 -0.0140
6 21 8 -4.4540 0.5254
6 21 9 1.3946 0.0206
6 21 10 5.4551 0.1705
6 21 11 -1.3772 -0.2405
6 22 0 2.0328 0.1646
6 22 1 -1.2313 0.1785
6 22 2 -5.5253 0.0021
6 22 3 6.9746 0.1873
6 22 4 2.4945 -0.5037
6 22 5 -1.6044 0.0439
6 22 6 -1.7550 -0.6184
6 22 7 -2.7363 0.1253
7 0 0 -3.9318 -2.9237
7 0 2 39.3448 2.7488
7 0 4 -56.5671 2.9575
7 0 6 35.9722 0.0347
7 0 8 -21.3637 -1.7255
7 0 10 12.6199 -0.8055
7 0 12 -1.3478 0.6486
7 0 14 14.4394 0.6612
7 0 16 -5.3665 -0.4608
7 0 18 5.4759 -0.7638
7 0 20 15.4896 0.2614
7 0 22 0.6019 1.0239
7 0 24 1.0218 0.5152
7 0 26 -1.2896 -0.4656
7 0 28 5.0319 -0.6454
7 1 0 5.3341 -0.6372
7 1 1 0.1558 -0.5655
7 1 2 15.7905 -0.5582
7 1 3 -12.8419 -0.4357
7 1 4 17.7373 0.0874
7 1 5 11.7280 -0.3703
7 1 6 -16.1941 0.4170
7 1 7 -20.8822 -0.0176
7 1 8 7.7264 -0.5098
7 1 9 -17.6281 0.1943
7 1 10 8.2142 -1.3710
7 1 11 -7.6840 0.1088
7 1 12 5.2253 -0.5539
7 1 13 1.6466 0.0410
7 1 14 10.1057 1.0503
7 1 15 -8.5563 0.0823
7 1 16 7.4564 1.3882
7 1 17 3.6472 0.1317
7 1 18 3.6605 0.2052
7 1 19 -3.8314 0.0854
7 1 20 -0.2400 -0.6378
7 1 21 -7.1223 -0.1457
7 1 22 -2.8478 -0.2323
7 1 23 3.2143 -0.2252
7 1 24 1.9320 0.2562
7 1 25 6.4200 0.0021
7 1 26 -3.4773 0.2950
7 1 27 -6.3236 0.1417
7 1 28 6.8412 -0.0455
7 1 29 3.5761 0.3041
7 1 30 -5.5947 -0.4370
7 2 0 -19.4358 0.3045
7 2 1 -6.7597 -0.0253
7 2 2 41.0299 -0.8555
7 2 3 -8.3699 0.1150
7 2 4 -3.2941 -0.9854
7 2 5 -4.7432 -0.1646
7 2 6 43.9080 -0.1228
7 2 7 11.4036 -0.2703
7 2 8 12.8056 0.3718
7 2 9 4.2086 -0.0554
7 2 10 25.7524 0.4530
7 2 11 -10.9064 0.1325
7 2 12 -6.6023 0.2774
7 2 13 -10.2855 0.0895
7 2 14 3.9292 0.1081
7 2 15 -0.8700 0.0136
7 2 16 -1.2991 0.1019
7 2 17 1.6530 -0.0997
7 2 18 -10.4000 0.1358
7 2 19 -2.4830 -0.0367
7 2 20 3.8766 -0.2050
7 2 21 -4.8920 0.1186
7 2 22 -7.1137 -0.5218
7 2 23 3.7293 -0.0342
7 2 24 0.8628 -0.1371
7 2 25 -3.0130 -0.2370
7 2 26 -4.0515 0.2081
7 2 27 6.9693 0.0613
7 2 28 8.0714 0.1696
7 2 29 4.5681 -0.0291
7 2 30 -10.4132 -0.0684
7 3 0 -16.4490 -0.0932
7 3 1 9.2843 0.2096
7 3 2 12.2099 0.4788
7 3 3 -32.2395 -0.2387
7 3 4 -12.9714 0.2577
7 3 5 -3.1666 -0.2105
7 3 6 -18.5713 0.0521
7 3 7 -27.2677 0.1304
7 3 8 -9.1029 0.2605
7 3 9 5.4249 0.1930
7 3 10 7.9581 0.4691
7 3 11 -13.0645 0.0552
7 3 12 4.6685 0.1095
7 3 13 9.7865 -0.0366
7 3 14 -1.8037 -0.2103
7 3 15 -0.9638 0.0159
7 3 16 3.0295 -0.2964
7 3 17 4.8480 0.0967
7 3 18 -3.1434 -0.2037
7 3 19 4.7481 0.0221
7 3 20 1.7634 0.0214
7 3 21 0.7341 -0.1831
7 3 22 5.7815 0.1442
7 3 23 -1.5016 -0.1182
7 3 24 -2.4408 -0.0788
7 3 25 0.7773 0.1086
7 3 26 -6.1519 0.0417
7 3 27 1.2426 0.2921
7 3 28 -2.0548 0.0538
7 3 29 -5.8625 0.0228
7 3 30 -1.4622 -0.3356
7 4 0 -15.4894 0.1122
7 4 1 0.0396 0.5822
7 4 2 -6.9924 0.4662
7 4 3 27.4062 0.1725
7 4 4 9.7184 0.6545
7 4 5 -7.4541 -0.0914
7 4 6 -0.6790 0.1561
7 4 7 30.6417 0.0010
7 4 8 -11.0248 -0.5261
7 4 9 -8.5473 0.0689
7 4 10 -13.0697 -0.3727
7 4 11 3.3237 0.0895
7 4 12 4.8369 0.1423
7 4 13 -11.1900 0.0045
7 4 14 8.1912 0.1911
7 4 15 -0.2243 -0.1210
7 4 16 0.9355 -0.1386
7 4 17 -5.3256 -0.1552
7 4 18 -2.9199 -0.3198
7 4 19 -0.2050 -0.0475
7 4 20 -0.7458 -0.0438
7 4 21 -2.8024 0.1238
7 4 22 6.9821 0.2052
7 4 23 -0.6618 0.0020
7 4 24 1.0884 0.1332
7 4 25 2.3759 -0.0417
7 4 26 1.1152 -0.0213
7 4 27 8.9125 0.1607
7 4 28 5.6418 -0.1009
7 4 29 -3.2535 -0.1003
7 4 30 -11.4439 -0.3761
7 5 0 -37.8418 -0.0837
7 5 1 16.2361 -0.0527
7 5 2 -1.5178 0.0938
7 5 3 -1.2138 0.0094
7 5 4 -8.1265 0.1197
7 5 5 -1.2795 -0.0385
7 5 6 0.3786 -0.0080
7 5 7 -6.2568 -0.0446
7 5 8 0.2338 -0.1815
7 5 9 17.8073 -0.0070
7 5 10 -6.1956 -0.2331
7 5 11 0.6164 0.0862
7 5 12 2.8957 -0.1192
7 5 13 -3.1991 -0.0150
7 5 14 2.7958 0.0622
7 5 15 -10.9376 -0.0248
7 5 16 8.1490 0.1778
7 5 17 -1.2021 -0.0565
7 5 18 0.6529 -0.0053
7 5 19 -1.7729 -0.0561
7 5 20 5.3610 -0.2128
7 5 21 -3.7720 0.0023
7 5 22 -5.7870 -0.1206
7 5 23 -5.8100 -0.0262
7 5 24 -1.6459 0.0299
7 5 25 0.0714 -0.0790
7 5 26 2.1567 0.0140
7 5 27 2.7911 0.1178
7 5 28 -2.1071 -0.1148
7 5 29 3.3789 -0.2116
7 6 0 -17.7966 0.2032
7 6 1 20.3482 -0.2871
7 6 2 -9.3364 -0.0334
7 6 3 -7.6419 -0.1631
7 6 4 27.7018 -0.2245
7 6 5 -9.8408 0.2356
7 6 6 -1.2642 -0.0613
7 6 7 -4.9235 0.2293
7 6 8 19.6320 0.1576
7 6 9 -18.0333 -0.0141
7 6 10 -10.7135 0.1206
7 6 11 4.7415 -0.0448
7 6 12 6.1899 0.0208
7 6 13 7.3007 0.0183
7 6 14 -3.0051 0.0959
7 6 15 -6.2988 0.0881
7 6 16 7.9298 0.0354
7 6 17 -14.2663 0.0391
7 6 18 -2.8034 -0.0608
7 6 19 -0.5804 -0.1363
7 6 20 0.7993 -0.0778
7 6 21 -0.9614 -0.0399
7 6 22 -1.5607 -0.0303
7 6 23 -1.0324 0.1750
7 6 24 5.6891 -0.0001
7 6 25 -6.6612 0.1624
7 6 26 2.5425 0.0763
7 6 27 3.1230 0.1568
7 6 28 -0.4432 -0.1546
7 6 29 5.9496 -0.3653
7 7 0 -6.8629 0.0082
7 7 1 0.3237 -0.0296
7 7 2 -17.4908 0.0849
7 7 3 -3.5950 -0.0292
7 7 4 8.4761 -0.0102
7 7 5 2.5282 0.0682
7 7 6 18.8865 -0.1247
7 7 7 -7.5283 0.1295
7 7 8 7.0442 0.0266
7 7 9 -6.3985 0.0412
7 7 10 12.0761 0.2779
7 7 11 -0.3790 -0.1147
7 7 12 7.8460 0.1497
7 7 13 7.4545 -0.0776
7 7 14 4.9999 -0.1955
7 7 15 1.2286 -0.0266
7 7 16 5.4861 -0.1422
7 7 17 3.0593 0.0513
7 7 18 12.2888 -0.0012
7 7 19 -16.8229 0.1026
7 7 20 7.6999 0.0137
7 7 21 4.7759 0.0054
7 7 22 8.2666 0.1309
7 7 23 -5.5710 -0.0650
7 7 24 -8.2712 0.0514
7 7 25 4.0346 0.0288
7 7 26 11.5635 -0.0901
7 7 27 -0.5301 -0.0038
7 7 28 -3.9125 -0.1063
7 8 0 -3.1910 0.0769
7 8 1 -4.8080 0.1609
7 8 2 -24.5273 0.0894
7 8 3 8.2219 0.0025
7 8 4 -19.8494 0.0868
7 8 5 -4.1289 -0.1597
7 8 6 7.2252 -0.0153
7 8 7 -1.3708 -0.2358
7 8 8 -5.5706 -0.1952
7 8 9 -18.9350 -0.0211
7 8 10 -16.5793 -0.1805
7 8 11 -3.3611 0.0842
7 8 12 0.6871 -0.0200
7 8 13 -14.2269 -0.0462
7 8 14 -4.7764 0.0368
7 8 15 -2.3664 0.0888
7 8 16 8.9389 0.0081
7 8 17 -6.3187 0.0862
7 8 18 2.8886 -0.0164
7 8 19 -17.3551 -0.0018
7 8 20 10.2427 0.0029
7 8 21 -5.6173 0.0515
7 8 22 0.6655 0.0873
7 8 23 -3.4941 0.0653
7 8 24 3.1872 0.1969
7 8 25 -3.8292 0.0989
7 8 26 -8.8166 0.0473
7 8 27 0.9809 0.2981
7 8 28 5.9935 -0.0248
7 9 0 -4.2327 0.0460
7 9 1 8.9844 -0.1906
7 9 2 8.5710 -0.1350
7 9 3 13.5148 0.0171
7 9 4 -8.3793 -0.1562
7 9 5 30.1995 -0.0101
7 9 6 -6.3538 -0.0681
7 9 7 9.0984 -0.1707
7 9 8 3.5799 -0.0513
7 9 9 -0.1395 -0.1215
7 9 10 13.5655 -0.0756
7 9 11 1.1875 0.1051
7 9 12 -11.7934 -0.1811
7 9 13 5.9090 0.1165
7 9 14 8.8871 0.0582
7 9 15 1.1820 -0.0329
7 9 16 1.5160 0.1382
7 9 17 -2.7534 -0.0440
7 9 18 14.9096 -0.0968
7 9 19 -9.9642 0.0672
7 9 20 6.6424 -0.0904
7 9 21 -2.7854 0.0380
7 9 22 5.8729 0.0274
7 9 23 -4.0370 0.0425
7 9 24 -5.7477 -0.1021
7 9 25 3.2183 -0.0516
7 9 26 4.0309 -0.1801
7 9 27 1.1673 0.0393
7 10 0 3.7469 -0.0118
7 10 1 -8.6702 -0.1781
7 10 2 -15.3778 0.0362
7 10 3 16.9509 -0.0949
7 10 4 7.3955 -0.0906
7 10 5 5.9334 0.1181
7 10 6 -21.1525 -0.0441
7 10 7 4.9162 0.1390
7 10 8 1.6769 0.0381
7 10 9 7.8318 0.0890
7 10 10 -1.7108 0.1249
7 10 11 -2.9825 -0.0330
7 10 12 9.8865 0.0271
7 10 13 14.7267 -0.0316
7 10 14 -10.0684 -0.0756
7 10 15 4.1563 0.0819
7 10 16 7.2017 0.0594
7 10 17 -6.1479 -0.0137
7 10 18 -2.8136 0.0545
7 10 19 -4.5797 -0.1361
7 10 20 7.9800 0.0086
7 10 21 -1.3171 -0.0921
7 10 22 -4.9448 0.0588
7 10 23 -1.8851 0.0164
7 10 24 5.7201 -0.0862
7 10 25 2.3342 0.1803
7 10 26 -2.7416 -0.0284
7 10 27 6.2634 0.0490
7 11 0 -9.6998 0.0721
7 11 1 -9.2321 0.0844
7 11 2 5.0297 0.0803
7 11 3 0.6326 0.0186
7 11 4 -1.4002 0.0648
7 11 5 9.5153 -0.0298
7 11 6 -10.2040 -0.0068
7 11 7 0.0789 0.1299
7 11 8 -15.8054 -0.0174
7 11 9 3.1790 0.1499
7 11 10 6.1312 0.0973
7 11 11 -2.7694 -0.0532
7 11 12 -7.5112 0.0985
7 11 13 -1.3966 -0.2049
7 11 14 -6.7262 0.0499
7 11 15 6.6771 0.0459
7 11 16 -11.2823 -0.0693
7 11 17 -5.6121 0.0797
7 11 18 4.9522 -0.2005
7 11 19 2.5728 -0.1364
7 11 20 -2.0813 -0.0681
7 11 21 -7.0270 -0.0237
7 11 22 2.6786 0.1259
7 11 23 -1.9057 0.1007
7 11 24 -4.7568 0.0969
7 11 25 -5.9038 -0.1818
7 11 26 4.6193 -0.3800
7 12 0 8.3218 0.0252
7 12 1 4.1186 0.1446
7 12 2 -10.9427 0.0803
7 12 3 -20.9889 0.1104
7 12 4 4.3675 0.0416
7 12 5 -3.8573 -0.1623
7 12 6 -14.0521 0.0292
7 12 7 7.8066 -0.1925
7 12 8 1.6751 -0.0085
7 12 9 4.0804 0.0177
7 12 10 -16.0237 -0.0193
7 12 11 -5.5981 0.0561
7 12 12 4.3396 -0.1132
7 12 13 1.7546 -0.0948
7 12 14 -3.8711 0.0244
7 12 15 1.9516 0.0301
7 12 16 5.0186 0.0628
7 12 17 4.5255 0.1135
7 12 18 2.0095 -0.1398
7 12 19 -1.2677 0.0785
7 12 20 8.4288 -0.0814
7 12 21 1.2016 0.0531
7 12 22 4.6085 0.0056
7 12 23 -4.5697 0.1173
7 12 24 5.9676 -0.3056
7 12 25 6.0479 -0.2063
7 13 0 0.4384 -0.0134
7 13 1 15.1522 -0.1321
7 13 2 16.3363 0.0469
7 13 3 5.5212 -0.0043
7 13 4 8.1213 0.0612
7 13 5 -11.8306 0.0254
7 13 6 2.4173 -0.0332
7 13 7 13.3033 -0.0063
7 13 8 -2.9339 0.0230
7 13 9 1.0075 0.0035
7 13 10 -0.0470 0.0928
7 13 11 -5.6531 0.0797
7 13 12 -3.8598 -0.0892
7 13 13 -5.1944 0.1809
7 13 14 7.2714 0.0126
7 13 15 2.4194 0.1616
7 13 16 -2.1623 0.1415
7 13 17 -5.0341 -0.1716
7 13 18 4.1990 0.0633
7 13 19 -2.8856 -0.1167
7 13 20 -3.2748 0.1033
7 13 21 -5.2256 0.1456
7 13 22 2.3014 0.1055
7 13 23 -1.3618 0.0533
7 13 24 -4.8808 -0.4523
7 14 0 -9.5200 -0.0316
7 14 1 -1.9010 -0.1181
7 14 2 -5.6797 -0.0055
7 14 3 -7.6407 -0.1037
7 14 4 -5.5231 0.0075
7 14 5 -1.4499 0.0154
7 14 6 1.0371 -0.0478
7 14 7 -7.8868 0.1084
7 14 8 3.0608 0.0759
7 14 9 12.0514 0.0643
7 14 10 -5.1261 0.1167
7 14 11 -4.2647 -0.0985
7 14 12 5.2768 -0.0045
7 14 13 3.0222 -0.0842
7 14 14 4.8901 -0.1627
7 14 15 -4.9284 0.1457
7 14 16 7.3540 -0.1280
7 14 17 8.0782 -0.0231
7 14 18 0.9976 0.0060
7 14 19 -7.2951 -0.0438
7 14 20 -2.5068 0.1283
7 14 21 -2.1358 0.0563
7 14 22 -5.0334 -0.1409
7 14 23 3.2743 -0.2721
7 15 0 9.5180 0.0576
7 15 1 -3.0450 0.1359
7 15 2 -6.6426 -0.0054
7 15 3 14.8030 -0.0169
7 15 4 -0.9518 -0.0008
7 15 5 4.7332 -0.1093
7 15 6 1.8605 0.0705
7 15 7 2.4000 -0.0285
7 15 8 8.3577 0.0696
7 15 9 -1.1540 0.0480
7 15 10 -7.7841 -0.0027
7 15 11 11.0601 0.0303
7 15 12 -6.6006 -0.0536
7 15 13 -12.1407 -0.1520
7 15 14 -0.2536 0.0807
7 15 15 0.4565 0.0148
7 15 16 -0.7152 0.0169
7 15 17 -1.8730 0.1068
7 15 18 14.5510 -0.2124
7 15 19 12.8336 0.1043
7 15 20 -4.6976 0.1816
7 15 21 4.4863 0.3162
7 15 22 6.9978 -0.0558
7 16 0 0.0332 0.0934
7 16 1 -0.7993 0.1276
7 16 2 1.8234 -0.0089
7 16 3 -4.6634 0.0517
7 16 4 -8.2519 -0.0989
7 16 5 7.4305 -0.0381
7 16 6 4.7171 -0.0644
7 16 7 8.5683 -0.1395
7 16 8 -9.0210 0.1159
7 16 9 2.5529 -0.0367
7 16 10 2.8282 -0.0028
7 16 11 -2.2560 -0.0353
7 16 12 0.5838 -0.2533
7 16 13 10.7343 0.0706
7 16 14 -1.4248 -0.0545
7 16 15 -7.6185 -0.1018
7 16 16 -7.5685 0.2642
7 16 17 -1.1880 -0.3554
7 16 18 -2.3211 -0.0280
7 16 19 -7.6116 0.0737
7 16 20 -5.1730 -0.3240
7 17 0 2.8655 -0.0733
7 17 1 -7.8200 0.0319
7 17 2 4.5797 0.0274
7 17 3 3.0586 0.0758
7 17 4 -8.5429 -0.0163
7 17 5 -1.4764 -0.1048
7 17 6 -2.7880 -0.0459
7 17 7 0.2373 -0.0654
7 17 8 -0.6357 0.1220
7 17 9 -1.5816 0.0481
7 17 10 -1.1414 0.0307
7 17 11 1.5380 -0.0374
7 17 12 -2.4683 -0.1343
7 17 13 -1.0564 0.0483
7 17 14 -8.1531 -0.2136
7 17 15 8.3180 0.1334
7 17 16 5.0326 -0.0771
7 17 17 -7.3410 -0.0825
7 17 18 4.3199 -0.0053
7 17 19 -1.0830 -0.5139
7 18 0 -6.6598 -0.1316
7 18 1 -8.6210 -0.0045
7 18 2 13.0140 -0.0349
7 18 3 -1.1347 0.0478
7 18 4 -12.1621 0.0797
7 18 5 5.9007 0.0693
7 18 6 4.0231 0.1714
7 18 7 -6.9412 0.1540
7 18 8 -1.9779 0.1949
7 18 9 6.3745 0.2553
7 18 10 7.4825 -0.1237
7 18 11 -3.1550 -0.1122
7 18 12 5.8227 -0.0742
7 18 13 -9.4924 -0.0618
7 18 14 2.2052 0.4595
7 18 15 5.2212 0.4016
7 18 16 -5.5074 -0.5499
7 18 17 -7.4680 0.4912
7 19 0 0.3458 0.0994
7 19 1 0.9821 0.0283
7 19 2 2.9314 -0.1055
7 19 3 -4.0567 0.0888
7 19 4 4.0212 -0.2494
7 19 5 -0.2282 -0.0507
7 19 6 3.2659 -0.1461
7 19 7 7.7241 -0.0105
7 19 8 -3.2902 -0.0214
7 19 9 -1.7854 0.0698
7 19 10 5.5454 -0.1913
7 19 11 -12.3073 -0.1921
7 19 12 3.4457 -0.1832
7 19 13 7.6189 0.0014
7 19 14 -0.1068 0.3247
7 19 15 -2.8277 -0.7625
7 20 0 -7.4014 -0.0222
7 20 1 11.8762 -0.0189
7 20 2 7.4484 -0.1526
7 20 3 -7.2162 -0.0237
7 20 4 -4.2232 -0.0373
7 20 5 3.1245 -0.1871
7 20 6 -3.8401 -0.0993
7 20 7 -0.7629 -0.0658
7 20 8 -3.7236 -0.1288
7 20 9 1.2214 0.0350
7 20 10 7.7031 0.0730
7 20 11 -3.3668 -0.2913
7 20 12 -10.7441 0.0645
7 21 0 -5.3751 -0.0652
7 21 1 -14.5576 0.0839
7 21 2 -5.1806 -0.0906
7 21 3 1.7085 0.1460
7 21 4 -0.3379 0.3440
7 21 5 7.0387 -0.1440
7 21 6 -1.3177 0.4178
7 21 7 5.4522 -0.1344
7 21 8 -2.9979 0.3174
7 21 9 -0.9415 -0.3147
7 22 0 -8.0293 0.0078
7 22 1 -8.2293 -0.0188
7 22 2 2.4662 -0.3389
7 22 3 -0.1638 0.2110
7 22 4 -3.5054 -0.6767
8 0 0 -3.8994 -2.3189
8 0 2 24.0713 2.9969
8 0 4 31.9573 1.5018
8 0 6 -0.9773 -0.7993
8 0 8 3.7242 -0.7975
8 0 10 -6.6863 0.5871
8 0 12 -14.7878 0.8294
8 0 14 -5.1732 -0.5416
8 0 16 -11.9499 -1.3995
8 0 18 -7.0797 -0.3549
8 0 20 -3.4086 1.0141
8 0 22 -3.1482 0.8910
8 0 24 -3.0282 -0.1946
8 0 26 -8.1332 -0.6612
8 0 28 5.8155 -0.1497
8 1 0 -4.3680 -0.1125
8 1 1 -35.2178 -0.3558
8 1 2 -22.2910 0.6592
8 1 3 -0.8960 -0.3201
8 1 4 16.2399 1.3734
8 1 5 -32.5579 -0.1330
8 1 6 -9.8725 0.3355
8 1 7 15.5025 0.1547
8 1 8 1.4329 -1.4626
8 1 9 -1.5028 -0.0485
8 1 10 -7.6074 -1.5694
8 1 11 12.7114 -0.1125
8 1 12 19.0001 0.1974
8 1 13 -9.7054 0.1039
8 1 14 -0.1491 1.2493
8 1 15 11.7905 0.2640
8 1 16 -2.9046 0.4388
8 1 17 2.1315 0.2051
8 1 18 5.4073 -0.4025
8 1 19 -0.0868 -0.0621
8 1 20 5.4212 -0.0606
8 1 21 8.1036 -0.1513
8 1 22 2.6940 0.4729
8 1 23 -0.2574 -0.0396
8 1 24 2.1087 0.4155
8 1 25 2.8306 -0.0020
8 1 26 -14.9930 0.0002
8 1 27 -7.3976 -0.0101
8 1 28 4.7322 -0.5901
8 2 0 15.2125 -0.2491
8 2 1 6.2026 -0.4220
8 2 2 21.1702 -0.9271
8 2 3 16.7867 -0.0981
8 2 4 1.1864 -0.7523
8 2 5 -12.3770 -0.1261
8 2 6 16.4658 -0.1360
8 2 7 -11.0040 -0.1204
8 2 8 -8.0376 -0.0605
8 2 9 -5.5030 0.0010
8 2 10 -2.2524 -0.0816
8 2 11 -1.9881 0.0304
8 2 12 -0.8127 0.1253
8 2 13 -10.6454 0.0282
8 2 14 12.0712 0.4173
8 2 15 -4.5170 -0.1175
8 2 16 3.1371 0.6128
8 2 17 -4.4344 -0.0463
8 2 18 -4.0306 0.1837
8 2 19 -3.6953 0.2037
8 2 20 -2.3872 -0.3942
8 2 21 2.3453 0.0951
8 2 22 0.8289 -0.3655
8 2 23 1.7579 -0.3036
8 2 24 5.8016 -0.0145
8 2 25 -6.4923 -0.1385
8 2 26 -2.0781 0.1452
8 2 27 7.5549 0.0954
8 2 28 -0.1244 0.0004
8 3 0 -6.6447 0.1138
8 3 1 -42.8069 -0.2455
8 3 2 -1.1434 -0.1327
8 3 3 -0.6263 -0.1813
8 3 4 19.6781 -0.2553
8 3 5 -12.1706 0.0888
8 3 6 15.7802 0.0637
8 3 7 -2.6538 0.1489
8 3 8 26.2756 0.5572
8 3 9 -13.8305 -0.0633
8 3 10 2.8566 0.4694
8 3 11 4.7184 -0.1151
8 3 12 -10.6213 0.1019
8 3 13 -2.0320 0.0662
8 3 14 8.0564 -0.0911
8 3 15 -1.9396 0.2586
8 3 16 10.5446 -0.0978
8 3 17 0.1843 0.1310
8 3 18 3.2286 0.0310
8 3 19 1.6666 -0.1733
8 3 20 -5.8405 -0.0380
8 3 21 0.7913 -0.1945
8 3 22 -5.9774 -0.2271
8 3 23 -2.2614 -0.0367
8 3 24 1.3513 -0.0980
8 3 25 -1.0592 0.1130
8 3 26 0.0125 0.2236
8 3 27 -3.7891 0.0389
8 3 28 0.8905 -0.0336
8 3 29 3.1019 -0.1558
8 4 0 16.8981 0.1869
8 4 1 -29.8669 0.2696
8 4 2 5.3779 0.5613
8 4 3 -13.8457 -0.0054
8 4 4 0.0347 0.3278
8 4 5 -22.5823 -0.0602
8 4 6 18.1593 -0.1214
8 4 7 -7.3663 0.0440
8 4 8 9.4679 -0.3122
8 4 9 -8.0326 0.0737
8 4 10 10.6053 0.1078
8 4 11 -1.9087 0.0021
8 4 12 -7.5468 0.2339
8 4 13 0.5670 -0.0505
8 4 14 -1.9375 -0.1124
8 4 15 1.5718 -0.1582
8 4 16 -3.7923 -0.3782
8 4 17 -1.7433 -0.0571
8 4 18 -2.9756 -0.1634
8 4 19 0.1901 0.0609
8 4 20 5.8405 0.2028
8 4 21 5.8487 0.0047
8 4 22 1.0349 0.1866
8 4 23 3.0639 -0.0959
8 4 24 -6.9828 -0.0435
8 4 25 -1.8420 0.1584
8 4 26 1.7403 0.0195
8 4 27 5.9086 0.2863
8 4 28 3.0046 -0.3105
8 5 0 36.5794 0.0090
8 5 1 -5.9804 0.2336
8 5 2 0.4574 0.2462
8 5 3 10.3734 0.1549
8 5 4 4.6844 0.2829
8 5 5 13.1691 -0.0376
8 5 6 -9.5331 -0.0259
8 5 7 -9.5617 -0.1033
8 5 8 19.6265 -0.2851
8 5 9 -0.1580 -0.0161
8 5 10 -8.5088 -0.2350
8 5 11 -6.0283 0.0489
8 5 12 17.8362 0.0002
8 5 13 12.7744 -0.0037
8 5 14 -8.0824 0.1372
8 5 15 5.8894 -0.0584
8 5 16 14.4138 0.0694
8 5 17 -0.3304 -0.0314
8 5 18 -6.0429 -0.1091
8 5 19 0.6626 0.0134
8 5 20 4.3056 -0.1467
8 5 21 3.0154 -0.0992
8 5 22 -8.4822 0.0055
8 5 23 1.8165 -0.1597
8 5 24 1.8984 0.0774
8 5 25 3.5364 0.1014
8 5 26 -9.9188 0.1059
8 5 27 -1.7514 -0.0491
8 5 28 0.6042 -0.5510
8 6 0 15.7848 0.1238
8 6 1 -6.1755 -0.2076
8 6 2 -7.0876 -0.0418
8 6 3 -11.8148 0.0326
8 6 4 -18.6844 -0.0867
8 6 5 5.8829 0.1476
8 6 6 -12.7591 0.0024
8 6 7 6.5140 0.0339
8 6 8 -15.4973 -0.0380
8 6 9 2.0205 -0.0806
8 6 10 2.0737 -0.0534
8 6 11 -25.6347 0.0451
8 6 12 -13.8766 0.0585
8 6 13 -9.4339 0.1494
8 6 14 1.5918 0.1233
8 6 15 -8.7101 0.0694
8 6 16 -12.2638 0.0612
8 6 17 -2.7752 -0.1198
8 6 18 1.1081 -0.0061
8 6 19 -0.5876 -0.1526
8 6 20 -10.4480 -0.1241
8 6 21 4.3820 0.0685
8 6 22 6.2370 -0.1756
8 6 23 3.0153 0.0730
8 6 24 -14.6193 0.0137
8 6 25 4.4045 0.0519
8 6 26 5.4489 0.1576
8 6 27 -0.5157 0.0288
8 6 28 -1.8772 -0.2584
8 7 0 3.2347 0.0513
8 7 1 11.4966 -0.1142
8 7 2 5.9905 0.0046
8 7 3 -10.5678 0.0926
8 7 4 -0.0546 -0.1394
8 7 5 15.5491 0.2598
8 7 6 -6.0981 -0.0691
8 7 7 -4.7006 0.1626
8 7 8 18.8088 0.2617
8 7 9 14.8202 -0.0353
8 7 10 1.3909 0.2895
8 7 11 -0.7418 -0.0901
8 7 12 16.0553 0.0162
8 7 13 16.4522 -0.0548
8 7 14 -2.5282 -0.1434
8 7 15 -8.6442 -0.0053
8 7 16 8.8585 -0.0765
8 7 17 6.6550 0.1029
8 7 18 5.0412 -0.0053
8 7 19 3.2087 -0.0208
8 7 20 -7.5842 0.0024
8 7 21 8.7393 -0.1444
8 7 22 -5.2092 -0.0459
8 7 23 0.0536 0.0584
8 7 24 1.4320 -0.1326
8 7 25 5.1652 0.1379
8 7 26 -8.1189 -0.1173
8 7 27 1.1666 -0.0666
8 8 0 -8.3782 0.0784
8 8 1 -12.2525 0.1778
8 8 2 4.1226 0.1504
8 8 3 -0.9447 0.0011
8 8 4 5.9483 0.0992
8 8 5 -12.3504 -0.0614
8 8 6 0.7335 -0.0716
8 8 7 5.4533 -0.0518
8 8 8 -3.1326 -0.1113
8 8 9 -4.0135 -0.0238
8 8 10 7.9845 -0.0055
8 8 11 -7.3894 -0.1126
8 8 12 -3.8619 0.0183
8 8 13 -7.1022 0.0029
8 8 14 2.2679 -0.0632
8 8 15 6.8855 0.0966
8 8 16 -5.9424 -0.0219
8 8 17 -5.4705 0.0250
8 8 18 -2.4205 -0.0066
8 8 19 2.5090 0.0098
8 8 20 -5.1014 0.0021
8 8 21 7.6075 0.1024
8 8 22 6.2690 0.2435
8 8 23 6.4294 0.0016
8 8 24 -2.3185 0.1551
8 8 25 2.8194 0.1040
8 8 26 1.0106 -0.0178
8 8 27 6.4644 -0.0649
8 9 0 -3.5507 0.0592
8 9 1 2.7226 -0.0206
8 9 2 -7.6761 -0.0983
8 9 3 -9.7981 0.0594
8 9 4 18.0741 -0.0872
8 9 5 0.5982 -0.1375
8 9 6 2.6987 -0.0410
8 9 7 -6.2477 -0.2471
8 9 8 3.7886 -0.0525
8 9 9 15.1036 -0.0226
8 9 10 -3.8982 -0.1834
8 9 11 -13.4934 0.1024
8 9 12 5.9859 -0.1162
8 9 13 -3.8787 0.0591
8 9 14 -4.5833 0.1143
8 9 15 3.1480 -0.0012
8 9 16 6.6856 0.0666
8 9 17 8.8195 0.0684
8 9 18 -2.6783 -0.0240
8 9 19 -5.7467 0.0770
8 9 20 -4.1439 0.0100
8 9 21 1.2120 0.1039
8 9 22 -3.4365 -0.0616
8 9 23 -11.8714 0.0077
8 9 24 -3.0422 0.0002
8 9 25 3.5115 -0.0637
8 9 26 -3.9436 -0.0382
8 10 0 -0.6762 -0.0579
8 10 1 4.8222 -0.1424
8 10 2 -6.9391 -0.1508
8 10 3 12.9867 -0.0558
8 10 4 5.9592 -0.1732
8 10 5 -11.4536 0.0026
8 10 6 0.0673 -0.0156
8 10 7 -1.4570 -0.0375
8 10 8 -3.1199 0.0519
8 10 9 -3.0467 -0.0355
8 10 10 -7.0406 -0.0061
8 10 11 -0.0547 0.0167
8 10 12 5.7963 -0.0858
8 10 13 -10.8570 0.0961
8 10 14 0.4587 0.0454
8 10 15 0.5553 0.0657
8 10 16 9.9978 0.0621
8 10 17 -17.0295 -0.0628
8 10 18 -10.4033 -0.0622
8 10 19 8.0493 -0.0847
8 10 20 6.3989 -0.0316
8 10 21 8.9445 0.0108
8 10 22 8.0698 0.0911
8 10 23 3.0328 0.1003
8 10 24 3.1459 -0.0661
8 10 25 -6.3206 0.1487
8 10 26 -13.2254 0.1485
8 11 0 -1.9590 0.0003
8 11 1 23.2038 -0.0209
8 11 2 -6.4793 0.0152
8 11 3 -0.1138 -0.0342
8 11 4 -0.2267 0.0009
8 11 5 9.1185 0.1049
8 11 6 2.6409 0.0019
8 11 7 -0.0945 0.2074
8 11 8 -1.0653 0.0564
8 11 9 4.2791 0.0534
8 11 10 10.8566 0.0549
8 11 11 -3.0441 -0.1264
8 11 12 -1.4718 0.0044
8 11 13 5.3024 -0.0253
8 11 14 7.2875 0.0177
8 11 15 -6.2178 0.0377
8 11 16 7.3615 -0.0751
8 11 17 -2.6465 -0.0884
8 11 18 3.6343 -0.1342
8 11 19 -8.3887 -0.1082
8 11 20 -13.2649 0.0219
8 11 21 5.9037 0.1330
8 11 22 1.3855 0.1454
8 11 23 -4.5276 0.0032
8 11 24 -1.1533 -0.2446
8 11 25 9.3578 0.1607
8 12 0 -4.3739 0.0525
8 12 1 4.1651 0.2558
8 12 2 -21.6217 0.0631
8 12 3 10.1345 0.0404
8 12 4 -0.9067 0.0126
8 12 5 -5.1623 -0.1362
8 12 6 -3.9216 0.0184
8 12 7 -5.4588 -0.0356
8 12 8 1.2469 -0.0423
8 12 9 3.9671 0.0267
8 12 10 -7.0238 -0.0636
8 12 11 8.2791 -0.0802
8 12 12 8.4816 0.0598
8 12 13 2.7074 -0.0728
8 12 14 -4.5856 -0.0140
8 12 15 -6.8971 0.1433
8 12 16 4.9859 -0.2123
8 12 17 -5.6718 0.0595
8 12 18 -7.7566 -0.2326
8 12 19 8.2250 -0.0424
8 12 20 4.9508 -0.0223
8 12 21 5.3150 0.0319
8 12 22 -2.5303 -0.0875
8 12 23 -3.3870 -0.3205
8 12 24 2.2129 -0.3264
8 13 0 8.6024 -0.0736
8 13 1 5.3128 0.0302
8 13 2 -0.3396 -0.0804
8 13 3 5.6234 0.0529
8 13 4 -13.1365 -0.0233
8 13 5 4.8109 -0.0359
8 13 6 2.4817 0.0908
8 13 7 4.9330 -0.0956
8 13 8 -1.0325 0.0546
8 13 9 2.5058 -0.0358
8 13 10 -1.2854 -0.1150
8 13 11 -7.2041 0.1977
8 13 12 -13.3124 -0.0298
8 13 13 4.2547 0.2675
8 13 14 5.5210 0.2036
8 13 15 -5.5403 0.0032
8 13 16 -3.6970 0.0301
8 13 17 4.6113 -0.1080
8 13 18 1.4275 -0.0657
8 13 19 -6.0523 0.0666
8 13 20 -4.3951 0.1479
8 13 21 2.0069 0.1931
8 13 22 -0.2259 -0.2306
8 13 23 6.2696 0.1033
8 14 0 11.9066 -0.0784
8 14 1 2.2220 -0.1193
8 14 2 -1.9611 -0.0595
8 14 3 1.5084 0.0036
8 14 4 -0.0174 0.0022
8 14 5 9.5546 0.1392
8 14 6 -14.9914 0.0232
8 14 7 -3.8800 0.1580
8 14 8 2.2791 0.0357
8 14 9 0.5278 -0.0377
8 14 10 5.2381 0.0878
8 14 11 2.0491 0.0014
8 14 12 5.8997 0.0145
8 14 13 0.4989 0.2225
8 14 14 -7.5156 -0.1511
8 14 15 0.6223 0.1231
8 14 16 2.0342 0.0169
8 14 17 -1.1195 -0.1404
8 14 18 -2.0822 0.2051
8 14 19 -1.4176 -0.0397
8 14 20 4.0476 0.0143
8 14 21 2.0706 -0.2135
8 14 22 -5.7273 -0.4679
8 15 0 5.1841 -0.0142
8 15 1 -8.6505 0.0157
8 15 2 -10.9537 -0.0284
8 15 3 0.0725 -0.0400
8 15 4 -14.1277 0.0146
8 15 5 -3.3136 0.0407
8 15 6 -0.4301 0.0216
8 15 7 -2.6342 0.0769
8 15 8 -11.0663 -0.0487
8 15 9 -7.8424 -0.0115
8 15 10 10.0382 -0.0672
8 15 11 -0.9852 -0.0542
8 15 12 -0.6589 0.0386
8 15 13 0.2940 -0.0332
8 15 14 7.4242 -0.0932
8 15 15 7.4051 0.1666
8 15 16 7.2990 -0.2702
8 15 17 2.4668 0.0061
8 15 18 -5.5590 0.0246
8 15 19 -7.4775 -0.0699
8 15 20 -0.9378 0.1617
8 15 21 -5.7993 0.2832
8 16 0 5.2386 -0.0323
8 16 1 12.4529 0.1562
8 16 2 0.0805 -0.1743
8 16 3 -1.4217 0.0392
8 16 4 9.7724 -0.1421
8 16 5 19.8821 -0.0232
8 16 6 -0.6548 -0.0270
8 16 7 -5.5885 -0.0144
8 16 8 11.3194 -0.0299
8 16 9 10.1909 0.0296
8 16 10 -5.2379 -0.1572
8 16 11 -7.1426 0.1428
8 16 12 7.0322 -0.0355
8 16 13 -7.2203 -0.0916
8 16 14 0.4849 0.2615
8 16 15 0.9860 -0.1859
8 16 16 2.4356 0.2580
8 16 17 8.6646 0.0773
8 16 18 0.6735 -0.2787
8 16 19 -1.1058 0.4340
8 17 0 6.6402 0.0997
8 17 1 -3.5853 0.0540
8 17 2 -0.4978 0.0415
8 17 3 4.5107 0.0876
8 17 4 -9.5849 -0.1552
8 17 5 -4.7464 0.0363
8 17 6 -1.1587 -0.1100
8 17 7 7.2842 -0.0452
8 17 8 -13.8743 -0.0354
8 17 9 -5.1797 -0.1439
8 17 10 4.4178 -0.0278
8 17 11 0.8723 -0.0603
8 17 12 2.2771 -0.1029
8 17 13 1.7007 0.1909
8 17 14 -6.9247 -0.3909
8 17 15 3.8526 -0.0250
8 17 16 13.7561 -0.0589
8 17 17 -4.9677 -0.6560
8 18 0 -9.8584 -0.1035
8 18 1 13.7489 -0.0500
8 18 2 -7.7258 0.0050
8 18 3 10.0173 -0.0069
8 18 4 10.2288 0.1693
8 18 5 -18.4938 0.0632
8 18 6 -1.4826 0.2882
8 18 7 16.0868 0.1375
8 18 8 -5.2470 -0.0155
8 18 9 2.8863 -0.1242
8 18 10 -3.4423 -0.1533
8 18 11 -2.4691 -0.0736
8 18 12 -1.9148 0.2555
8 18 13 1.2412 0.2199
8 18 14 -9.7709 0.0069
8 18 15 -6.3179 0.3876
8 19 0 -5.2230 0.0082
8 19 1 1.0609 0.1138
8 19 2 -9.9453 -0.1299
8 19 3 5.7816 -0.0018
8 19 4 5.4941 0.0236
8 19 5 -5.8311 0.1152
8 19 6 -0.4205 0.1502
8 19 7 -2.6421 0.1546
8 19 8 1.8165 0.0095
8 19 9 -0.8130 0.0786
8 19 10 8.4223 0.0296
8 19 11 -5.8914 0.1018
8 19 12 7.7562 0.4534
8 19 13 2.9665 -0.6212
8 20 0 -5.6889 0.0174
8 20 1 1.6206 -0.1894
8 20 2 -1.1745 0.0015
8 20 3 4.5449 -0.0313
8 20 4 5.2138 -0.0839
8 20 5 -5.5890 -0.0300
8 20 6 3.3938 -0.2622
8 20 7 -4.9447 -0.0984
8 20 8 -0.9846 -0.1116
8 20 9 3.9540 -0.4839
8 20 10 9.0513 0.0155
8 21 0 3.9692 0.0265
8 21 1 -13.5931 -0.4105
8 21 2 2.2546 0.4041
8 21 3 10.8836 -0.6268
8 21 4 -2.3251 0.3456
8 21 5 -7.7646 -0.3221
8 21 6 -1.3800 0.1656
9 0 0 -19.8195 -1.2215
9 0 2 -7.5939 1.1054
9 0 4 18.5409 -0.2556
9 0 6 -20.0871 -0.4937
9 0 8 12.1138 0.6861
9 0 10 -19.5136 1.2478
9 0 12 5.0205 0.0952
9 0 14 -14.1012 -1.4649
9 0 16 -5.7199 -1.1137
9 0 18 0.3035 0.4149
9 0 20 7.4277 0.9475
9 0 22 -9.7447 0.0666
9 0 24 0.8592 -0.6393
9 0 26 3.7421 -0.2110
9 1 0 2.6371 0.6966
9 1 1 -21.8464 -0.0935
9 1 2 -5.2610 1.6056
9 1 3 7.2100 0.0505
9 1 4 9.3181 1.4826
9 1 5 0.7922 0.2225
9 1 6 5.5067 -0.3422
9 1 7 -5.5683 0.0983
9 1 8 1.8525 -1.4830
9 1 9 6.0344 -0.2623
9 1 10 -6.3566 -0.5177
9 1 11 7.4381 -0.2119
9 1 12 -3.1431 0.6599
9 1 13 3.9009 0.2054
9 1 14 -4.2056 0.2495
9 1 15 9.5622 0.3442
9 1 16 -7.3566 -0.6200
9 1 17 0.8880 0.0979
9 1 18 -14.2045 -0.2111
9 1 19 -2.0654 -0.0874
9 1 20 -0.6725 0.5663
9 1 21 4.1188 -0.0516
9 1 22 2.7338 0.7000
9 1 23 6.5210 -0.0026
9 1 24 -3.5125 0.2590
9 1 25 0.4594 -0.1055
9 1 26 -5.3890 -0.5120
9 1 27 3.5299 -0.0224
9 2 0 25.7272 -0.5158
9 2 1 13.5143 -0.5141
9 2 2 -12.6669 -0.4358
9 2 3 -15.9735 -0.0652
9 2 4 10.7428 -0.2328
9 2 5 11.1282 0.0029
9 2 6 -11.6554 -0.3317
9 2 7 -1.7088 -0.0136
9 2 8 15.9925 -0.5601
9 2 9 -7.1456 -0.0579
9 2 10 -14.5388 -0.4822
9 2 11 0.7368 -0.0492
9 2 12 5.1545 0.1161
9 2 13 4.1442 -0.1078
9 2 14 -12.7201 0.6108
9 2 15 5.2965 -0.0844
9 2 16 0.3038 0.5731
9 2 17 1.8483 0.2419
9 2 18 0.7721 0.0582
9 2 19 6.2149 0.2496
9 2 20 -3.2464 -0.2213
9 2 21 0.1455 -0.1735
9 2 22 -1.4414 -0.1595
9 2 23 1.9255 -0.2306
9 2 24 -6.5774 0.0935
9 2 25 2.2915 0.0138
9 2 26 -1.2774 0.1984
9 2 27 -8.4137 0.0568
9 3 0 -5.4504 -0.0772
9 3 1 16.3718 -0.4476
9 3 2 10.6408 -0.7007
9 3 3 3.8824 0.1293
9 3 4 -2.3894 -0.3729
9 3 5 -6.3750 0.2484
9 3 6 -15.8618 0.2306
9 3 7 6.7522 -0.0336
9 3 8 12.9568 0.4972
9 3 9 10.2824 -0.2884
9 3 10 14.0976 0.2088
9 3 11 -8.2481 -0.1069
9 3 12 8.1591 -0.0015
9 3 13 1.9805 0.2515
9 3 14 -3.3982 0.1066
9 3 15 -0.3741 0.2794
9 3 16 0.3104 0.2564
9 3 17 -5.8334 -0.0466
9 3 18 -2.9479 0.1106
9 3 19 4.5735 -0.1602
9 3 20 7.9165 -0.2440
9 3 21 2.6398 -0.0984
9 3 22 -1.1073 -0.3470
9 3 23 -7.9992 0.0103
9 3 24 -7.7926 0.1397
9 3 25 2.5839 -0.0023
9 3 26 2.9976 0.2352
9 3 27 8.4509 -0.4203
9 4 0 -3.3154 0.1402
9 4 1 5.5480 -0.2108
9 4 2 -7.8362 0.1707
9 4 3 18.3330 -0.0504
9 4 4 3.8463 -0.0932
9 4 5 -3.6674 0.0791
9 4 6 -10.6715 -0.1802
9 4 7 -24.6210 0.0847
9 4 8 -7.0670 0.1829
9 4 9 -6.2326 0.0369
9 4 10 -8.3005 0.3968
9 4 11 -24.2238 -0.0391
9 4 12 8.2790 0.0672
9 4 13 1.9060 -0.0689
9 4 14 -1.5382 -0.3925
9 4 15 -13.5564 0.0167
9 4 16 4.1770 -0.2851
9 4 17 7.9510 0.1084
9 4 18 -4.5393 0.1996
9 4 19 -6.4655 0.0037
9 4 20 3.5811 0.2125
9 4 21 3.6927 -0.1966
9 4 22 0.2578 -0.1130
9 4 23 -5.8092 -0.0679
9 4 24 3.2937 0.0271
9 4 25 -2.6643 0.2186
9 4 26 -3.0408 0.0379
9 4 27 4.0318 -0.1080
9 5 0 3.2320 0.0691
9 5 1 -15.9718 0.3112
9 5 2 -6.9368 0.3010
9 5 3 -2.5823 0.1414
9 5 4 18.2201 0.3023
9 5 5 -8.5173 -0.0464
9 5 6 14.1299 -0.1063
9 5 7 15.7564 -0.0607
9 5 8 15.9405 -0.2547
9 5 9 3.1012 0.0239
9 5 10 6.8944 -0.1325
9 5 11 8.3092 -0.0198
9 5 12 13.9264 0.0521
9 5 13 -8.9825 -0.0932
9 5 14 7.6432 0.0765
9 5 15 10.1058 -0.0051
9 5 16 3.2904 -0.0455
9 5 17 -1.0153 0.1120
9 5 18 4.1702 -0.1032
9 5 19 7.3353 -0.0163
9 5 20 -1.9262 -0.0380
9 5 21 -6.4104 -0.1765
9 5 22 -1.2177 -0.0049
9 5 23 1.3359 -0.0112
9 5 24 4.4040 0.2388
9 5 25 -0.7336 0.0159
9 5 26 5.1037 -0.0592
9 5 27 9.1051 -0.3781
9 6 0 -4.9236 -0.0061
9 6 1 25.5001 -0.0533
9 6 2 19.8578 -0.0829
9 6 3 -11.3278 0.1307
9 6 4 -8.7329 0.0448
9 6 5 -6.9114 -0.0157
9 6 6 17.3503 0.0267
9 6 7 -14.7787 -0.1424
9 6 8 -7.1209 -0.1866
9 6 9 1.3026 -0.0895
9 6 10 -1.8369 -0.1598
9 6 11 -12.4443 0.1267
9 6 12 -1.4401 -0.0266
9 6 13 9.8349 0.1147
9 6 14 3.1270 0.0288
9 6 15 -15.1232 -0.0853
9 6 16 -3.0252 0.1647
9 6 17 5.9241 -0.1635
9 6 18 -2.8026 0.0556
9 6 19 -3.4336 -0.0165
9 6 20 -1.8055 -0.1442
9 6 21 6.6489 -0.0507
9 6 22 -4.4650 -0.0548
9 6 23 -4.6390 -0.1111
9 6 24 1.5519 0.0856
9 6 25 -6.9067 0.0687
9 6 26 -2.2823 -0.2252
9 6 27 -1.6817 -0.3284
9 7 0 12.7251 0.0039
9 7 1 5.3693 -0.1097
9 7 2 -17.1507 -0.0636
9 7 3 -0.5090 0.1762
9 7 4 10.0970 -0.0753
9 7 5 2.2998 0.3073
9 7 6 -5.8441 0.0482
9 7 7 -2.4816 0.1582
9 7 8 4.4938 0.2769
9 7 9 -1.1344 0.0011
9 7 10 -5.9191 0.2012
9 7 11 -0.6963 -0.0416
9 7 12 3.6963 -0.0008
9 7 13 -9.7489 -0.0152
9 7 14 -2.6587 -0.0525
9 7 15 1.0886 0.1304
9 7 16 4.8880 0.0518
9 7 17 -9.7777 0.0032
9 7 18 -5.6147 0.0765
9 7 19 4.3963 -0.2261
9 7 20 -5.3705 -0.0572
9 7 21 -7.2792 -0.0347
9 7 22 -3.7295 -0.1672
9 7 23 6.1644 0.1265
9 7 24 2.8135 0.1891
9 7 25 -5.0503 -0.0220
9 7 26 1.5443 -0.3005
9 8 0 -12.5805 0.0643
9 8 1 9.3928 0.1033
9 8 2 -7.7771 0.0798
9 8 3 -11.0489 0.0598
9 8 4 -21.2320 0.0045
9 8 5 -0.2936 0.0836
9 8 6 12.2499 -0.0229
9 8 7 -3.5005 0.0616
9 8 8 -7.3573 0.1381
9 8 9 -3.5231 -0.1316
9 8 10 3.1391 0.0654
9 8 11 1.2566 -0.0666
9 8 12 -1.1734 -0.0401
9 8 13 2.6621 0.0288
9 8 14 7.9182 -0.0543
9 8 15 -11.7419 -0.0586
9 8 16 8.4076 -0.0737
9 8 17 3.3593 -0.0205
9 8 18 9.0619 -0.1333
9 8 19 1.1623 0.0124
9 8 20 1.9749 0.0507
9 8 21 10.1925 -0.0663
9 8 22 5.5750 0.1260
9 8 23 -2.6472 0.0565
9 8 24 -10.8746 0.0511
9 8 25 3.4892 0.0769
9 8 26 12.4796 -0.3152
9 9 0 -2.5292 0.0752
9 9 1 0.9007 0.1203
9 9 2 -1.4477 0.0344
9 9 3 4.3671 0.0105
9 9 4 4.1440 0.0001
9 9 5 7.9760 -0.1413
9 9 6 2.9295 -0.0593
9 9 7 -1.4395 -0.1305
9 9 8 13.9234 -0.0971
9 9 9 -3.7326 0.0173
9 9 10 2.1452 -0.1758
9 9 11 3.3276 -0.0105
9 9 12 2.3408 -0.0085
9 9 13 4.4696 0.0342
9 9 14 3.0723 0.0014
9 9 15 -2.2931 0.0902
9 9 16 6.4426 0.0413
9 9 17 -8.8417 0.0484
9 9 18 -5.1584 0.0921
9 9 19 -3.7172 0.0781
9 9 20 -2.0013 -0.1428
9 9 21 -0.4670 0.0756
9 9 22 1.3660 -0.0009
9 9 23 -1.4070 -0.0778
9 9 24 4.9514 0.1849
9 9 25 3.6235 0.2167
9 10 0 -7.7703 -0.0530
9 10 1 -8.0858 -0.0185
9 10 2 12.7167 -0.1735
9 10 3 -6.6797 -0.0223
9 10 4 -4.5006 -0.1155
9 10 5 0.8478 -0.0728
9 10 6 9.6053 0.0166
9 10 7 4.9369 -0.1386
9 10 8 -1.5009 -0.0491
9 10 9 -10.7329 -0.0394
9 10 10 7.1106 -0.2047
9 10 11 -4.8706 0.0730
9 10 12 -11.6927 -0.0075
9 10 13 -8.1806 0.1345
9 10 14 5.7495 0.1466
9 10 15 15.7043 0.0338
9 10 16 1.9755 0.0083
9 10 17 -4.8078 0.0007
9 10 18 11.3376 -0.0599
9 10 19 7.9711 -0.0529
9 10 20 -7.6526 0.0123
9 10 21 -9.0861 0.0077
9 10 22 -1.3868 -0.0611
9 10 23 -12.2878 -0.0527
9 10 24 -0.8327 0.0289
9 11 0 11.6300 -0.0810
9 11 1 6.5339 -0.1535
9 11 2 -0.8663 -0.1377
9 11 3 -3.0154 0.0100
9 11 4 8.4500 -0.0890
9 11 5 9.6809 0.2082
9 11 6 -9.0200 0.0297
9 11 7 -3.0265 0.0953
9 11 8 9.5048 0.0681
9 11 9 -9.9638 -0.0061
9 11 10 2.4288 0.0068
9 11 11 -12.1054 -0.0265
9 11 12 3.1592 -0.0220
9 11 13 3.6828 0.1063
9 11 14 -3.0232 0.0682
9 11 15 -4.2261 -0.0200
9 11 16 0.3805 0.0664
9 11 17 -2.4316 -0.0938
9 11 18 -2.3919 0.0344
9 11 19 -0.4792 0.1644
9 11 20 8.6558 0.1187
9 11 21 2.5518 -0.1076
9 11 22 -7.0744 0.1360
9 11 23 0.6101 0.0352
9 12 0 1.6076 -0.0056
9 12 1 -5.6775 0.1062
9 12 2 7.7482 0.0239
9 12 3 -1.5657 -0.0122
9 12 4 -13.1029 0.0220
9 12 5 2.1731 -0.0178
9 12 6 -1.3899 -0.0445
9 12 7 6.7774 0.0637
9 12 8 0.8469 -0.1222
9 12 9 -10.6243 -0.0202
9 12 10 9.4490 0.0078
9 12 11 -6.4925 -0.1562
9 12 12 0.7813 0.0708
9 12 13 -2.8847 0.0169
9 12 14 -2.7408 -0.0793
9 12 15 7.3905 0.0094
9 12 16 2.6359 -0.2449
9 12 17 -3.8045 0.0425
9 12 18 2.5993 -0.0165
9 12 19 2.9986 0.0831
9 12 20 4.5448 -0.0472
9 12 21 -7.6071 -0.0522
9 12 22 -0.6586 -0.2424
9 12 23 4.7156 -0.1208
9 13 0 -16.1304 -0.0884
9 13 1 7.8394 0.0887
9 13 2 5.5036 -0.0060
9 13 3 -2.7069 0.0384
9 13 4 -1.1962 0.0600
9 13 5 3.8666 -0.0644
9 13 6 -2.4367 0.0194
9 13 7 -1.5213 -0.1255
9 13 8 -5.5075 -0.1688
9 13 9 0.0051 -0.0072
9 13 10 1.2935 -0.1522
9 13 11 -4.0673 0.1197
9 13 12 0.4383 0.1127
9 13 13 3.5988 -0.0206
9 13 14 6.1898 -0.0178
9 13 15 -6.1006 -0.1348
9 13 16 -10.5096 -0.2215
9 13 17 12.6480 0.0373
9 13 18 1.3571 0.0700
9 13 19 -6.6918 0.0853
9 13 20 4.5653 0.2071
9 13 21 -2.3951 -0.1215
9 14 0 -9.4471 -0.0298
9 14 1 -0.1015 -0.0631
9 14 2 -7.6185 -0.0387
9 14 3 3.9029 0.1060
9 14 4 6.8529 -0.0392
9 14 5 3.2620 0.1374
9 14 6 6.3811 -0.0234
9 14 7 15.3044 0.0331
9 14 8 -2.3063 0.0471
9 14 9 -1.2233 0.0620
9 14 10 -6.1575 0.1309
9 14 11 9.6202 0.1937
9 14 12 0.0129 -0.0446
9 14 13 -10.1369 0.1631
9 14 14 7.1419 -0.0067
9 14 15 6.2815 -0.1405
9 14 16 -6.1952 0.1638
9 14 17 1.1916 -0.0083
9 14 18 -2.0022 0.2752
9 14 19 2.6752 -0.1305
9 14 20 -3.5646 -0.0880
9 15 0 -2.1871 0.0196
9 15 1 12.5784 -0.1495
9 15 2 -5.3408 0.0765
9 15 3 1.0574 -0.0227
9 15 4 -11.3786 0.0429
9 15 5 -2.0438 0.1140
9 15 6 6.9005 -0.0195
9 15 7 -2.4879 0.1300
9 15 8 -4.1841 0.0543
9 15 9 5.5543 0.0235
9 15 10 -3.7499 0.1038
9 15 11 3.7267 -0.0165
9 15 12 -3.6352 0.0638
9 15 13 -3.5499 0.2031
9 15 14 -13.1539 -0.2814
9 15 15 -3.8319 0.0110
9 15 16 0.0329 -0.3249
9 15 17 4.3391 -0.2410
9 15 18 8.5517 0.1359
9 15 19 3.1953 -0.0241
9 16 0 -6.0793 -0.0322
9 16 1 -7.6858 0.0226
9 16 2 -4.2743 -0.0082
9 16 3 15.2731 -0.0702
9 16 4 -0.4879 0.0240
9 16 5 -15.5578 -0.1262
9 16 6 -3.7683 0.0025
9 16 7 -7.0709 0.0648
9 16 8 6.5188 -0.1107
9 16 9 -2.9458 0.1403
9 16 10 -8.7323 0.0778
9 16 11 7.6306 -0.0431
9 16 12 6.3857 0.1899
9 16 13 -1.2478 -0.1943
9 16 14 -1.8853 0.2197
9 16 15 -1.7370 -0.0319
9 16 16 -1.5175 0.0090
9 16 17 0.8949 0.5528
9 17 0 -11.7994 0.1780
9 17 1 -0.1201 0.1619
9 17 2 -2.8509 0.0515
9 17 3 2.4366 0.0585
9 17 4 10.6112 -0.1384
9 17 5 3.1600 -0.0440
9 17 6 10.6846 -0.1401
9 17 7 -10.6796 -0.1672
9 17 8 5.4445 0.0741
9 17 9 3.5440 -0.1194
9 17 10 8.5424 -0.0399
9 17 11 1.0081 0.1557
9 17 12 -0.8322 -0.1333
9 17 13 5.2313 -0.1748
9 17 14 -10.2149 0.1309
9 17 15 2.5208 -1.0693
9 17 16 14.8955 0.1361
9 18 0 8.0813 -0.1006
9 18 1 3.8114 -0.3678
9 18 2 -1.4376 0.1216
9 18 3 6.4909 -0.1827
9 18 4 -1.3982 0.1732
9 18 5 -21.2972 -0.0603
9 18 6 -5.8372 0.0399
9 18 7 13.2967 -0.1740
9 18 8 0.0770 -0.1601
9 18 9 -6.2267 -0.1887
9 18 10 4.0665 -0.0056
9 18 11 -0.0014 0.2809
9 18 12 -3.7716 -0.1544
9 18 13 4.3606 0.3315
9 19 0 1.2006 -0.0117
9 19 1 -6.7572 0.0306
9 19 2 -8.8596 0.1618
9 19 3 4.7893 -0.0016
9 19 4 7.1150 0.2116
9 19 5 -2.3022 0.0154
9 19 6 -2.8522 0.1665
9 19 7 -5.0570 0.2795
9 19 8 -4.7225 0.1125
9 19 9 10.2466 0.4515
9 19 10 4.2567 0.5856
9 19 11 -6.5428 -0.4833
9 20 0 7.6630 0.2909
9 20 1 -4.8528 0.2403
9 20 2 9.5425 0.0626
9 20 3 -2.2775 0.4045
9 20 4 1.3379 -0.2864
9 20 5 -2.2339 0.1529
9 20 6 3.4827 -0.3257
9 20 7 1.9714 -0.6777
9 21 0 -0.8048 -0.0325
9 21 1 -9.1400 -0.4878
9 21 2 8.1872 0.2648
10 0 0 35.6415 -1.4008
10 0 2 15.1060 -1.3427
10 0 4 2.2049 -0.7992
10 0 6 0.1709 0.6222
10 0 8 -0.1701 1.4343
10 0 10 -6.8834 0.7182
10 0 12 4.9750 -0.7080
10 0 14 1.3498 -1.1734
10 0 16 1.7428 -0.0738
10 0 18 -1.3167 0.6897
10 0 20 -1.7697 0.0594
10 0 22 7.8367 -0.7064
10 0 24 3.5318 -0.3832
10 1 0 -16.6946 1.0526
10 1 1 0.9189 0.1484
10 1 2 13.1190 1.3773
10 1 3 -18.2255 0.2762
10 1 4 -10.6888 0.5279
10 1 5 12.9942 0.3226
10 1 6 8.9129 -0.5153
10 1 7 -5.0246 -0.1221
10 1 8 -1.1626 -0.2361
10 1 9 14.0447 -0.3200
10 1 10 -0.9867 0.5589
10 1 11 -3.8693 -0.0632
10 1 12 -8.8301 0.0749
10 1 13 0.9581 0.1789
10 1 14 7.1902 -0.9170
10 1 15 6.7552 0.1931
10 1 16 2.3248 -0.6896
10 1 17 0.0840 0.0624
10 1 18 5.4220 0.2414
10 1 19 4.2455 0.0082
10 1 20 -3.5110 0.6880
10 1 21 0.9413 0.0236
10 1 22 3.7521 0.5516
10 1 23 -4.5203 -0.0178
10 1 24 6.0337 -0.1864
10 1 25 -1.5194 -0.0824
10 2 0 12.3504 -0.0626
10 2 1 -3.4339 -0.2640
10 2 2 -15.2667 0.3255
10 2 3 -15.1047 0.0384
10 2 4 8.3590 0.0770
10 2 5 -14.0913 0.1581
10 2 6 -16.8658 -0.5247
10 2 7 -2.5543 0.1202
10 2 8 -1.5762 -0.7552
10 2 9 3.1199 -0.0474
10 2 10 -11.5906 -0.4584
10 2 11 3.7846 -0.2173
10 2 12 -4.8820 0.0658
10 2 13 -2.6348 -0.1604
10 2 14 -8.3816 0.3481
10 2 15 3.5605 0.1298
10 2 16 0.7250 0.2344
10 2 17 -1.2177 0.3239
10 2 18 -14.4764 0.0759
10 2 19 -0.0735 0.0364
10 2 20 -2.4053 -0.0110
10 2 21 2.9856 -0.2019
10 2 22 -3.5549 0.0262
10 2 23 8.1747 -0.0431
10 2 24 6.2637 0.1648
10 2 25 -4.3085 -0.0607
10 3 0 -6.3738 -0.3898
10 3 1 -12.0947 -0.2825
10 3 2 34.6244 -0.7474
10 3 3 4.1203 0.2538
10 3 4 1.7990 -0.2370
10 3 5 13.2646 0.1714
10 3 6 27.3027 0.2251
10 3 7 -5.3581 -0.2260
10 3 8 -9.2082 0.1112
10 3 9 20.5482 -0.2626
10 3 10 6.3884 -0.0923
10 3 11 -2.3972 0.0272
10 3 12 -12.2162 0.0389
10 3 13 18.7111 0.2412
10 3 14 3.8034 0.3298
10 3 15 -2.0650 0.1204
10 3 16 -5.7807 0.3892
10 3 17 9.2960 -0.0095
10 3 18 -1.2252 -0.0226
10 3 19 1.8229 -0.0610
10 3 20 -5.8215 -0.3919
10 3 21 7.2495 -0.0354
10 3 22 -2.1457 -0.1423
10 3 23 0.5002 0.0950
10 3 24 -1.4462 0.2010
10 3 25 2.8514 -0.3931
10 3 26 -0.8799 -0.1120
10 4 0 18.0507 -0.0396
10 4 1 9.8998 -0.3462
10 4 2 -9.9692 -0.3267
10 4 3 -26.8895 0.0666
10 4 4 9.3307 -0.3247
10 4 5 -0.6723 0.0781
10 4 6 0.0929 0.0965
10 4 7 -11.9329 -0.0072
10 4 8 10.0699 0.5262
10 4 9 16.3374 -0.0327
10 4 10 -16.5224 0.3247
10 4 11 -3.3186 -0.0322
10 4 12 1.3472 -0.2511
10 4 13 4.3590 0.0369
10 4 14 -12.1618 -0.3239
10 4 15 -2.3248 0.1157
10 4 16 -4.2732 0.1666
10 4 17 3.1442 0.1144
10 4 18 -3.9500 0.3219
10 4 19 10.7075 -0.1413
10 4 20 1.2889 -0.0711
10 4 21 -1.5238 -0.1351
10 4 22 -4.4720 -0.1745
10 4 23 2.2429 0.0854
10 4 24 -5.7998 -0.0138
10 4 25 -7.8947 -0.1067
10 4 26 -2.4058 -0.1376
10 5 0 -9.2592 0.1011
10 5 1 7.9727 0.1408
10 5 2 21.8896 0.2295
10 5 3 6.1955 0.0541
10 5 4 -21.3055 0.1575
10 5 5 -7.0740 0.0138
10 5 6 11.5757 -0.1092
10 5 7 -11.9913 0.0255
10 5 8 -1.9231 -0.1156
10 5 9 -5.7351 -0.0065
10 5 10 -2.1196 0.0596
10 5 11 -0.7196 -0.1139
10 5 12 -3.0267 -0.0019
10 5 13 10.8107 -0.0686
10 5 14 2.8146 -0.0915
10 5 15 -6.5771 0.0761
10 5 16 -13.0806 -0.0431
10 5 17 7.3566 0.0386
10 5 18 -0.3755 -0.0062
10 5 19 -8.9228 -0.1497
10 5 20 3.1251 0.0286
10 5 21 8.5736 -0.0303
10 5 22 -0.1621 0.2087
10 5 23 -0.8550 0.0868
10 5 24 -1.4458 0.2416
10 5 25 1.3780 -0.2112
10 5 26 5.1270 -0.4557
10 6 0 -1.2898 -0.1795
10 6 1 12.6426 0.1047
10 6 2 -7.8763 -0.0117
10 6 3 -26.6504 -0.0030
10 6 4 -1.1225 0.1773
10 6 5 2.7360 -0.2321
10 6 6 2.1109 -0.0274
10 6 7 -7.3993 -0.1796
10 6 8 12.7369 -0.2143
10 6 9 -1.9908 0.0756
10 6 10 -5.5936 -0.1511
10 6 11 -9.9660 0.1246
10 6 12 6.2380 -0.0651
10 6 13 12.9400 -0.0798
10 6 14 -0.2253 0.1423
10 6 15 4.6533 -0.0986
10 6 16 13.2399 0.0967
10 6 17 5.1009 0.0920
10 6 18 -0.2117 -0.0663
10 6 19 2.1820 -0.0265
10 6 20 8.7364 -0.0697
10 6 21 -0.1248 -0.1447
10 6 22 -1.7120 0.1105
10 6 23 -2.8916 -0.1111
10 6 24 -1.3942 0.0316
10 6 25 8.8217 -0.5310
10 7 0 14.4920 -0.0163
10 7 1 -3.0304 -0.0806
10 7 2 28.6412 -0.0524
10 7 3 9.6790 0.1732
10 7 4 1.5851 -0.0390
10 7 5 -3.5633 0.1741
10 7 6 16.7218 0.0823
10 7 7 2.8219 0.0626
10 7 8 2.9167 0.1427
10 7 9 -3.0761 -0.0434
10 7 10 19.6846 0.0341
10 7 11 0.8863 0.0060
10 7 12 -7.5019 -0.0553
10 7 13 -10.6828 0.1379
10 7 14 -4.2978 0.1139
10 7 15 1.1471 0.0769
10 7 16 -14.1660 0.2701
10 7 17 -5.5530 -0.1834
10 7 18 -1.5929 0.0032
10 7 19 -0.7214 -0.1211
10 7 20 -3.8015 -0.2605
10 7 21 -16.2782 0.1103
10 7 22 2.5699 0.1597
10 7 23 2.2178 0.0260
10 7 24 -3.7784 -0.0167
10 7 25 2.9848 -0.5141
10 8 0 1.6855 -0.0029
10 8 1 1.9003 0.0277
10 8 2 -1.0218 0.0410
10 8 3 -17.6144 0.1030
10 8 4 -3.6435 -0.0168
10 8 5 -1.9862 0.1735
10 8 6 -6.4772 0.1279
10 8 7 -4.6969 0.1137
10 8 8 -4.2592 0.1472
10 8 9 -6.4173 -0.1210
10 8 10 2.5769 0.0818
10 8 11 -9.6582 -0.0545
10 8 12 5.6576 0.0257
10 8 13 4.6322 -0.0728
10 8 14 2.5326 -0.0540
10 8 15 3.8031 -0.0125
10 8 16 -0.6008 -0.1289
10 8 17 13.1850 -0.0050
10 8 18 1.5068 -0.0203
10 8 19 -0.2669 -0.1889
10 8 20 0.5474 0.1118
10 8 21 1.0525 -0.0843
10 8 22 2.9278 0.1031
10 8 23 -7.4056 -0.1219
10 8 24 -5.7753 -0.1928
10 9 0 -10.5526 0.0989
10 9 1 0.5775 0.1441
10 9 2 3.0798 0.1685
10 9 3 -4.9474 0.0462
10 9 4 5.6716 0.0454
10 9 5 8.6342 -0.0283
10 9 6 -7.0880 -0.0385
10 9 7 1.5549 -0.0317
10 9 8 6.7513 -0.0214
10 9 9 1.3618 -0.1066
10 9 10 -2.1909 -0.0421
10 9 11 2.7478 -0.0179
10 9 12 1.2249 -0.0874
10 9 13 -13.6025 0.0095
10 9 14 -14.8891 -0.0096
10 9 15 -4.4638 -0.0075
10 9 16 -1.1855 0.1135
10 9 17 0.5449 0.0665
10 9 18 -3.9973 -0.0725
10 9 19 11.5609 0.0661
10 9 20 -3.3780 0.0346
10 9 21 -3.5180 -0.1031
10 9 22 15.3897 0.1798
10 9 23 7.9522 0.1165
10 9 24 -8.6373 0.0155
10 10 0 -16.7673 -0.0502
10 10 1 0.8903 0.0358
10 10 2 -2.9893 0.0266
10 10 3 -10.3429 -0.0659
10 10 4 -6.7233 0.0427
10 10 5 -2.0200 -0.2079
10 10 6 4.6209 -0.0295
10 10 7 -5.2734 -0.0950
10 10 8 -6.3056 -0.1629
10 10 9 11.4471 -0.0251
10 10 10 2.4769 -0.1474
10 10 11 8.0016 0.0786
10 10 12 3.0879 0.0744
10 10 13 6.7667 0.0075
10 10 14 3.1769 0.0302
10 10 15 4.1913 0.0019
10 10 16 4.7467 -0.0316
10 10 17 -0.0606 0.0682
10 10 18 -4.4869 0.0743
10 10 19 4.5429 0.0192
10 10 20 -6.9968 -0.0532
10 10 21 -2.3137 -0.1559
10 10 22 13.5623 0.0061
10 11 0 -10.3416 -0.0426
10 11 1 2.6548 -0.1422
10 11 2 2.5041 -0.0210
10 11 3 11.4411 0.0678
10 11 4 12.1405 -0.0925
10 11 5 -12.7301 0.0202
10 11 6 0.6232 0.0402
10 11 7 7.4156 -0.0536
10 11 8 5.4008 0.0578
10 11 9 -1.5506 0.0396
10 11 10 -11.6529 -0.0673
10 11 11 4.6418 0.1224
10 11 12 2.5268 -0.0359
10 11 13 -9.4042 -0.0505
10 11 14 -7.3015 0.0737
10 11 15 5.6285 -0.1223
10 11 16 3.2891 0.0959
10 11 17 -2.8125 -0.0043
10 11 18 -7.8899 0.1714
10 11 19 -3.4841 -0.2685
10 11 20 -9.0904 0.0997
10 11 21 -5.7227 -0.0487
10 12 0 -5.1086 0.1070
10 12 1 5.4881 -0.0026
10 12 2 -5.1127 0.1092
10 12 3 2.3001 -0.0183
10 12 4 4.1669 -0.0443
10 12 5 1.1730 0.0783
10 12 6 11.1833 -0.0893
10 12 7 -5.9461 0.1151
10 12 8 1.1857 0.0001
10 12 9 -3.7607 -0.0070
10 12 10 11.3764 0.1439
10 12 11 7.5604 0.0189
10 12 12 -7.8675 0.0587
10 12 13 -2.1382 -0.1012
10 12 14 9.0516 -0.1323
10 12 15 0.3074 -0.0992
10 12 16 0.9184 0.0723
10 12 17 6.4745 0.1073
10 12 18 5.9832 0.0962
10 12 19 -0.8727 0.1515
10 12 20 -11.8541 0.0052
10 13 0 15.4304 0.0430
10 13 1 -1.2106 -0.0056
10 13 2 -5.9951 0.1412
10 13 3 2.8030 -0.0232
10 13 4 -0.8082 0.0447
10 13 5 -14.9175 -0.2095
10 13 6 -0.0699 -0.1086
10 13 7 -3.0844 -0.1196
10 13 8 1.8192 -0.1913
10 13 9 -11.6397 -0.0168
10 13 10 -6.6120 0.1350
10 13 11 1.1576 0.0379
10 13 12 0.4469 0.0477
10 13 13 -3.6173 -0.1580
10 13 14 -2.4048 -0.1530
10 13 15 -6.6173 0.0887
10 13 16 7.1744 -0.0155
10 13 17 -5.7243 0.0004
10 13 18 -9.7594 0.2351
10 13 19 -1.3756 -0.3281
10 14 0 -1.2303 -0.0262
10 14 1 -13.2179 -0.0250
10 14 2 6.7386 0.0487
10 14 3 10.2021 -0.0341
10 14 4 -6.3537 -0.0123
10 14 5 -6.6270 -0.1431
10 14 6 5.9885 -0.0162
10 14 7 -5.0209 -0.1166
10 14 8 5.0040 -0.0302
10 14 9 -1.1474 0.1012
10 14 10 4.8376 0.0454
10 14 11 3.3557 0.1588
10 14 12 -3.4565 0.2126
10 14 13 1.6934 -0.2564
10 14 14 0.3756 0.1857
10 14 15 2.7370 -0.1110
10 14 16 7.7804 0.2926
10 14 17 -0.6268 0.3175
10 14 18 7.9647 0.2500
10 15 0 8.2837 0.0612
10 15 1 -4.4145 -0.1147
10 15 2 8.8382 0.1573
10 15 3 7.6282 0.1305
10 15 4 -3.5682 0.0779
10 15 5 2.1635 0.0510
10 15 6 -0.9534 0.0228
10 15 7 2.5006 -0.0378
10 15 8 -4.8700 0.1758
10 15 9 -1.0467 -0.1934
10 15 10 0.6282 0.0994
10 15 11 2.5136 0.2004
10 15 12 8.8015 -0.1573
10 15 13 11.0948 0.0033
10 15 14 -6.3878 -0.3128
10 15 15 -3.5740 -0.1467
10 15 16 3.0328 0.3280
10 15 17 -1.8448 -0.3200
10 16 0 1.3972 0.0321
10 16 1 -8.2811 -0.1087
10 16 2 -7.3518 0.1720
10 16 3 -5.4276 -0.1655
10 16 4 0.8803 0.1136
10 16 5 4.5308 -0.0591
10 16 6 -1.1353 0.0914
10 16 7 11.1849 0.1168
10 16 8 -12.5486 -0.0427
10 16 9 -2.0365 0.0441
10 16 10 3.7495 0.0711
10 16 11 -10.4204 -0.1992
10 16 12 -5.7587 0.0719
10 16 13 11.0806 -0.0773
10 16 14 -2.7245 -0.2076
10 16 15 0.6079 0.4345
10 17 0 8.8885 0.1498
10 17 1 5.7257 0.1992
10 17 2 9.6155 0.0016
10 17 3 -8.9932 0.1527
10 17 4 12.1713 0.0263
10 17 5 2.0573 -0.1975
10 17 6 -10.5612 0.0257
10 17 7 2.4310 -0.1255
10 17 8 -10.1312 0.1164
10 17 9 8.1568 0.4442
10 17 10 12.6282 0.0600
10 17 11 -19.0235 0.2584
10 17 12 -0.6906 0.4489
10 17 13 1.3833 -0.8736
10 17 14 -12.3862 0.5247
10 18 0 2.7659 -0.0546
10 18 1 -3.4461 -0.0264
10 18 2 4.7980 0.0958
10 18 3 -6.5313 0.0134
10 18 4 11.9834 0.0486
10 18 5 -11.7514 -0.2097
10 18 6 2.4008 -0.1942
10 18 7 3.5992 -0.1296
10 18 8 -6.1748 -0.2290
10 18 9 3.2278 -0.0333
10 18 10 -12.9758 -0.2465
10 18 11 5.7650 0.0974
10 19 0 -8.5440 -0.1557
10 19 1 3.8800 -0.1123
10 19 2 1.4854 0.1102
10 19 3 -4.7511 -0.1726
10 19 4 2.8392 0.1362
10 19 5 -0.7126 -0.0219
10 19 6 -0.3851 -0.1732
10 19 7 7.4088 0.1775
10 19 8 -4.8226 0.1734
10 20 0 -5.1666 -0.5357
10 20 1 1.2575 0.7174
10 20 2 -0.6354 -0.3037
10 20 3 -0.9128 0.4768
10 20 4 -4.4769 -0.5453
11 0 0 -25.2882 -2.7429
11 0 2 3.3139 -2.2976
11 0 4 -24.1443 -0.0127
11 0 6 2.4555 1.3500
11 0 8 -19.7267 0.8856
11 0 10 -3.5113 -0.2926
11 0 12 -11.8722 -0.7525
11 0 14 3.0627 0.0295
11 0 16 -4.3163 0.6859
11 0 18 -5.8716 0.1063
11 0 20 -2.6836 -0.8856
11 0 22 -3.4354 -0.7919
11 1 0 20.1019 0.4324
11 1 1 26.5179 0.2289
11 1 2 13.7463 0.1844
11 1 3 -2.1872 0.2577
11 1 4 7.5989 -0.2585
11 1 5 14.4298 0.2020
11 1 6 6.1342 0.2596
11 1 7 -1.6955 -0.1261
11 1 8 10.1480 1.1217
11 1 9 18.9633 -0.0943
11 1 10 -4.1415 0.6120
11 1 11 1.1832 -0.0404
11 1 12 7.8355 -0.7887
11 1 13 9.4745 -0.0319
11 1 14 -5.3205 -1.0766
11 1 15 -1.0983 0.0509
11 1 16 -1.1773 -0.2569
11 1 17 -1.7659 0.0763
11 1 18 -0.3499 0.4473
11 1 19 1.9710 0.1293
11 1 20 13.4183 0.5827
11 1 21 2.0574 0.1485
11 1 22 -4.4608 -0.0282
11 1 23 3.1090 0.0978
11 2 0 -5.0472 0.6456
11 2 1 -30.7427 0.0589
11 2 2 7.6962 0.7991
11 2 3 14.0068 0.2208
11 2 4 -14.6973 0.1356
11 2 5 -12.6746 0.2368
11 2 6 4.8158 -0.4020
11 2 7 5.8018 0.0339
11 2 8 -5.5875 -0.4441
11 2 9 -14.8299 -0.1649
11 2 10 -5.7567 -0.2606
11 2 11 8.9317 -0.1880
11 2 12 -8.2579 -0.1588
11 2 13 -3.1324 0.0578
11 2 14 7.0052 -0.0568
11 2 15 8.2179 0.2265
11 2 16 -5.4355 0.0097
11 2 17 -4.0756 0.0131
11 2 18 -2.5285 0.1331
11 2 19 1.2100 -0.0998
11 2 20 3.3444 0.2620
11 2 21 -0.9145 0.0697
11 2 22 5.6049 0.1569
11 2 23 -2.6847 0.0273
11 3 0 -13.4490 -0.3784
11 3 1 9.4198 -0.0650
11 3 2 0.5767 -0.3464
11 3 3 -15.3491 0.0780
11 3 4 -14.3202 -0.1202
11 3 5 10.1797 -0.0421
11 3 6 1.2648 -0.1269
11 3 7 -11.8035 -0.2179
11 3 8 -5.8620 -0.3166
11 3 9 6.6032 -0.0870
11 3 10 -1.6055 -0.1685
11 3 11 -6.6678 0.0046
11 3 12 0.2347 0.1622
11 3 13 8.6786 -0.0148
11 3 14 -2.7749 0.4471
11 3 15 -9.0504 0.0574
11 3 16 -1.0983 0.2726
11 3 17 7.8467 -0.0167
11 3 18 -3.0920 -0.1617
11 3 19 -1.5117 0.0180
11 3 20 2.7308 -0.1271
11 3 21 -1.0097 0.2237
11 3 22 -7.5572 0.1453
11 3 23 -10.1704 -0.0685
11 4 0 -1.6238 -0.3003
11 4 1 -25.2256 -0.1096
11 4 2 10.2149 -0.4879
11 4 3 18.4676 0.0874
11 4 4 5.5615 -0.1618
11 4 5 -7.4014 -0.0508
11 4 6 -11.2067 0.4326
11 4 7 20.8669 -0.0770
11 4 8 1.0773 0.4926
11 4 9 -14.0326 0.0638
11 4 10 6.1792 -0.0655
11 4 11 10.1166 0.0147
11 4 12 -1.5570 -0.3193
11 4 13 11.3124 0.0091
11 4 14 6.9224 0.0891
11 4 15 -11.0527 0.1398
11 4 16 -6.5159 0.3157
11 4 17 0.5513 -0.0527
11 4 18 2.2283 -0.0051
11 4 19 5.7078 -0.1476
11 4 20 4.8870 -0.1907
11 4 21 3.7697 0.0749
11 4 22 2.3005 -0.1850
11 4 23 2.7671 -0.0111
11 5 0 -3.2780 0.1359
11 5 1 5.1349 -0.0277
11 5 2 25.0473 0.0037
11 5 3 0.3572 0.0750
11 5 4 0.3680 -0.1131
11 5 5 14.3952 0.1010
11 5 6 11.9108 0.0276
11 5 7 4.8542 -0.0017
11 5 8 -9.0695 0.2089
11 5 9 15.0036 -0.1239
11 5 10 1.7559 0.1413
11 5 11 -13.9048 -0.1413
11 5 12 -7.7939 -0.1319
11 5 13 4.9664 0.0895
11 5 14 -4.2493 -0.1317
11 5 15 0.4556 0.1112
11 5 16 -6.4798 0.0164
11 5 17 8.8797 -0.1787
11 5 18 0.1010 -0.0498
11 5 19 -9.7332 -0.0831
11 5 20 -5.9667 0.0666
11 5 21 6.8377 0.2406
11 5 22 2.6333 0.2571
11 5 23 -1.2418 0.0768
11 6 0 -2.1908 -0.1111
11 6 1 -16.2705 0.1444
11 6 2 -2.4216 0.1632
11 6 3 1.2694 -0.1961
11 6 4 -7.1375 0.1335
11 6 5 -17.5926 -0.2828
11 6 6 -7.1488 -0.0943
11 6 7 10.5940 -0.0024
11 6 8 -12.3224 -0.2303
11 6 9 -3.2466 0.1556
11 6 10 -1.2373 -0.1421
11 6 11 13.7054 -0.1345
11 6 12 5.1170 0.0781
11 6 13 -5.7589 -0.1460
11 6 14 -7.2788 0.1181
11 6 15 8.6502 0.0998
11 6 16 -5.5009 0.0179
11 6 17 0.1953 0.0690
11 6 18 -4.4722 -0.0347
11 6 19 11.1685 -0.0757
11 6 20 1.7503 0.1154
11 6 21 -1.3804 -0.0418
11 6 22 -5.0291 0.0444
11 7 0 -22.6850 -0.0812
11 7 1 -2.0488 0.0517
11 7 2 10.2809 -0.0842
11 7 3 -8.6179 0.0290
11 7 4 3.7237 0.0741
11 7 5 -6.5439 -0.0408
11 7 6 5.8977 0.1086
11 7 7 -2.2571 -0.0686
11 7 8 -15.5090 -0.0631
11 7 9 2.1079 -0.0015
11 7 10 -0.5596 -0.1786
11 7 11 1.3367 0.1068
11 7 12 -11.5935 -0.0749
11 7 13 0.3629 0.1079
11 7 14 5.8988 0.3327
11 7 15 -4.1829 -0.1189
11 7 16 0.8807 0.2034
11 7 17 4.7546 -0.1307
11 7 18 -0.5842 -0.2426
11 7 19 2.8676 0.0521
11 7 20 -4.5285 0.0449
11 7 21 4.0730 0.0734
11 7 22 5.3983 0.1891
11 8 0 -1.3215 -0.0369
11 8 1 6.1037 -0.0799
11 8 2 2.1092 -0.0279
11 8 3 -4.0851 0.1164
11 8 4 12.5351 -0.0037
11 8 5 -10.4563 0.2257
11 8 6 10.2474 0.1966
11 8 7 9.7019 0.1017
11 8 8 15.0681 0.2327
11 8 9 -0.6081 -0.0060
11 8 10 -2.2669 0.1707
11 8 11 13.7211 -0.0855
11 8 12 9.8974 0.0552
11 8 13 2.3303 0.0447
11 8 14 -0.9313 -0.0625
11 8 15 -10.3501 0.0108
11 8 16 7.0532 0.0073
11 8 17 -5.4539 -0.1807
11 8 18 -2.0141 0.1454
11 8 19 3.5544 -0.0283
11 8 20 -5.5967 0.0668
11 8 21 -3.5438 0.0525
11 9 0 1.8858 0.1232
11 9 1 -4.8261 0.0764
11 9 2 2.2641 0.1826
11 9 3 5.6289 0.0292
11 9 4 -1.3614 0.0704
11 9 5 -7.3017 0.0565
11 9 6 5.7359 0.0180
11 9 7 -10.5019 0.0348
11 9 8 -6.6623 0.0385
11 9 9 -19.4968 -0.0414
11 9 10 2.1931 -0.0057
11 9 11 -3.1098 -0.1312
11 9 12 -8.0423 -0.0671
11 9 13 1.5470 -0.1335
11 9 14 6.8781 0.0439
11 9 15 -4.7850 0.0092
11 9 16 2.0925 -0.0038
11 9 17 -2.0122 0.0362
11 9 18 4.3987 0.0015
11 9 19 -2.6113 -0.2136
11 9 20 -2.5658 0.0811
11 9 21 -0.0498 -0.0443
11 10 0 8.9988 0.0230
11 10 1 -7.3452 0.0775
11 10 2 -5.8640 0.0491
11 10 3 -4.0113 -0.0956
11 10 4 3.8161 0.0204
11 10 5 2.5895 -0.2200
11 10 6 0.3910 -0.0377
11 10 7 -0.7170 -0.0530
11 10 8 18.6502 -0.0568
11 10 9 6.3613 0.0144
11 10 10 -2.6395 -0.0819
11 10 11 -2.2430 -0.0619
11 10 12 1.5242 -0.0404
11 10 13 5.8748 0.0358
11 10 14 -3.3696 0.0351
11 10 15 0.5832 -0.0261
11 10 16 8.6798 0.1599
11 10 17 -6.5389 0.0936
11 10 18 0.6538 -0.0680
11 10 19 4.8403 0.1323
11 10 20 5.7821 0.0726
11 11 0 11.9103 -0.0583
11 11 1 -22.9099 -0.0552
11 11 2 6.6428 0.0196
11 11 3 5.5234 -0.0419
11 11 4 -8.8925 0.0081
11 11 5 -4.0361 -0.1253
11 11 6 -7.5998 0.0365
11 11 7 -0.6780 -0.0604
11 11 8 -4.1903 0.0232
11 11 9 -2.5312 0.0525
11 11 10 2.4318 -0.0559
11 11 11 2.9984 -0.0409
11 11 12 -7.1647 0.0046
11 11 13 -11.1408 -0.0510
11 11 14 -5.8165 0.1228
11 11 15 3.1961 -0.0133
11 11 16 7.4351 0.1386
11 11 17 1.2575 -0.1622
11 11 18 -1.0622 -0.0516
11 11 19 3.9010 -0.2805
11 12 0 -4.1417 0.0776
11 12 1 2.3623 -0.0226
11 12 2 8.3966 -0.0070
11 12 3 -3.2770 -0.0250
11 12 4 2.2118 -0.0601
11 12 5 -2.5283 0.0280
11 12 6 0.1014 0.0198
11 12 7 10.9476 0.0354
11 12 8 4.0829 0.1747
11 12 9 -1.2752 0.1353
11 12 10 -4.3524 0.0497
11 12 11 6.3430 -0.1266
11 12 12 7.9282 -0.0433
11 12 13 -0.1227 -0.1482
11 12 14 -4.7879 0.2211
11 12 15 -1.7043 -0.0610
11 12 16 4.8364 0.0176
11 12 17 -3.3682 0.2017
11 12 18 -8.8931 0.1004
11 13 0 6.5759 0.1302
11 13 1 -5.1518 0.0923
11 13 2 -8.8381 0.2020
11 13 3 3.0346 -0.0372
11 13 4 2.1373 0.0218
11 13 5 -1.3400 -0.1655
11 13 6 0.5801 -0.1148
11 13 7 8.5592 -0.0837
11 13 8 7.7768 -0.0027
11 13 9 -11.0324 -0.0357
11 13 10 1.6346 0.0550
11 13 11 -0.9817 -0.2822
11 13 12 -2.7531 -0.1206
11 13 13 -4.3712 0.0937
11 13 14 -3.8717 -0.1257
11 13 15 8.8919 0.0916
11 13 16 5.8685 0.0326
11 13 17 -2.4706 -0.2404
11 14 0 2.2519 0.0026
11 14 1 2.4275 0.0099
11 14 2 10.5958 0.0782
11 14 3 -1.6284 -0.2285
11 14 4 -0.6670 -0.0762
11 14 5 5.2653 -0.2077
11 14 6 1.9859 -0.0285
11 14 7 -1.0674 0.0646
11 14 8 -5.6648 -0.0497
11 14 9 7.6328 0.0344
11 14 10 5.3675 0.1707
11 14 11 -18.9855 -0.1863
11 14 12 6.7384 0.0419
11 14 13 -0.6267 -0.1584
11 14 14 -1.5844 0.2252
11 14 15 -4.5014 0.4575
11 14 16 -4.3683 0.1836
11 15 0 5.4777 -0.0178
11 15 1 -2.7733 0.0724
11 15 2 -20.4484 -0.0864
11 15 3 -4.7343 0.0480
11 15 4 0.7113 -0.0196
11 15 5 -7.3261 -0.0134
11 15 6 1.8054 0.2459
11 15 7 4.7817 -0.0227
11 15 8 -3.0680 0.0921
11 15 9 0.4497 0.1243
11 15 10 -5.8754 -0.0465
11 15 11 0.0062 0.1144
11 15 12 4.1192 -0.1944
11 15 13 -8.8984 0.3407
11 15 14 5.3589 0.6537
11 15 15 3.5183 -0.0045
11 16 0 -11.0500 -0.0234
11 16 1 14.5367 -0.2277
11 16 2 -4.4650 -0.0470
11 16 3 4.6564 -0.2268
11 16 4 -1.8345 -0.0858
11 16 5 2.2517 0.1088
11 16 6 -1.8372 0.0104
11 16 7 10.7712 0.3068
11 16 8 -3.0435 0.1484
11 16 9 1.4654 -0.3068
11 16 10 -2.0878 -0.3405
11 16 11 15.8407 0.0816
11 16 12 -6.9557 -0.5605
11 16 13 -4.7777 0.2488
11 17 0 -20.4402 -0.0318
11 17 1 6.9583 0.2229
11 17 2 -23.3908 -0.0993
11 17 3 8.7849 -0.0466
11 17 4 15.7152 -0.3589
11 17 5 5.6611 0.0183
11 17 6 -24.5048 -0.0282
11 17 7 -4.8794 0.2816
11 17 8 -0.8678 0.0790
11 17 9 9.0700 -0.0928
11 17 10 1.6370 0.4606
11 17 11 -0.3144 -0.7222
11 18 0 -1.5180 0.0952
11 18 1 3.0125 0.3202
11 18 2 1.2317 -0.1018
11 18 3 9.9863 0.2713
11 18 4 -14.3330 0.1699
11 18 5 4.1204 0.0816
11 18 6 12.1079 0.3791
11 18 7 13.2367 0.0054
11 18 8 -10.1856 -0.4874
11 19 0 3.8827 0.2819
11 19 1 -2.5965 -0.6330
11 19 2 14.4052 0.2171
11 19 3 -0.3651 -0.3310
11 19 4 -8.4093 -0.3709
11 19 5 -0.9622 0.0884
12 0 0 -27.3192 -3.5449
12 0 2 8.5860 -1.3040
12 0 4 -31.8673 0.9740
12 0 6 -7.3461 0.9034
12 0 8 -17.0286 -0.3771
12 0 10 5.3829 -0.7648
12 0 12 1.2412 0.1368
12 0 14 8.5608 1.0682
12 0 16 -6.7366 0.6045
12 0 18 -4.1251 -0.7049
12 0 20 9.4784 -1.1236
12 1 0 2.2826 -0.5948
12 1 1 -6.3014 0.2108
12 1 2 -16.0306 -1.0264
12 1 3 21.4573 0.0248
12 1 4 -4.7395 -0.3857
12 1 5 -0.8380 -0.0077
12 1 6 -8.0037 1.1453
12 1 7 19.9821 0.0058
12 1 8 -4.2777 1.5042
12 1 9 -4.9724 0.0624
12 1 10 -10.5581 0.0808
12 1 11 1.7034 -0.0613
12 1 12 2.4697 -1.0168
12 1 13 -5.8840 -0.2381
12 1 14 -1.1964 -0.6544
12 1 15 -1.1643 -0.1699
12 1 16 0.3977 0.2329
12 1 17 -6.0650 -0.0153
12 1 18 -6.0429 0.5584
12 1 19 5.5199 0.1393
12 1 20 1.7912 -0.0292
12 1 21 -15.7463 0.1388
12 2 0 -9.4868 0.9389
12 2 1 -3.7348 0.2266
12 2 2 14.5217 0.7005
12 2 3 2.8131 0.3002
12 2 4 -21.0165 0.1144
12 2 5 4.9753 0.1769
12 2 6 9.6631 -0.0294
12 2 7 7.3187 -0.0433
12 2 8 -14.1242 0.0244
12 2 9 10.8826 -0.0673
12 2 10 11.3578 -0.0813
12 2 11 5.9439 0.0337
12 2 12 -3.2431 -0.2748
12 2 13 6.0886 0.1965
12 2 14 6.5539 -0.3625
12 2 15 -1.3765 0.0015
12 2 16 3.7415 -0.1739
12 2 17 1.2558 -0.1097
12 2 18 6.9372 0.2624
12 2 19 1.0073 0.0651
12 2 20 6.9621 0.2406
12 2 21 2.2982 0.0616
12 3 0 16.4323 -0.0642
12 3 1 -10.0387 0.0654
12 3 2 -7.5536 0.1097
12 3 3 8.1494 -0.1005
12 3 4 18.7545 -0.1070
12 3 5 -1.0879 -0.0831
12 3 6 -8.5762 -0.3565
12 3 7 9.8090 -0.0427
12 3 8 2.1126 -0.3580
12 3 9 -2.8124 -0.0369
12 3 10 -19.5690 -0.1309
12 3 11 3.6769 -0.1121
12 3 12 4.3830 0.2142
12 3 13 -0.8072 -0.0883
12 3 14 -11.6919 0.2303
12 3 15 -3.4747 -0.0167
12 3 16 1.0965 0.0158
12 3 17 -11.3151 0.0653
12 3 18 -4.5022 -0.0507
12 3 19 1.1750 0.2229
12 3 20 0.7759 0.1769
12 3 21 -10.5034 0.1563
12 4 0 -13.9131 -0.3407
12 4 1 -20.0138 0.0925
12 4 2 -8.9583 -0.2694
12 4 3 1.7863 0.0090
12 4 4 -7.6829 0.0777
12 4 5 -16.0032 -0.1056
12 4 6 7.4839 0.2986
12 4 7 1.9860 0.0363
12 4 8 -12.4359 0.0174
12 4 9 -1.6502 0.0340
12 4 10 2.0364 -0.1696
12 4 11 4.8411 -0.0266
12 4 12 -2.5466 0.0608
12 4 13 2.1162 0.1205
12 4 14 7.3434 0.3411
12 4 15 2.8029 0.0155
12 4 16 0.2155 0.1263
12 4 17 1.0039 -0.1444
12 4 18 7.8933 -0.1008
12 4 19 -3.7750 0.2124
12 4 20 -4.3277 -0.1512
12 4 21 -2.4369 0.1339
12 5 0 7.0901 -0.0140
12 5 1 3.1730 -0.0401
12 5 2 4.0774 -0.3415
12 5 3 -2.8474 0.0809
12 5 4 4.5843 -0.2302
12 5 5 2.5087 0.0370
12 5 6 -4.4480 0.2635
12 5 7 -6.1122 -0.1174
12 5 8 9.8569 0.2988
12 5 9 -1.6395 -0.0982
12 5 10 -10.4098 -0.1137
12 5 11 4.0707 0.1142
12 5 12 12.0955 -0.1965
12 5 13 -4.1244 0.0954
12 5 14 -8.0176 -0.0313
12 5 15 -3.2356 -0.1450
12 5 16 9.5022 -0.0410
12 5 17 -10.2809 -0.0895
12 5 18 -1.0403 0.0357
12 5 19 5.3942 0.2347
12 5 20 1.6898 0.1687
12 5 21 -3.0724 0.4212
12 6 0 4.7037 0.0707
12 6 1 -3.9646 0.0522
12 6 2 3.8456 0.1777
12 6 3 16.9806 -0.2227
12 6 4 0.7950 -0.0041
12 6 5 -1.9600 -0.0262
12 6 6 14.5193 -0.0936
12 6 7 12.1954 0.1728
12 6 8 -4.5096 -0.0148
12 6 9 -6.9062 -0.1019
12 6 10 9.9107 0.0428
12 6 11 5.1286 -0.2388
12 6 12 -3.2728 -0.0238
12 6 13 2.3829 -0.0099
12 6 14 6.3416 -0.1276
12 6 15 8.0512 0.0989
12 6 16 -3.0174 -0.0538
12 6 17 -2.2870 0.0019
12 6 18 4.5813 0.0555
12 6 19 6.0192 0.2381
12 6 20 -4.6079 0.0775
12 7 0 7.0796 -0.0864
12 7 1 2.6653 0.0570
12 7 2 -6.8287 -0.0992
12 7 3 -2.0901 -0.1995
12 7 4 -8.4186 0.1083
12 7 5 1.9345 -0.1881
12 7 6 -10.2000 0.0554
12 7 7 -4.9516 -0.0204
12 7 8 -2.5563 -0.2719
12 7 9 -4.0249 0.1589
12 7 10 -7.8971 -0.3025
12 7 11 -0.5287 0.1120
12 7 12 -3.0871 0.1368
12 7 13 1.7329 -0.0640
12 7 14 -8.8938 0.2264
12 7 15 -0.9847 -0.1322
12 7 16 -11.5156 -0.0822
12 7 17 1.6003 -0.0089
12 7 18 -2.2221 0.0257
12 7 19 5.7495 0.0767
12 7 20 -8.3647 0.0919
12 8 0 11.9247 -0.0681
12 8 1 -11.9160 -0.0032
12 8 2 -0.3383 -0.1922
12 8 3 -4.1323 0.0621
12 8 4 3.5323 -0.0611
12 8 5 6.2944 0.1110
12 8 6 -5.6637 0.1814
12 8 7 16.7215 0.0722
12 8 8 -4.1895 0.2198
12 8 9 -5.2616 0.0353
12 8 10 3.2174 0.0446
12 8 11 5.1980 0.1436
12 8 12 -2.6615 -0.0533
12 8 13 3.6960 0.1077
12 8 14 -2.3482 0.0710
12 8 15 1.3709 -0.1593
12 8 16 -1.5891 0.2031
12 8 17 1.5968 0.0098
12 8 18 -3.5699 0.0289
12 8 19 11.2516 0.3308
12 9 0 4.1305 0.0519
12 9 1 -2.7073 0.0474
12 9 2 2.6813 0.0576
12 9 3 -8.0537 -0.0164
12 9 4 -0.4087 0.0302
12 9 5 4.2916 0.2302
12 9 6 -5.7383 0.0672
12 9 7 0.3031 0.1215
12 9 8 -0.7676 0.0620
12 9 9 1.1872 -0.1258
12 9 10 8.9042 0.0535
12 9 11 -9.0383 -0.1970
12 9 12 -2.3770 -0.0065
12 9 13 3.1919 -0.0786
12 9 14 0.4090 -0.0401
12 9 15 -3.3506 0.0199
12 9 16 4.7053 -0.1197
12 9 17 1.7484 -0.1542
12 9 18 -0.7232 -0.0482
12 9 19 5.9314 -0.0670
12 10 0 17.9840 0.0787
12 10 1 -5.6890 0.1023
12 10 2 -1.7192 0.0310
12 10 3 -0.4963 -0.0940
12 10 4 14.7373 -0.0126
12 10 5 3.9642 -0.0097
12 10 6 -1.8581 -0.0270
12 10 7 -1.6137 0.0630
12 10 8 2.5748 -0.0190
12 10 9 -4.3402 0.0507
12 10 10 5.8407 -0.0770
12 10 11 -4.5914 -0.0379
12 10 12 8.6927 0.0528
12 10 13 -5.3642 -0.1322
12 10 14 -5.5013 0.1082
12 10 15 1.0165 0.0629
12 10 16 -2.6853 -0.1833
12 10 17 -1.8338 0.2298
12 10 18 3.3646 0.0871
12 11 0 -12.9157 -0.0433
12 11 1 -4.7154 0.0342
12 11 2 9.8818 -0.0193
12 11 3 -12.6785 -0.0160
12 11 4 3.7135 0.0001
12 11 5 -3.5295 -0.0284
12 11 6 0.3586 0.0604
12 11 7 -8.9173 -0.1190
12 11 8 -4.4898 0.0075
12 11 9 4.7377 -0.0752
12 11 10 2.4644 -0.1477
12 11 11 -2.8408 0.0267
12 11 12 3.9649 -0.0122
12 11 13 3.8726 0.1284
12 11 14 5.6413 0.0579
12 11 15 -1.5274 0.0711
12 11 16 -2.4162 -0.0518
12 11 17 7.1349 -0.1718
12 12 0 5.3286 -0.1508
12 12 1 3.7138 -0.0272
12 12 2 -3.2070 -0.1427
12 12 3 -1.8819 -0.0222
12 12 4 7.1761 -0.0151
12 12 5 -0.8175 0.0890
12 12 6 0.1595 -0.0148
12 12 7 1.6629 0.0940
12 12 8 4.9535 0.0258
12 12 9 9.8457 0.0311
12 12 10 -0.7262 -0.0045
12 12 11 -5.6543 -0.1688
12 12 12 0.5256 0.1488
12 12 13 -6.0592 0.0374
12 12 14 -5.6464 -0.0764
12 12 15 2.5108 0.1648
12 12 16 2.7240 -0.0956
12 12 17 3.7078 -0.2508
12 13 0 -9.1371 0.1170
12 13 1 3.2348 0.0999
12 13 2 0.3316 0.0553
12 13 3 -2.2412 0.1423
12 13 4 -1.3758 -0.0562
12 13 5 -6.2500 0.1221
12 13 6 3.8920 -0.0182
12 13 7 -7.0863 -0.0859
12 13 8 -14.4814 0.0917
12 13 9 4.2243 0.1424
12 13 10 0.1857 -0.1694
12 13 11 2.5313 0.0730
12 13 12 -0.2119 -0.1976
12 13 13 -2.9958 0.2096
12 13 14 5.4354 -0.0085
12 13 15 3.2525 0.0251
12 13 16 -0.9479 -0.6326
12 14 0 -2.3928 0.0262
12 14 1 13.5050 -0.0929
12 14 2 -13.6739 -0.1206
12 14 3 0.3540 -0.2140
12 14 4 11.7355 -0.1649
12 14 5 -2.6040 0.0865
12 14 6 2.2747 -0.2215
12 14 7 -1.6479 -0.0153
12 14 8 9.1399 -0.0622
12 14 9 5.6283 -0.0687
12 14 10 -1.6698 -0.1187
12 14 11 -10.3552 -0.3514
12 14 12 -3.4249 -0.1941
12 14 13 7.1248 0.4578
12 14 14 -3.3221 -0.0629
12 15 0 15.9946 -0.1259
12 15 1 10.0038 0.2203
12 15 2 -5.6281 -0.1977
12 15 3 8.8696 0.2030
12 15 4 0.4357 -0.0394
12 15 5 -3.1926 0.1088
12 15 6 4.7405 -0.0004
12 15 7 -1.3053 -0.0671
12 15 8 5.2562 -0.1932
12 15 9 -11.0900 0.1343
12 15 10 6.9037 0.2244
12 15 11 1.2790 -0.1021
12 15 12 6.5849 0.7085
12 16 0 -3.6615 0.0192
12 16 1 3.5573 -0.1216
12 16 2 -3.9895 -0.1495
12 16 3 -5.5531 0.0386
12 16 4 -2.8147 -0.1082
12 16 5 6.8389 0.3092
12 16 6 5.8590 0.4134
12 16 7 -0.6607 -0.0870
12 16 8 -1.3346 -0.0124
12 16 9 -15.0412 0.3524
12 16 10 -0.2152 -0.9273
12 17 0 -10.4831 -0.0684
12 17 1 -3.2305 -0.1453
12 17 2 -10.0966 -0.2516
12 17 3 5.8410 -0.0598
12 17 4 2.7840 -0.0850
12 17 5 0.7611 -0.0433
12 17 6 -5.8474 -0.1094
12 17 7 -2.4603 -0.2162
12 17 8 3.8197 -0.1371
12 18 0 -6.7166 -0.3284
12 18 1 9.4093 0.3813
12 18 2 1.9832 0.2150
12 18 3 -6.8323 0.1186
12 18 4 -2.4136 0.4672
12 18 5 6.7373 0.1255
13 0 0 4.4520 -2.4621
13 0 2 -5.7847 0.4051
13 0 4 8.1733 0.9555
13 0 6 7.1815 -0.3673
13 0 8 13.3436 -1.1354
13 0 10 -8.4144 -0.3026
13 0 12 7.7672 0.9357
13 0 14 9.6885 1.0991
13 0 16 13.7229 -0.0840
13 0 18 -8.4055 -0.9423
13 0 20 9.8576 -0.4918
13 1 0 13.7507 -1.1618
13 1 1 -10.5398 0.1834
13 1 2 -4.0829 -1.3122
13 1 3 21.8446 -0.1381
13 1 4 -4.9288 -0.0128
13 1 5 -12.9914 -0.0976
13 1 6 -1.6227 1.2890
13 1 7 6.5262 0.0306
13 1 8 -0.6887 0.8778
13 1 9 -16.2229 0.0541
13 1 10 2.9648 -0.3822
13 1 11 3.9863 -0.1357
13 1 12 -3.0756 -0.5915
13 1 13 -10.5134 -0.3130
13 1 14 1.4135 0.1418
13 1 15 1.2289 -0.2473
13 1 16 4.1064 0.6038
13 1 17 -5.5560 -0.0049
13 1 18 -3.3959 0.0181
13 1 19 -4.4756 0.0677
13 1 20 -8.2482 -0.8524
13 2 0 -11.7792 0.5900
13 2 1 11.3148 0.3066
13 2 2 -13.2327 0.3047
13 2 3 -1.6939 0.2631
13 2 4 -5.1365 0.1014
13 2 5 5.7237 -0.0311
13 2 6 -3.8413 0.2719
13 2 7 -4.7463 -0.0591
13 2 8 3.4714 0.3111
13 2 9 7.0341 0.1625
13 2 10 3.5094 0.0877
13 2 11 -14.3699 0.2892
13 2 12 0.8010 -0.3969
13 2 13 4.5120 0.0242
13 2 14 -2.0305 -0.5329
13 2 15 -4.2247 -0.1396
13 2 16 1.9402 -0.0529
13 2 17 -0.3477 0.0270
13 2 18 -0.2873 0.3187
13 2 19 3.9586 0.1237
13 2 20 7.2032 0.1432
13 3 0 10.0397 0.3442
13 3 1 -8.5667 0.1285
13 3 2 -17.8681 0.3578
13 3 3 21.7196 -0.1807
13 3 4 -1.8809 -0.1819
13 3 5 -2.8215 0.0293
13 3 6 -6.3155 -0.4026
13 3 7 4.8223 0.1656
13 3 8 3.2846 -0.1983
13 3 9 0.0766 0.0304
13 3 10 -1.1454 -0.0380
13 3 11 2.3490 -0.2022
13 3 12 8.4467 -0.0567
13 3 13 -3.0621 -0.2374
13 3 14 3.7165 -0.2348
13 3 15 7.8146 -0.0083
13 3 16 -5.3208 -0.1443
13 3 17 1.3059 0.2444
13 3 18 4.7018 0.2314
13 3 19 1.2351 0.1955
13 4 0 0.3053 -0.1984
13 4 1 7.9174 0.1537
13 4 2 2.4560 0.0403
13 4 3 -0.6174 -0.0346
13 4 4 -8.7006 0.1104
13 4 5 22.3817 -0.0759
13 4 6 -0.7701 -0.1023
13 4 7 0.0862 -0.0030
13 4 8 -0.0823 -0.2061
13 4 9 7.2466 0.0170
13 4 10 -8.0363 -0.0065
13 4 11 -8.0634 0.0872
13 4 12 2.5902 0.2752
13 4 13 11.2801 0.0261
13 4 14 -6.0030 0.2190
13 4 15 -6.3440 -0.1242
13 4 16 -8.4958 0.0373
13 4 17 0.4769 0.2450
13 4 18 -0.9461 -0.0881
13 4 19 -1.3614 0.4059
13 5 0 1.0247 -0.2586
13 5 1 -7.5018 -0.0778
13 5 2 -13.1054 -0.2648
13 5 3 0.1127 -0.0110
13 5 4 1.8033 0.0168
13 5 5 -0.5992 0.0038
13 5 6 -10.8997 0.2762
13 5 7 7.2481 0.0512
13 5 8 -3.4920 0.0780
13 5 9 -1.5467 0.1882
13 5 10 -3.7775 -0.1712
13 5 11 -5.5115 0.1063
13 5 12 -2.0274 -0.0737
13 5 13 1.2469 -0.0709
13 5 14 -5.4610 -0.0742
13 5 15 2.7682 -0.1545
13 5 16 -0.5137 0.0524
13 5 17 3.6319 0.0646
13 5 18 -3.6174 0.0485
13 5 19 -5.6609 0.3271
13 6 0 -1.3411 0.1174
13 6 1 -3.3313 0.0300
13 6 2 12.4883 0.0135
13 6 3 1.1414 0.0947
13 6 4 -1.5118 -0.1014
13 6 5 1.3533 0.1255
13 6 6 0.6455 0.0875
13 6 7 2.9185 -0.0361
13 6 8 1.5023 0.1846
13 6 9 2.6283 -0.1798
13 6 10 11.3401 -0.0422
13 6 11 -1.0580 0.0189
13 6 12 -1.0734 -0.2226
13 6 13 6.4100 0.0712
13 6 14 4.6038 -0.0542
13 6 15 -4.3287 -0.0007
13 6 16 -2.6089 0.0409
13 6 17 0.0334 0.3320
13 6 18 13.6801 -0.0183
13 6 19 -1.0758 0.0359
13 7 0 5.8670 -0.0838
13 7 1 1.1834 -0.1672
13 7 2 -8.5915 0.0143
13 7 3 -4.6782 -0.2654
13 7 4 11.0948 0.0110
13 7 5 -1.1831 -0.0826
13 7 6 -1.9688 -0.2574
13 7 7 -8.4196 0.0644
13 7 8 -0.7308 -0.3573
13 7 9 -1.4588 -0.0255
13 7 10 1.3437 -0.0444
13 7 11 -1.4181 -0.1370
13 7 12 7.3811 0.1380
13 7 13 4.9474 -0.0430
13 7 14 -4.0420 -0.0884
13 7 15 2.1150 0.1117
13 7 16 2.2363 -0.0618
13 7 17 -1.2681 0.1866
13 7 18 -3.8383 0.0398
13 8 0 0.4023 -0.1500
13 8 1 0.2757 0.0364
13 8 2 0.7430 -0.1562
13 8 3 -6.1126 0.0931
13 8 4 -2.8182 0.0421
13 8 5 -2.4951 -0.0113
13 8 6 9.0263 0.0954
13 8 7 -1.6325 0.0860
13 8 8 -7.7260 0.0101
13 8 9 0.6587 0.1985
13 8 10 2.6078 -0.1561
13 8 11 -0.7676 0.1413
13 8 12 -11.2202 0.0651
13 8 13 7.5767 -0.0773
13 8 14 -0.9609 0.1019
13 8 15 -0.8141 0.0279
13 8 16 -10.1575 -0.0256
13 8 17 0.7052 0.3401
13 8 18 -2.1341 0.0854
13 9 0 -10.2612 -0.0033
13 9 1 4.9417 -0.0209
13 9 2 12.4190 -0.0837
13 9 3 -4.5943 0.1943
13 9 4 -4.6034 -0.0095
13 9 5 8.6973 0.2568
13 9 6 -4.9168 0.1478
13 9 7 -4.5667 0.0509
13 9 8 1.3932 0.2054
13 9 9 16.1085 -0.1788
13 9 10 -4.4914 0.0810
13 9 11 0.5609 0.0937
13 9 12 -1.2462 -0.0519
13 9 13 5.8542 0.1959
13 9 14 -2.0429 -0.2026
13 9 15 -0.9326 -0.1195
13 9 16 -4.2608 -0.0100
13 9 17 13.2552 -0.1230
13 10 0 -5.8549 0.0649
13 10 1 7.6232 0.0666
13 10 2 -0.5875 0.0557
13 10 3 9.2471 -0.0208
13 10 4 -3.4841 -0.0657
13 10 5 5.9689 0.0917
13 10 6 4.3036 -0.1613
13 10 7 0.8243 0.1022
13 10 8 -2.2085 -0.1094
13 10 9 -4.3087 -0.0299
13 10 10 -7.8508 0.0782
13 10 11 9.1913 -0.1351
13 10 12 -7.5903 0.0197
13 10 13 -10.4185 0.0406
13 10 14 3.3992 -0.2855
13 10 15 6.5007 0.0573
13 10 16 -6.2384 -0.1017
13 11 0 -6.9032 0.0174
13 11 1 2.9367 0.0952
13 11 2 -1.9668 0.0062
13 11 3 -1.2952 0.0749
13 11 4 -14.1562 0.0772
13 11 5 1.2194 -0.0766
13 11 6 -6.2221 -0.0447
13 11 7 -9.9515 -0.0959
13 11 8 6.5966 -0.1835
13 11 9 0.8381 -0.0299
13 11 10 0.1317 -0.2701
13 11 11 4.0137 0.3674
13 11 12 0.3386 0.0528
13 11 13 1.5230 0.1875
13 11 14 -2.4824 -0.0201
13 11 15 -0.7010 -0.0429
13 11 16 2.9691 -0.4043
13 12 0 11.2817 -0.1241
13 12 1 -8.8939 -0.0915
13 12 2 12.2052 -0.0176
13 12 3 9.3699 0.1209
13 12 4 -5.6912 -0.0686
13 12 5 1.9141 0.1908
13 12 6 4.5831 -0.0194
13 12 7 -3.5152 0.1130
13 12 8 3.8610 -0.0446
13 12 9 -4.4340 -0.1333
13 12 10 3.5408 0.0693
13 12 11 3.9520 0.1474
13 12 12 -2.1368 -0.0718
13 12 13 -2.8021 0.0460
13 12 14 2.6965 -0.3082
13 12 15 5.0497 -0.4359
13 13 0 6.1451 -0.0365
13 13 1 -3.9061 0.2203
13 13 2 0.9631 -0.0731
13 13 3 -10.6096 0.3186
13 13 4 -5.7441 0.1059
13 13 5 4.2977 0.2302
13 13 6 8.1609 -0.1122
13 13 7 -2.3292 0.1028
13 13 8 1.6113 -0.1086
13 13 9 1.8525 -0.0186
13 13 10 6.8809 -0.0515
13 13 11 0.8238 0.1804
13 13 12 3.6254 0.5051
13 13 13 0.2354 0.1751
13 13 14 -3.6983 -0.6044
13 14 0 4.3489 0.0704
13 14 1 1.6935 -0.2370
13 14 2 6.7807 0.0384
13 14 3 -6.8288 0.0005
13 14 4 2.5590 -0.0123
13 14 5 -1.3278 0.0117
13 14 6 -8.3641 -0.1445
13 14 7 -4.8612 -0.1155
13 14 8 0.0504 -0.1957
13 14 9 -10.0039 -0.2334
13 14 10 -0.3328 -0.4010
13 14 11 -0.2034 0.4655
13 14 12 -2.2713 -0.4401
13 15 0 -12.6059 -0.0229
13 15 1 -7.7793 -0.1288
13 15 2 10.5273 -0.0590
13 15 3 -8.0571 -0.0014
13 15 4 1.2947 -0.0082
13 15 5 -5.0317 0.0901
13 15 6 7.1998 -0.2619
13 15 7 10.7929 -0.4280
13 15 8 6.9819 0.4071
13 15 9 -9.3931 -0.3181
13 15 10 6.4289 0.7911
13 16 0 4.2598 -0.0648
13 16 1 0.4056 0.0125
13 16 2 3.9935 0.1561
13 16 3 -8.7052 0.0824
13 16 4 8.6434 0.5163
13 16 5 -4.7175 -0.0626
13 16 6 -2.2897 0.0362
13 16 7 -1.6503 0.3120
13 17 0 -9.0489 0.4879
13 17 1 0.7425 0.0676
13 17 2 7.8853 0.0289
13 17 3 -4.0922 0.1650
13 17 4 4.1835 -0.3057
14 0 0 9.1547 -0.0160
14 0 2 -22.0223 1.2761
14 0 4 14.4224 -0.1605
14 0 6 -6.9322 -1.3433
14 0 8 5.2782 -0.8204
14 0 10 3.5569 0.4382
14 0 12 8.9223 0.9393
14 0 14 -12.3986 0.2510
14 0 16 -9.3055 -0.5994
14 0 18 -7.1929 -0.3994
14 1 0 3.8288 -0.8418
14 1 1 5.8759 -0.0053
14 1 2 3.6951 -0.7617
14 1 3 1.1305 -0.3192
14 1 4 0.7020 0.3315
14 1 5 4.7193 -0.0395
14 1 6 3.8739 0.7645
14 1 7 -6.8706 0.2933
14 1 8 -5.6671 -0.1287
14 1 9 -2.2712 0.0126
14 1 10 2.7096 -0.4734
14 1 11 -8.1881 -0.2677
14 1 12 2.3659 0.2813
14 1 13 9.2771 -0.2730
14 1 14 4.8273 0.8046
14 1 15 1.1630 0.0209
14 1 16 -0.7607 0.1864
14 1 17 2.7962 -0.1565
14 1 18 -8.5458 -0.9689
14 2 0 14.6471 -0.2254
14 2 1 2.6207 0.1580
14 2 2 -7.9360 -0.1237
14 2 3 -4.9087 -0.0471
14 2 4 7.2614 0.2388
14 2 5 7.0047 -0.0575
14 2 6 -6.1400 0.6263
14 2 7 -9.6430 0.0985
14 2 8 8.7755 0.5038
14 2 9 9.9894 0.2131
14 2 10 -0.3138 -0.0129
14 2 11 -2.4989 0.1340
14 2 12 12.3292 -0.4647
14 2 13 -2.1284 -0.0559
14 2 14 -7.0575 -0.1876
14 2 15 2.0069 0.0735
14 2 16 4.3937 0.1288
14 2 17 1.7548 0.0276
14 2 18 0.4566 0.2711
14 3 0 -2.3392 0.7368
14 3 1 1.7681 -0.0941
14 3 2 -0.0570 0.2769
14 3 3 -1.6896 -0.1752
14 3 4 -1.2606 -0.2116
14 3 5 -8.3723 0.2230
14 3 6 2.2499 -0.1164
14 3 7 -3.8531 0.3620
14 3 8 -2.8721 0.0243
14 3 9 -11.5048 -0.1228
14 3 10 -5.6154 -0.1387
14 3 11 -2.0395 -0.3094
14 3 12 -1.0374 -0.3217
14 3 13 0.2138 0.0074
14 3 14 2.1560 -0.2491
14 3 15 -1.5741 0.2690
14 3 16 -8.1065 0.1711
14 3 17 -4.4395 0.0390
14 4 0 -7.0236 0.0461
14 4 1 10.8803 -0.0637
14 4 2 -8.3322 0.2149
14 4 3 -12.2799 -0.1801
14 4 4 4.8487 -0.0533
14 4 5 5.9286 -0.0960
14 4 6 0.9858 -0.2819
14 4 7 0.7718 -0.0143
14 4 8 7.5894 -0.2991
14 4 9 8.3837 -0.0193
14 4 10 -0.1181 0.1402
14 4 11 -0.4154 0.0182
14 4 12 -1.4218 0.2602
14 4 13 0.0694 -0.2140
14 4 14 9.4677 0.1348
14 4 15 4.6317 0.1808
14 4 16 7.2919 -0.0172
14 4 17 -2.1449 0.3114
14 5 0 -6.3047 -0.1951
14 5 1 5.2943 -0.0506
14 5 2 -5.3972 -0.1852
14 5 3 8.5168 -0.0283
14 5 4 -2.5418 0.0610
14 5 5 -6.3819 0.0781
14 5 6 -3.5086 0.0852
14 5 7 7.7522 0.1334
14 5 8 -6.5697 0.0517
14 5 9 -3.3116 0.1401
14 5 10 -3.3939 -0.0231
14 5 11 8.1413 0.0240
14 5 12 -6.5221 -0.1708
14 5 13 -0.8597 -0.1458
14 5 14 2.4588 0.1127
14 5 15 3.0363 -0.1138
14 5 16 0.5544 0.1463
14 5 17 -16.6387 -0.0011
14 6 0 -9.3599 0.0096
14 6 1 11.1376 0.0027
14 6 2 -1.8539 -0.1178
14 6 3 1.8819 0.1771
14 6 4 -2.1793 0.0478
14 6 5 10.1618 -0.0054
14 6 6 3.9158 0.1915
14 6 7 2.2045 -0.0945
14 6 8 -8.5847 0.1117
14 6 9 2.6714 0.0056
14 6 10 -11.9175 -0.0616
14 6 11 -2.0913 0.0430
14 6 12 -2.7789 -0.0787
14 6 13 6.4298 -0.0486
14 6 14 -1.6912 -0.0766
14 6 15 -8.3759 0.2477
14 6 16 0.0270 0.0536
14 6 17 -1.8316 -0.0113
14 7 0 3.9261 0.0673
14 7 1 3.1779 -0.0915
14 7 2 -5.1129 0.0173
14 7 3 5.4773 0.0203
14 7 4 -5.5969 -0.0961
14 7 5 6.4735 0.0367
14 7 6 -0.5648 -0.0939
14 7 7 10.6414 -0.2308
14 7 8 5.8670 0.0529
14 7 9 -12.0797 -0.1677
14 7 10 -3.9173 0.0826
14 7 11 12.8909 0.0762
14 7 12 -2.7422 -0.1491
14 7 13 1.9185 -0.0269
14 7 14 8.6331 0.0063
14 7 15 -2.6379 0.0860
14 7 16 -0.6512 0.1698
14 8 0 -7.7419 -0.0686
14 8 1 2.7153 -0.0246
14 8 2 0.6818 0.0601
14 8 3 -3.4733 -0.1748
14 8 4 -7.1374 0.1050
14 8 5 1.3609 -0.1072
14 8 6 -1.9457 -0.2520
14 8 7 -4.0797 0.1615
14 8 8 2.2822 -0.2878
14 8 9 -5.7814 0.2297
14 8 10 -0.6682 0.1578
14 8 11 6.2035 -0.1067
14 8 12 0.5849 0.0416
14 8 13 -0.3838 -0.0770
14 8 14 4.0080 -0.0819
14 8 15 -2.1430 0.1634
14 8 16 -5.5708 0.1616
14 9 0 0.7231 -0.0202
14 9 1 -15.3530 0.0466
14 9 2 -0.1652 -0.2135
14 9 3 -4.0251 0.1220
14 9 4 -0.6382 0.0836
14 9 5 -9.4785 -0.1361
14 9 6 -2.5925 0.2551
14 9 7 10.9623 -0.1882
14 9 8 9.6931 0.1193
14 9 9 -17.1722 0.2323
14 9 10 -2.2297 -0.0820
14 9 11 5.5986 0.3562
14 9 12 -6.2930 -0.0024
14 9 13 -2.1262 -0.0792
14 9 14 5.8375 0.0944
14 9 15 -0.8308 0.1339
14 10 0 6.3150 0.1872
14 10 1 -2.1235 -0.0402
14 10 2 18.7215 0.1011
14 10 3 -4.0084 0.0582
14 10 4 -8.9842 -0.1234
14 10 5 4.3402 0.1951
14 10 6 10.5728 -0.2535
14 10 7 0.2420 0.0959
14 10 8 2.0671 0.1516
14 10 9 2.1904 -0.1899
14 10 10 5.8364 0.3625
14 10 11 4.3813 -0.1981
14 10 12 -2.2983 -0.3476
14 10 13 -3.2193 -0.4097
14 10 14 -0.1168 -0.2648
14 10 15 1.5086 -0.0904
14 11 0 3.0179 0.0757
14 11 1 -3.0518 0.2247
14 11 2 7.0391 0.0860
14 11 3 6.6254 -0.0373
14 11 4 7.4516 0.1534
14 11 5 2.7960 -0.1512
14 11 6 1.8196 -0.2327
14 11 7 3.5567 0.0328
14 11 8 -4.3703 -0.2299
14 11 9 2.5841 0.3102
14 11 10 -2.0132 0.2423
14 11 11 0.6526 -0.0330
14 11 12 0.1532 0.3954
14 11 13 -3.9267 -0.0383
14 11 14 -5.3974 -0.3018
14 12 0 -2.8768 0.0857
14 12 1 -4.6917 -0.0852
14 12 2 -3.3084 0.1237
14 12 3 -7.8427 -0.1575
14 12 4 -8.5586 -0.0188
14 12 5 -4.1284 -0.1945
14 12 6 -5.4776 -0.0038
14 12 7 -7.6261 -0.1880
14 12 8 -2.2619 0.2884
14 12 9 -0.8753 0.0766
14 12 10 -8.0894 0.1231
14 12 11 -0.5536 0.2994
14 12 12 -6.7524 -0.3847
14 13 0 7.0253 0.0389
14 13 1 -1.2609 0.0622
14 13 2 -1.7692 0.1027
14 13 3 2.4953 -0.0392
14 13 4 7.9189 -0.0716
14 13 5 -1.9448 -0.0678
14 13 6 -5.5109 -0.2292
14 13 7 5.5354 -0.2361
14 13 8 16.3924 0.2063
14 13 9 0.0886 -0.2991
14 13 10 -6.2957 0.8328
14 14 0 0.1311 0.2845
14 14 1 0.9260 0.0460
14 14 2 7.4159 0.3224
14 14 3 -4.7708 -0.0336
14 14 4 10.2737 0.1957
14 14 5 -2.4396 0.0064
14 14 6 2.6308 0.1585
14 14 7 4.2988 0.5877
14 14 8 -10.9234 -0.0903
14 14 9 2.3221 0.7424
14 15 0 5.9917 0.4521
14 15 1 -1.0032 -0.0922
14 15 2 1.0067 -0.1132
14 15 3 -13.7759 -0.2222
14 15 4 -0.2575 -0.4671
14 15 5 -3.6271 -0.5420
14 15 6 2.7592 0.1546
14 16 0 1.0893 -0.3074
14 16 1 -8.0232 0.1450
14 16 2 0.0117 0.3353
14 16 3 -7.0682 -0.3337
15 0 0 -3.8162 2.0229
15 0 2 1.4502 0.7725
15 0 4 0.4635 -1.1456
15 0 6 6.0785 -1.2452
15 0 8 3.2410 0.0381
15 0 10 -8.2930 0.6778
15 0 12 -14.7531 0.1931
15 0 14 2.5463 -0.6116
15 1 0 -9.0419 -0.1282
15 1 1 0.8856 -0.2593
15 1 2 -2.5515 0.1215
15 1 3 -12.9076 -0.2139
15 1 4 7.4860 0.2877
15 1 5 7.8352 0.0655
15 1 6 -6.3649 -0.3732
15 1 7 -9.5702 0.0883
15 1 8 -4.3674 -0.6963
15 1 9 9.1512 -0.2366
15 1 10 -3.3706 0.1393
15 1 11 1.1339 -0.2080
15 1 12 -3.5972 1.1323
15 1 13 3.0335 0.1910
15 1 14 -9.2060 0.4918
15 1 15 -3.2378 -0.3041
15 2 0 -1.9196 -0.8782
15 2 1 3.1975 -0.1321
15 2 2 6.9868 -0.2686
15 2 3 8.3910 -0.2869
15 2 4 -0.6728 0.4767
15 2 5 -3.1581 -0.1411
15 2 6 5.2950 0.5608
15 2 7 10.7582 0.1310
15 2 8 3.4156 0.2861
15 2 9 1.8840 0.1141
15 2 10 -7.3994 -0.0951
15 2 11 -0.3410 0.0519
15 2 12 3.1387 0.0424
15 2 13 1.1712 -0.0324
15 2 14 2.7381 0.1488
15 2 15 -1.4191 -0.2984
15 3 0 -12.3653 0.5004
15 3 1 8.1192 -0.0997
15 3 2 5.2198 0.0342
15 3 3 -9.2158 0.1967
15 3 4 -8.5932 0.0372
15 3 5 -2.8032 0.3605
15 3 6 4.8313 0.2220
15 3 7 -8.5024 0.0711
15 3 8 0.1814 0.2194
15 3 9 6.2178 -0.3005
15 3 10 7.1171 -0.1916
15 3 11 1.8098 0.0151
15 3 12 -3.5963 -0.1894
15 3 13 -1.4889 0.5335
15 3 14 6.3388 0.2381
15 3 15 -5.5025 0.0026
15 4 0 2.4264 0.2130
15 4 1 5.2826 -0.3159
15 4 2 -1.9259 0.2507
15 4 3 -0.9636 -0.1872
15 4 4 6.6210 -0.0695
15 4 5 -3.5030 -0.0128
15 4 6 1.8205 -0.3256
15 4 7 -5.4327 -0.0190
15 4 8 2.7699 -0.0916
15 4 9 -5.5747 -0.1348
15 4 10 2.2730 0.0852
15 4 11 -4.8002 -0.2481
15 4 12 3.0722 0.2275
15 4 13 1.1375 -0.0457
15 4 14 -11.2178 -0.0777
15 4 15 1.0407 0.0635
15 5 0 -6.8336 -0.0506
15 5 1 -6.2903 0.0345
15 5 2 -6.0680 -0.0427
15 5 3 -4.4792 -0.0409
15 5 4 -4.7051 0.0694
15 5 5 3.7237 -0.0816
15 5 6 8.0133 0.0663
15 5 7 -1.5925 -0.0491
15 5 8 -0.7997 0.0539
15 5 9 2.4916 0.0333
15 5 10 3.4981 -0.1109
15 5 11 -1.7164 0.0091
15 5 12 3.7994 0.1990
15 5 13 -4.2438 -0.0653
15 5 14 3.3163 0.5797
15 5 15 7.1697 -0.4291
15 6 0 6.7080 -0.0231
15 6 1 -0.0461 -0.0908
15 6 2 -2.3613 -0.1520
15 6 3 -5.6870 -0.0139
15 6 4 -1.5904 -0.0300
15 6 5 2.4724 -0.0790
15 6 6 -5.0078 0.0446
15 6 7 9.6174 0.0422
15 6 8 3.9399 -0.0230
15 6 9 -3.0519 0.1185
15 6 10 -4.0968 0.0113
15 6 11 0.8148 -0.1179
15 6 12 4.0344 0.0893
15 6 13 1.3546 -0.0930
15 6 14 3.5943 -0.0979
15 6 15 -0.0958 -0.5769
15 7 0 -1.8083 0.1761
15 7 1 -8.6831 0.0692
15 7 2 1.7065 0.0146
15 7 3 5.6396 0.0217
15 7 4 -1.4485 0.1113
15 7 5 3.1442 -0.1234
15 7 6 -0.9637 0.3007
15 7 7 -4.6646 -0.2440
15 7 8 -7.1356 0.1859
15 7 9 1.2100 -0.0551
15 7 10 -9.0680 -0.0624
15 7 11 2.8463 0.0504
15 7 12 1.0013 -0.1288
15 7 13 -5.8767 0.1121
15 7 14 2.4013 0.0241
15 8 0 6.2378 0.0484
15 8 1 0.2994 -0.1208
15 8 2 1.6274 -0.0311
15 8 3 3.9947 -0.1202
15 8 4 -4.6009 -0.1996
15 8 5 11.0664 0.0306
15 8 6 -1.2687 -0.3023
15 8 7 7.9745 0.0157
15 8 8 6.1974 -0.0205
15 8 9 2.4026 -0.2329
15 8 10 -7.2685 0.2621
15 8 11 9.3177 -0.2155
15 8 12 -4.5012 -0.0357
15 8 13 -7.9681 -0.2008
15 8 14 5.9263 0.2748
15 9 0 -11.6781 -0.1456
15 9 1 1.5710 0.1094
15 9 2 3.2378 -0.0734
15 9 3 1.1457 -0.1070
15 9 4 -6.5645 0.1579
15 9 5 -2.5078 -0.0705
15 9 6 -20.0713 0.2332
15 9 7 -6.2952 0.1755
15 9 8 -0.9643 -0.0219
15 9 9 12.2480 0.3280
15 9 10 1.6476 0.0367
15 9 11 5.4307 -0.0082
15 9 12 -2.4552 0.2516
15 9 13 -1.5298 0.0782
15 10 0 -7.7944 0.1138
15 10 1 -9.8054 0.0390
15 10 2 -1.4796 0.0078
15 10 3 1.2094 -0.1027
15 10 4 -1.9357 0.0164
15 10 5 -1.9930 -0.0705
15 10 6 3.7260 0.4485
15 10 7 2.1159 -0.0206
15 10 8 -4.9792 0.3856
15 10 9 -2.1194 -0.1520
15 10 10 -6.6765 -0.0820
15 10 12 4.2159 -0.0433
15 11 0 -4.1733 0.0923
15 11 1 -0.0094 0.0073
15 11 2 5.8156 -0.0402
15 11 3 12.6048 -0.1863
15 11 4 7.3221 -0.2653
15 11 5 -11.2012 -0.1093
15 11 6 3.0682 -0.1400
15 11 7 9.8987 -0.1256
15 11 8 2.3322 -0.0266
15 11 9 -2.4783 -0.4200
15 11 10 -5.3378 0.2572
15 12 0 7.3385 -0.0067
15 12 1 1.4048 0.0011
15 12 2 0.0035 0.2499
15 12 3 2.2462 -0.3485
15 12 4 0.7316 0.3012
15 12 5 5.3475 -0.1801
15 12 6 4.7921 0.2549
15 12 7 2.4577 0.7015
15 12 8 -4.6966 -0.1262
15 12 9 3.9692 0.2316
15 13 0 3.9953 -0.0041
15 13 1 -2.2547 0.1762
15 13 2 -7.6588 -0.1322
15 13 3 -0.3010 -0.0039
15 13 4 -4.9537 0.0363
15 13 5 1.4617 -0.1531
15 13 6 6.0446 0.5789
15 13 7 -6.2018 -0.8504
15 14 0 -4.9025 -0.4635
15 14 1 5.5184 -0.2741
15 14 2 -7.4676 -0.1131
15 14 3 -6.3315 -0.0434
15 14 4 -13.4933 -0.2921
15 15 0 8.1417 0.1894
15 15 1 13.5239 0.0555
16 0 0 0.1924 2.1796
16 0 2 1.1286 -0.2859
16 0 4 -4.1003 -1.0780
16 0 6 13.1875 -0.3356
16 0 8 -1.9207 0.4846
16 0 10 18.2821 0.2290
16 0 12 4.9278 -0.9334
16 1 0 1.2216 0.3564
16 1 1 -5.6616 -0.2567
16 1 2 -3.1878 0.5551
16 1 3 -0.5902 0.0825
16 1 4 6.5786 -0.1693
16 1 5 0.5201 0.1310
16 1 6 -0.9813 -0.9710
16 1 7 -4.7075 -0.1297
16 1 8 -3.6966 -0.5348
16 1 9 -2.8794 0.0243
16 1 10 4.1336 0.6442
16 1 11 -3.8506 0.0901
16 1 12 5.5776 0.8610
16 1 13 1.9949 -0.0675
16 2 0 -4.2642 -0.8051
16 2 1 -4.6530 -0.2495
16 2 2 7.4590 -0.1437
16 2 3 1.8261 -0.2743
16 2 4 0.1994 0.2964
16 2 5 6.3716 -0.0274
16 2 6 0.7963 -0.0327
16 2 7 -2.5462 0.0953
16 2 8 -12.3527 0.0955
16 2 9 1.3736 -0.0742
16 2 10 -5.7170 0.5264
16 2 11 -1.5691 0.0421
16 2 12 -4.3185 0.1240
16 2 13 -0.3192 -0.3998
16 3 0 9.2143 -0.1158
16 3 1 -2.4170 0.2200
16 3 2 -3.6251 -0.1510
16 3 3 0.8748 0.3990
16 3 4 -5.1830 0.3923
16 3 5 6.6518 0.0596
16 3 6 -1.3756 0.4638
16 3 7 2.0055 -0.2923
16 3 8 -11.5246 -0.0271
16 3 9 8.3359 0.3015
16 3 10 5.0632 -0.0341
16 3 11 -4.2569 0.3535
16 3 12 4.0769 0.1838
16 3 13 4.7790 0.2034
16 4 0 1.7537 0.1463
16 4 1 -7.0105 -0.3380
16 4 2 6.2203 -0.0544
16 4 3 3.5941 0.0582
16 4 4 2.7592 -0.2348
16 4 5 -0.9404 0.2720
16 4 6 1.7211 -0.3132
16 4 7 1.9394 -0.0328
16 4 8 1.3913 0.2613
16 4 9 -0.1066 -0.4098
16 4 10 -3.1246 0.1725
16 4 11 -0.5852 -0.0346
16 4 12 2.9159 -0.2110
16 4 13 -4.2860 -0.2228
16 5 0 -7.4763 -0.0337
16 5 1 5.2455 -0.1123
16 5 2 4.1228 0.0216
16 5 3 -14.0844 -0.1608
16 5 4 -5.9011 0.2065
16 5 5 -2.9985 -0.1102
16 5 6 4.4075 0.1405
16 5 7 1.4169 0.0571
16 5 8 3.1844 -0.3874
16 5 9 -5.6036 0.2276
16 5 10 0.9574 0.1589
16 5 11 -0.7488 0.1231
16 5 12 -2.2497 0.4640
16 5 13 -8.8453 -0.1902
16 6 0 -0.9010 -0.3466
16 6 1 1.3542 -0.1108
16 6 2 -3.9684 -0.3932
16 6 3 7.3418 0.0761
16 6 4 1.0213 0.1413
16 6 5 0.3438 0.1640
16 6 6 2.5658 0.0996
16 6 7 -1.9784 -0.0051
16 6 8 8.5039 0.1837
16 6 9 2.7070 0.0043
16 6 10 -2.4862 -0.1589
16 6 11 -4.2516 0.0375
16 6 12 3.8610 -0.3487
16 6 13 -2.6259 -0.6050
16 7 0 -3.8106 -0.0643
16 7 1 -3.6818 0.0638
16 7 2 -1.5004 -0.0837
16 7 3 -1.4706 0.0737
16 7 4 -1.9838 0.1896
16 7 5 2.9860 -0.0577
16 7 6 1.3297 0.0662
16 7 7 -2.1518 0.0066
16 7 8 7.2977 -0.2071
16 7 9 -1.6232 -0.1730
16 7 10 -4.7051 -0.1540
16 7 11 -9.8026 0.0253
16 7 12 9.2195 0.3385
16 8 0 4.4529 -0.0966
16 8 1 -0.6570 -0.1725
16 8 2 -0.8748 -0.0761
16 8 3 5.3050 -0.1787
16 8 4 2.4277 0.0509
16 8 5 -3.2494 -0.0871
16 8 6 -4.9048 0.0762
16 8 7 -9.6830 -0.3276
16 8 8 7.3054 -0.0088
16 8 9 -8.1608 -0.0558
16 8 11 4.6451 0.1541
16 9 0 -5.9183 -0.2029
16 9 1 3.3802 -0.0717
16 9 2 4.2429 -0.1445
16 9 3 9.3015 0.1077
16 9 4 -2.2474 -0.0620
16 9 5 0.6578 0.3390
16 9 6 5.2803 -0.1205
16 9 7 7.1755 0.0649
16 9 8 3.2767 -0.0220
16 9 9 1.8053 -0.5608
16 10 0 6.8349 -0.2149
16 10 1 2.4763 -0.1225
16 10 2 -16.2958 0.0024
16 10 3 -2.4298 -0.1578
16 10 4 -2.8511 0.4802
16 10 5 -0.6807 0.1514
16 10 6 -10.9719 0.2273
16 10 7 1.6848 0.7251
16 10 8 0.1098 -0.9843
16 11 0 -1.1918 -0.1070
16 11 1 -4.9036 0.1453
16 11 2 -2.5336 -0.2662
16 11 3 11.7631 0.3236
16 11 4 -10.8229 -0.0644
16 11 5 -6.2494 0.1400
16 11 6 6.5857 0.1971
16 11 7 4.0342 -1.1777
16 12 0 1.6712 -0.3391
16 12 1 -1.6525 -0.2684
16 12 2 -5.7638 0.2075
16 12 3 5.2842 0.2416
16 12 4 -3.1940 -0.0847
16 12 5 9.6419 1.2018
16 13 0 -4.7800 -0.1453
16 13 1 8.0746 0.1605
16 13 2 4.7150 -0.4237
17 0 0 8.0753 0.3827
17 0 2 -5.6896 -0.5637
17 0 4 -6.1007 0.0835
17 0 6 -3.4862 0.5494
17 0 8 -2.8500 0.0839
17 0 10 -8.5194 -1.0033
17 1 0 1.0957 0.4543
17 1 1 -2.5254 -0.1897
17 1 2 -8.1486 0.3189
17 1 3 -3.0540 -0.0487
17 1 4 5.6887 -0.8199
17 1 5 4.8623 -0.1553
17 1 6 0.1453 -1.0023
17 1 7 -1.2906 -0.0175
17 1 8 10.9806 -0.0276
17 1 9 1.0468 0.3789
17 1 10 2.5994 0.3394
17 1 11 -1.1361 -0.4600
17 2 0 0.4904 -0.2068
17 2 1 -5.0474 -0.0700
17 2 2 9.7010 -0.0475
17 2 3 3.3199 -0.0868
17 2 4 -2.1518 -0.1880
17 2 5 -4.3092 -0.0662
17 2 6 4.0237 0.0172
17 2 7 0.1688 0.2680
17 2 8 2.4783 0.2263
17 2 9 -7.3066 0.1036
17 2 10 4.8386 -0.2146
17 2 11 2.3530 -0.5211
17 3 0 6.3019 -0.3127
17 3 1 -4.5655 0.3244
17 3 2 -13.8472 0.2724
17 3 3 0.7959 0.1998
17 3 4 8.4540 0.2900
17 3 5 3.0286 0.0199
17 3 6 -3.2785 0.0569
17 3 7 -0.8251 0.2639
17 3 8 0.5763 -0.1773
17 3 9 -0.0297 0.3839
17 3 10 -2.2742 0.3543
17 3 11 -8.2478 -0.0115
17 4 0 -3.1229 0.1447
17 4 1 6.3356 0.4097
17 4 2 10.3137 -0.2094
17 4 3 -0.0728 0.3237
17 4 4 -5.8094 -0.0484
17 4 5 -9.0447 -0.1908
17 4 6 -12.5654 0.1588
17 4 7 4.1877 0.0029
17 4 8 1.4928 -0.0306
17 4 9 -2.2176 0.4076
17 4 10 0.3899 -0.7739
17 4 11 2.5707 -0.0109
17 5 0 0.5237 0.0707
17 5 1 -2.8261 0.0228
17 5 2 -1.9748 0.2259
17 5 3 -0.0889 -0.0253
17 5 4 8.6437 -0.3836
17 5 5 2.4952 0.0631
17 5 6 -2.9037 -0.6543
17 5 7 -0.1366 -0.0868
17 5 8 9.7719 -0.1534
17 5 9 -5.1965 -0.2980
17 5 10 -1.2053 0.2601
17 6 0 -2.6868 -0.3456
17 6 1 7.5827 0.0616
17 6 2 6.2270 0.1442
17 6 3 -6.4248 -0.1533
17 6 4 -13.2850 0.3101
17 6 5 -8.6180 -0.0464
17 6 6 6.3297 0.0411
17 6 7 9.8903 0.6513
17 7 0 5.6005 -0.0738
17 7 1 4.2887 0.2439
17 7 2 -11.3483 -0.0015
17 7 3 2.0662 0.3061
17 7 4 8.5266 -0.3323
17 7 5 6.3290 -0.1759
17 7 6 -8.0530 0.0900
17 8 0 -0.2662 0.1053
17 8 1 -0.1522 0.0471
17 8 2 2.2451 0.2606
17 8 3 -4.2629 0.1452
17 8 4 -5.1478 0.1439
17 8 5 4.5808 -0.0010
17 8 6 3.0828 -0.3331
17 8 7 1.5929 0.6064
17 9 0 1.2921 -0.0029
17 9 1 4.2371 0.4104
17 9 2 -0.4327 -0.0279
17 9 3 12.1291 0.1683
17 9 4 -0.5868 -0.1370
17 9 5 -19.5322 -0.5773
17 9 6 -4.6892 -0.5054
17 10 0 -1.4729 -0.1906
17 10 1 4.8176 -0.3768
17 10 2 -8.6961 0.1288
17 10 3 4.2417 0.1813
17 10 4 6.2301 -0.5641
17 11 0 -1.1174 0.2665
17 11 1 7.1874 0.4041
17 11 2 -8.7031 0.4911
18 0 0 -1.8072 -1.5176
18 0 4 4.0657 1.2075
18 0 6 5.0730 0.7503
18 0 8 3.5236 -1.2139
18 1 0 -4.3124 0.1458
18 1 2 -3.9422 -0.6196
18 1 3 -0.8379 -0.2800
18 1 4 -0.4306 -0.5066
18 1 5 -1.2899 -0.0718
18 1 6 -3.4255 0.0262
18 1 7 -8.9743 -1.0012
18 1 8 -4.7071 0.1247
18 2 0 8.4772 0.2496
18 2 1 0.1016 -0.4586
18 2 2 -11.9631 -0.0223
18 2 3 -0.8603 -0.2415
18 2 4 4.9890 0.0435
18 2 5 0.8509 0.2426
18 2 6 9.0393 -0.0071
18 2 7 2.9448 0.3311
18 2 8 0.2154 -0.9362
18 3 0 1.8954 -0.3975
18 3 1 2.3901 -0.1688
18 3 2 5.2701 -0.0015
18 3 3 0.7474 -0.4479
18 3 4 -0.6804 -0.0536
18 3 5 -2.9569 -0.1139
18 3 6 6.3755 0.3682
18 3 7 -1.0427 -0.3773
18 4 0 -4.6925 0.0262
18 4 1 -7.4915 0.1673
18 4 2 -2.3267 0.2074
18 4 3 -3.0073 0.0659
18 4 4 3.2682 0.6254
18 4 5 7.2893 0.1882
18 4 6 -4.4629 0.3268
18 5 0 8.5302 0.4443
18 5 1 -3.8289 0.1408
18 5 2 3.3353 0.1667
18 5 3 -1.4026 0.1529
18 5 4 2.8853 -0.4574
18 5 5 -3.4091 -0.7183
18 6 0 11.2136 -0.0088
18 6 1 -10.4571 -0.4269
18 6 2 1.4711 0.0432
18 6 3 -4.0162 -0.5884
18 6 4 -3.9113 -0.2733
18 7 0 -0.2984 0.2237
18 7 1 3.4328 0.1408
18 7 2 6.7941 0.0373
18 7 3 -2.2708 -1.0424
18 8 0 2.8854 0.4187
18 8 1 -13.0794 -0.5250
19 2 0 9.1100 -0.0176
19 3 2 -1.4004 -0.1046
19 4 1 -4.9598 -0.7566
19 5 0 1.0267 -0.3046
0 0 0 0.0 0.0
;
_olex2_submission_special_instructions 'No special instructions were received'
loop_
_space_group_symop_operation_xyz
'x, y, z'
'-x, y+1/2, -z+1/2'
'-x, -y, -z'
'x, -y-1/2, z-1/2'
loop_
_atom_site_label
_atom_site_type_symbol
_atom_site_fract_x
_atom_site_fract_y
_atom_site_fract_z
_atom_site_U_iso_or_equiv
_atom_site_adp_type
_atom_site_occupancy
_atom_site_site_symmetry_order
_atom_site_calc_flag
_atom_site_refinement_flags_posn
_atom_site_refinement_flags_adp
_atom_site_refinement_flags_occupancy
Cd01 Cd 0.000000 0.000000 0.000000 0.02611(16) Uani 1 2 d S T P
Cd02 Cd 0.16329(3) -0.05863(2) 0.10411(2) 0.03374(15) Uani 1 1 d . . .
Cd03 Cd 0.90692(3) 0.46760(3) 0.05503(2) 0.04231(17) Uani 1 1 d . . .
O16 O -0.0116(3) 0.0749(2) -0.06740(17) 0.0282(9) Uani 1 1 d . . .
O1 O 0.0483(3) 0.0912(2) 0.05059(19) 0.0380(11) Uani 1 1 d . . .
O4 O 0.0557(3) 0.4277(2) 0.0729(2) 0.0485(14) Uani 1 1 d . . .
O10 O 0.8576(3) 0.0257(3) 0.0096(2) 0.0447(13) Uani 1 1 d . . .
O14 O 0.0356(3) 0.4147(3) -0.0575(2) 0.0448(13) Uani 1 1 d . . .
O15 O -0.0912(3) 0.1728(2) -0.0905(2) 0.0477(14) Uani 1 1 d . . .
O2 O 0.1746(3) 0.0585(3) 0.1000(2) 0.0485(13) Uani 1 1 d . . .
O3 O -0.0462(3) 0.3445(2) 0.0524(2) 0.0500(14) Uani 1 1 d . . .
O8 O 0.7835(3) 0.4126(3) 0.0795(2) 0.0456(12) Uani 1 1 d . . .
O6 O 0.8559(4) 0.4419(3) 0.3130(2) 0.0553(15) Uani 1 1 d . . .
O5 O 0.7263(3) 0.4082(3) 0.3297(2) 0.0524(14) Uani 1 1 d . . .
O9 O 0.7535(4) 0.0776(3) -0.0481(2) 0.0581(15) Uani 1 1 d . . .
O7 O 0.8879(4) 0.4584(3) 0.1375(2) 0.0570(15) Uani 1 1 d . . .
O13 O 0.1797(4) 0.4275(3) -0.0353(3) 0.0577(16) Uani 1 1 d . . .
C40 C 0.1447(4) 0.1605(4) -0.0403(3) 0.0360(15) Uani 1 1 d . . .
H40 H 0.151654 0.109798 -0.038758 0.043 Uiso 1 1 calc R . .
C41 C -0.0185(4) 0.1442(3) -0.0711(3) 0.0349(15) Uani 1 1 d . . .
C21 C 0.1206(4) 0.1028(3) 0.0790(3) 0.0322(15) Uani 1 1 d . . .
C36 C 0.2065(4) 0.2778(3) -0.0293(3) 0.0439(19) Uani 1 1 d . . .
H36 H 0.256260 0.308779 -0.020075 0.053 Uiso 1 1 calc R . .
C15 C 0.7417(5) 0.4026(4) 0.2446(3) 0.049(2) Uani 1 1 d . . .
C22 C 0.0355(4) 0.3647(4) 0.0672(3) 0.0373(16) Uani 1 1 d . . .
C16 C 0.7936(5) 0.4206(4) 0.2114(3) 0.0485(19) Uani 1 1 d . . .
H16 H 0.851042 0.441109 0.221972 0.058 Uiso 1 1 calc R . .
C3 C 0.2314(4) 0.2029(3) 0.1066(3) 0.0340(15) Uani 1 1 d . . .
H3 H 0.274822 0.166541 0.116195 0.041 Uiso 1 1 calc R . .
C2 C 0.1450(4) 0.1819(3) 0.0862(3) 0.0338(15) Uani 1 1 d . . .
C35 C 0.2199(5) 0.2050(4) -0.0269(3) 0.0411(17) Uani 1 1 d . . .
C6 C 0.1031(4) 0.3068(3) 0.0801(3) 0.0345(15) Uani 1 1 d . . .
C1 C 0.0804(4) 0.2355(3) 0.0730(3) 0.0332(15) Uani 1 1 d . . .
H1 H 0.020746 0.222546 0.059052 0.040 Uiso 1 1 calc R . .
C28 C 0.7203(4) 0.0550(4) 0.0302(3) 0.0418(18) Uani 1 1 d . . .
C4 C 0.2573(4) 0.2729(3) 0.1135(3) 0.0384(16) Uani 1 1 d . . .
C5 C 0.1893(4) 0.3254(3) 0.0989(3) 0.0380(16) Uani 1 1 d . . .
H5 H 0.204491 0.374821 0.102477 0.046 Uiso 1 1 calc R . .
C20 C 0.7773(5) 0.4176(4) 0.3011(3) 0.0476(19) Uani 1 1 d . . .
C7 C 0.3516(5) 0.2948(4) 0.1320(3) 0.0441(18) Uani 1 1 d . . .
C44 C 0.7833(4) 0.0520(3) -0.0053(3) 0.0380(16) Uani 1 1 d . . .
C38 C 0.0489(4) 0.2634(3) -0.0586(3) 0.0335(15) Uani 1 1 d . . .
H38 H -0.008626 0.283346 -0.069905 0.040 Uiso 1 1 calc R . .
C14 C 0.6576(5) 0.3760(5) 0.2307(3) 0.0492(19) Uani 1 1 d . . .
H14 H 0.623383 0.364095 0.254759 0.059 Uiso 1 1 calc R . .
C37 C 0.1220(4) 0.3081(3) -0.0449(3) 0.0367(17) Uani 1 1 d . . .
C39 C 0.0600(4) 0.1901(3) -0.0557(3) 0.0295(14) Uani 1 1 d . . .
C42 C 0.1120(5) 0.3872(3) -0.0452(3) 0.0395(17) Uani 1 1 d . . .
C33 C 0.3221(5) 0.1132(4) 0.0193(3) 0.0444(18) Uani 1 1 d . . .
H33 H 0.271368 0.089647 0.026915 0.053 Uiso 1 1 calc R . .
C27 C 0.6346(4) 0.0863(4) 0.0153(3) 0.0373(16) Uani 1 1 d . . .
H27 H 0.619606 0.107144 -0.016602 0.045 Uiso 1 1 calc R . .
C32 C 0.3109(5) 0.1747(3) -0.0089(3) 0.0405(17) Uani 1 1 d . . .
C18 C 0.6761(5) 0.3798(5) 0.1469(3) 0.051(2) Uani 1 1 d . . .
H18 H 0.654457 0.369177 0.113070 0.061 Uiso 1 1 calc R . .
C13 C 0.6225(5) 0.3664(4) 0.1809(3) 0.0477(19) Uani 1 1 d . . .
C10 C 0.5282(5) 0.3389(5) 0.1642(3) 0.051(2) Uani 1 1 d . . .
C19 C 0.8141(5) 0.4280(4) 0.1238(3) 0.0444(18) Uani 1 1 d . . .
C17 C 0.7597(6) 0.4081(4) 0.1613(3) 0.052(2) Uani 1 1 d . . .
C26 C 0.5746(5) 0.0877(4) 0.0440(3) 0.0468(19) Uani 1 1 d . . .
C34 C 0.4080(5) 0.0846(4) 0.0372(3) 0.0458(18) Uani 1 1 d . . .
H34 H 0.413763 0.041481 0.055891 0.055 Uiso 1 1 calc R . .
C29 C 0.4842(4) 0.1182(4) 0.0280(3) 0.047(2) Uani 1 1 d . . .
C31 C 0.3866(4) 0.2098(4) -0.0193(4) 0.053(2) Uani 1 1 d . . .
H31 H 0.379249 0.251661 -0.039276 0.064 Uiso 1 1 calc R . .
C23 C 0.7409(6) 0.0281(5) 0.0756(4) 0.066(3) Uani 1 1 d . . .
H23 H 0.796920 0.005317 0.085928 0.079 Uiso 1 1 calc R . .
C12 C 0.4172(5) 0.2630(5) 0.1163(4) 0.062(3) Uani 1 1 d . . .
H12 H 0.403651 0.225104 0.093082 0.075 Uiso 1 1 calc R . .
C11 C 0.5048(6) 0.2823(6) 0.1322(4) 0.073(3) Uani 1 1 d . . .
H11 H 0.550155 0.256033 0.120896 0.088 Uiso 1 1 calc R . .
C30 C 0.4725(5) 0.1840(5) -0.0006(4) 0.070(3) Uani 1 1 d . . .
H30 H 0.522998 0.209557 -0.006686 0.085 Uiso 1 1 calc R . .
C25 C 0.5967(6) 0.0615(6) 0.0944(4) 0.078(3) Uani 1 1 d . . .
H25 H 0.556428 0.063561 0.116509 0.093 Uiso 1 1 calc R . .
C9 C 0.4631(7) 0.3652(7) 0.1865(5) 0.100(5) Uani 1 1 d . . .
H9 H 0.479652 0.395759 0.214294 0.120 Uiso 1 1 calc R . .
C8 C 0.3700(7) 0.3487(8) 0.1696(5) 0.111(5) Uani 1 1 d . . .
H8 H 0.324157 0.371882 0.182470 0.133 Uiso 1 1 calc R . .
O12 O 0.6526(7) -0.0043(8) 0.1855(4) 0.147(3) Uani 1 1 d . U .
C24 C 0.6840(9) 0.0324(11) 0.1075(5) 0.126(3) Uani 1 1 d . U .
O11 O 0.7768(7) -0.0335(8) 0.1687(4) 0.155(4) Uani 1 1 d . U .
C43 C 0.7060(10) -0.0053(11) 0.1561(6) 0.136(3) Uani 1 1 d . U .
loop_
_atom_site_aniso_label
_atom_site_aniso_U_11
_atom_site_aniso_U_22
_atom_site_aniso_U_33
_atom_site_aniso_U_23
_atom_site_aniso_U_13
_atom_site_aniso_U_12
Cd01 0.0156(3) 0.0184(3) 0.0404(4) 0.0002(3) -0.0045(2) 0.0032(2)
Cd02 0.0231(2) 0.0269(2) 0.0462(3) 0.0037(2) -0.0055(2) 0.00475(17)
Cd03 0.0329(3) 0.0252(3) 0.0705(4) 0.0038(2) 0.0141(3) 0.00139(19)
O16 0.029(2) 0.0124(18) 0.042(3) 0.0028(17) 0.0014(19) 0.0019(15)
O1 0.023(2) 0.030(2) 0.057(3) -0.009(2) -0.001(2) 0.0021(18)
O4 0.042(3) 0.016(2) 0.086(4) 0.005(2) 0.008(3) 0.0045(19)
O10 0.017(2) 0.040(3) 0.075(4) -0.007(3) 0.002(2) 0.0094(19)
O14 0.033(2) 0.030(2) 0.073(4) -0.002(2) 0.014(2) 0.001(2)
O15 0.028(2) 0.024(2) 0.084(4) 0.004(2) -0.008(2) 0.0051(19)
O2 0.038(3) 0.042(3) 0.060(4) 0.007(3) -0.007(3) 0.001(2)
O3 0.028(2) 0.026(2) 0.095(4) 0.007(3) 0.009(3) 0.0005(19)
O8 0.044(3) 0.046(3) 0.049(3) 0.001(3) 0.014(3) 0.001(2)
O6 0.041(3) 0.073(4) 0.048(3) -0.011(3) 0.000(3) -0.026(3)
O5 0.041(3) 0.073(4) 0.040(3) -0.011(3) 0.002(2) -0.023(3)
O9 0.043(3) 0.062(4) 0.072(4) 0.005(3) 0.017(3) 0.018(3)
O7 0.048(3) 0.053(3) 0.071(4) 0.003(3) 0.015(3) -0.010(3)
O13 0.039(3) 0.033(3) 0.101(5) 0.005(3) 0.013(3) -0.008(2)
C40 0.033(3) 0.027(3) 0.049(4) -0.003(3) 0.009(3) 0.006(3)
C41 0.036(3) 0.025(3) 0.041(4) -0.006(3) -0.001(3) -0.002(3)
C21 0.016(3) 0.032(3) 0.050(4) -0.011(3) 0.010(3) -0.010(2)
C36 0.025(3) 0.023(3) 0.082(6) 0.013(3) 0.004(3) 0.001(3)
C15 0.043(4) 0.042(4) 0.053(5) -0.008(4) -0.012(4) -0.009(3)
C22 0.025(3) 0.032(3) 0.054(5) 0.000(3) 0.008(3) 0.002(3)
C16 0.035(4) 0.051(5) 0.057(5) -0.002(4) 0.003(4) -0.011(3)
C3 0.026(3) 0.031(3) 0.041(4) -0.008(3) -0.002(3) 0.001(3)
C2 0.025(3) 0.032(3) 0.040(4) 0.000(3) -0.005(3) 0.001(3)
C35 0.034(4) 0.031(3) 0.062(5) -0.008(3) 0.019(3) -0.001(3)
C6 0.028(3) 0.026(3) 0.048(4) -0.003(3) 0.004(3) 0.000(3)
C1 0.026(3) 0.028(3) 0.042(4) 0.006(3) -0.001(3) -0.004(2)
C28 0.023(3) 0.041(4) 0.059(5) -0.008(4) 0.001(3) 0.006(3)
C4 0.031(3) 0.025(3) 0.058(5) -0.003(3) 0.007(3) -0.002(3)
C5 0.034(3) 0.019(3) 0.059(5) -0.007(3) 0.005(3) -0.009(3)
C20 0.048(4) 0.038(4) 0.051(5) 0.006(4) -0.006(4) -0.002(3)
C7 0.034(4) 0.036(4) 0.056(5) -0.013(3) -0.007(3) -0.007(3)
C44 0.027(3) 0.026(3) 0.060(5) -0.003(3) 0.007(3) 0.002(3)
C38 0.027(3) 0.021(3) 0.050(4) 0.000(3) 0.000(3) 0.003(2)
C14 0.039(4) 0.060(5) 0.046(5) -0.007(4) 0.000(3) -0.009(4)
C37 0.023(3) 0.018(3) 0.071(5) 0.001(3) 0.015(3) -0.002(2)
C39 0.023(3) 0.017(3) 0.047(4) -0.002(3) 0.004(3) 0.002(2)
C42 0.041(4) 0.020(3) 0.063(5) 0.008(3) 0.022(3) 0.010(3)
C33 0.034(4) 0.034(4) 0.065(5) -0.015(4) 0.009(3) -0.001(3)
C27 0.023(3) 0.034(3) 0.054(5) -0.006(3) 0.004(3) 0.002(3)
C32 0.039(4) 0.019(3) 0.066(5) -0.003(3) 0.016(4) 0.002(3)
C18 0.042(4) 0.064(5) 0.044(5) -0.007(4) 0.004(4) -0.019(4)
C13 0.037(4) 0.046(4) 0.056(5) -0.015(4) -0.001(4) -0.012(3)
C10 0.037(4) 0.067(5) 0.045(5) -0.013(4) -0.003(3) -0.015(4)
C19 0.043(4) 0.032(4) 0.061(5) 0.002(3) 0.016(4) -0.006(3)
C17 0.057(5) 0.046(4) 0.055(5) 0.004(4) 0.015(4) 0.000(4)
C26 0.028(3) 0.047(4) 0.064(5) -0.007(4) 0.005(3) 0.004(3)
C34 0.032(4) 0.044(4) 0.057(5) -0.001(4) -0.003(3) 0.005(3)
C29 0.019(3) 0.042(4) 0.081(6) -0.004(4) 0.010(3) 0.006(3)
C31 0.024(3) 0.047(4) 0.088(7) 0.017(4) 0.009(4) 0.011(3)
C23 0.039(4) 0.072(6) 0.084(7) 0.007(5) 0.004(5) 0.010(4)
C12 0.039(4) 0.063(5) 0.081(7) -0.041(5) 0.001(4) -0.016(4)
C11 0.043(5) 0.083(7) 0.091(8) -0.030(6) 0.006(5) -0.011(5)
C30 0.026(4) 0.060(6) 0.124(9) 0.013(6) 0.014(5) 0.009(4)
C25 0.032(4) 0.110(9) 0.091(8) 0.012(7) 0.012(5) 0.012(5)
C9 0.060(6) 0.144(11) 0.097(9) -0.076(8) 0.017(6) -0.042(7)
C8 0.050(6) 0.138(12) 0.150(12) -0.085(10) 0.032(7) -0.024(7)
O12 0.091(5) 0.240(9) 0.114(6) 0.057(7) 0.031(5) 0.010(6)
C24 0.069(5) 0.220(9) 0.090(6) 0.043(6) 0.020(5) 0.053(6)
O11 0.112(6) 0.243(10) 0.108(6) 0.056(6) 0.016(5) 0.073(6)
C43 0.083(5) 0.228(9) 0.097(6) 0.045(6) 0.021(4) 0.046(5)
loop_
_atom_type_symbol
_atom_type_description
_atom_type_scat_dispersion_real
_atom_type_scat_dispersion_imag
_atom_type_scat_source
C C 0.0033 0.0016 'International Tables Vol C Tables 4.2.6.8 and 6.1.1.4'
H H 0.0000 0.0000 'International Tables Vol C Tables 4.2.6.8 and 6.1.1.4'
Cd Cd -0.8075 1.2024 'International Tables Vol C Tables 4.2.6.8 and 6.1.1.4'
O O 0.0106 0.0060 'International Tables Vol C Tables 4.2.6.8 and 6.1.1.4'
loop_
_geom_angle_atom_site_label_1
_geom_angle_atom_site_label_2
_geom_angle_atom_site_label_3
_geom_angle
_geom_angle_site_symmetry_1
_geom_angle_site_symmetry_3
O16 Cd01 O16 180.0 3 .
O1 Cd01 O16 90.58(17) . .
O1 Cd01 O16 89.42(17) 3 .
O1 Cd01 O16 89.42(17) . 3
O1 Cd01 O16 90.58(17) 3 3
O1 Cd01 O1 180.0 . 3
O1 Cd01 O10 88.53(17) . 1_455
O1 Cd01 O10 88.53(17) 3 3_655
O1 Cd01 O10 91.47(17) 3 1_455
O1 Cd01 O10 91.47(17) . 3_655
O10 Cd01 O16 92.44(17) 1_455 .
O10 Cd01 O16 87.56(17) 1_455 3
O10 Cd01 O16 92.44(17) 3_655 3
O10 Cd01 O16 87.56(17) 3_655 .
O10 Cd01 O10 180.0(3) 3_655 1_455
O16 Cd02 O15 55.56(14) 3 3
O16 Cd02 O6 96.84(17) 3 2_645
O16 Cd02 C41 28.28(16) 3 3
O16 Cd02 C20 121.6(2) 3 2_645
O15 Cd02 C41 27.28(17) 3 3
O15 Cd02 C20 93.8(2) 3 2_645
O2 Cd02 O16 100.71(16) . 3
O2 Cd02 O15 156.21(17) . 3
O2 Cd02 O6 94.1(2) . 2_645
O2 Cd02 O5 104.6(2) . 2_645
O2 Cd02 O9 93.5(2) . 3_655
O2 Cd02 C41 128.96(19) . 3
O2 Cd02 C20 101.7(2) . 2_645
O6 Cd02 O15 90.9(2) 2_645 3
O6 Cd02 C41 94.6(2) 2_645 3
O6 Cd02 C20 28.7(2) 2_645 2_645
O5 Cd02 O16 143.88(18) 2_645 3
O5 Cd02 O15 97.5(2) 2_645 3
O5 Cd02 O6 56.36(18) 2_645 2_645
O5 Cd02 C41 121.7(2) 2_645 3
O5 Cd02 C20 27.7(2) 2_645 2_645
O9 Cd02 O16 109.2(2) 3_655 3
O9 Cd02 O15 93.3(2) 3_655 3
O9 Cd02 O6 150.9(2) 3_655 2_645
O9 Cd02 O5 94.6(2) 3_655 2_645
O9 Cd02 C41 102.2(2) 3_655 3
O9 Cd02 C20 122.2(2) 3_655 2_645
C20 Cd02 C41 109.5(2) 2_645 3
O4 Cd03 O14 87.01(16) 1_655 3_665
O4 Cd03 O3 54.81(16) 1_655 1_655
O4 Cd03 O8 126.74(18) 1_655 .
O4 Cd03 O7 94.1(2) 1_655 .
O4 Cd03 O13 141.73(16) 1_655 3_665
O4 Cd03 C22 26.48(18) 1_655 1_655
O4 Cd03 C42 114.44(18) 1_655 3_665
O4 Cd03 C19 112.8(2) 1_655 .
O14 Cd03 O3 140.76(16) 3_665 1_655
O14 Cd03 O8 135.19(17) 3_665 .
O14 Cd03 O7 98.9(2) 3_665 .
O14 Cd03 O13 55.06(17) 3_665 3_665
O14 Cd03 C22 113.27(18) 3_665 1_655
O14 Cd03 C42 27.49(18) 3_665 3_665
O14 Cd03 C19 118.7(2) 3_665 .
O3 Cd03 C22 28.37(18) 1_655 1_655
O3 Cd03 C42 165.35(19) 1_655 3_665
O3 Cd03 C19 87.8(2) 1_655 .
O8 Cd03 O3 81.71(17) . 1_655
O8 Cd03 O13 88.89(18) . 3_665
O8 Cd03 C22 105.00(19) . 1_655
O8 Cd03 C42 112.52(19) . 3_665
O8 Cd03 C19 27.8(2) . .
O7 Cd03 O3 93.1(2) . 1_655
O7 Cd03 O8 55.63(19) . .
O7 Cd03 O13 96.6(2) . 3_665
O7 Cd03 C22 92.9(2) . 1_655
O7 Cd03 C42 97.9(2) . 3_665
O7 Cd03 C19 27.8(2) . .
O13 Cd03 O3 159.5(2) 3_665 1_655
O13 Cd03 C22 166.0(2) 3_665 1_655
O13 Cd03 C42 27.59(19) 3_665 3_665
O13 Cd03 C19 92.3(2) 3_665 .
C22 Cd03 C42 140.5(2) 1_655 3_665
C19 Cd03 C22 100.8(2) . 1_655
C19 Cd03 C42 106.4(2) . 3_665
Cd01 O16 Cd02 100.59(15) . 3
C41 O16 Cd01 131.1(4) . .
C41 O16 Cd02 92.0(4) . 3
C21 O1 Cd01 132.2(4) . .
C22 O4 Cd03 93.8(4) . 1_455
C44 O10 Cd01 151.3(5) . 1_655
C42 O14 Cd03 92.8(4) . 3_665
C41 O15 Cd02 92.0(4) . 3
C21 O2 Cd02 129.7(4) . .
C22 O3 Cd03 89.4(4) . 1_455
C19 O8 Cd03 90.8(4) . .
C20 O6 Cd02 87.7(5) . 2_655
C20 O5 Cd02 90.8(4) . 2_655
C44 O9 Cd02 115.9(4) . 3_655
C19 O7 Cd03 90.8(5) . .
C42 O13 Cd03 92.4(4) . 3_665
C35 C40 H40 119.6 . .
C39 C40 H40 119.6 . .
C39 C40 C35 120.7(6) . .
O16 C41 Cd02 59.7(3) . 3
O16 C41 C39 120.4(6) . .
O15 C41 Cd02 60.7(3) . 3
O15 C41 O16 120.4(6) . .
O15 C41 C39 119.0(6) . .
C39 C41 Cd02 177.4(5) . 3
O1 C21 C2 114.6(6) . .
O2 C21 O1 128.0(6) . .
O2 C21 C2 117.4(5) . .
C35 C36 H36 118.8 . .
C35 C36 C37 122.3(6) . .
C37 C36 H36 118.8 . .
C16 C15 C20 119.2(7) . .
C14 C15 C16 122.6(8) . .
C14 C15 C20 118.0(8) . .
O4 C22 Cd03 59.7(4) . 1_455
O4 C22 O3 121.8(6) . .
O4 C22 C6 121.3(6) . .
O3 C22 Cd03 62.2(3) . 1_455
O3 C22 C6 116.8(6) . .
C6 C22 Cd03 172.9(5) . 1_455
C15 C16 H16 120.9 . .
C15 C16 C17 118.1(7) . .
C17 C16 H16 120.9 . .
C2 C3 H3 118.2 . .
C4 C3 H3 118.2 . .
C4 C3 C2 123.7(6) . .
C3 C2 C21 121.1(6) . .
C3 C2 C1 118.2(6) . .
C1 C2 C21 120.7(5) . .
C40 C35 C32 121.7(6) . .
C36 C35 C40 117.5(6) . .
C36 C35 C32 120.7(6) . .
C1 C6 C22 121.3(6) . .
C5 C6 C22 118.9(6) . .
C5 C6 C1 119.8(6) . .
C2 C1 H1 119.9 . .
C6 C1 C2 120.2(6) . .
C6 C1 H1 119.9 . .
C27 C28 C44 120.0(7) . .
C23 C28 C44 122.5(7) . .
C23 C28 C27 117.5(8) . .
C3 C4 C5 116.0(6) . .
C3 C4 C7 123.1(6) . .
C5 C4 C7 120.9(6) . .
C6 C5 C4 122.1(6) . .
C6 C5 H5 118.9 . .
C4 C5 H5 118.9 . .
O6 C20 Cd02 63.6(4) . 2_655
O6 C20 C15 116.6(8) . .
O5 C20 Cd02 61.5(4) . 2_655
O5 C20 O6 125.0(8) . .
O5 C20 C15 118.2(7) . .
C15 C20 Cd02 179.5(6) . 2_655
C12 C7 C4 121.1(7) . .
C12 C7 C8 120.1(7) . .
C8 C7 C4 118.7(7) . .
O10 C44 O9 127.0(7) . .
O10 C44 C28 117.4(7) . .
O9 C44 C28 115.5(6) . .
C37 C38 H38 120.2 . .
C39 C38 H38 120.2 . .
C39 C38 C37 119.7(6) . .
C15 C14 H14 120.4 . .
C15 C14 C13 119.3(8) . .
C13 C14 H14 120.4 . .
C36 C37 C42 119.4(6) . .
C38 C37 C36 119.3(6) . .
C38 C37 C42 121.2(6) . .
C40 C39 C41 121.2(5) . .
C38 C39 C40 120.4(6) . .
C38 C39 C41 118.4(5) . .
O14 C42 Cd03 59.7(3) . 3_665
O14 C42 C37 119.6(6) . .
O13 C42 Cd03 60.0(3) . 3_665
O13 C42 O14 119.6(6) . .
O13 C42 C37 120.7(6) . .
C37 C42 Cd03 174.5(6) . 3_665
C32 C33 H33 119.5 . .
C32 C33 C34 121.0(7) . .
C34 C33 H33 119.5 . .
C28 C27 H27 118.5 . .
C26 C27 C28 122.9(8) . .
C26 C27 H27 118.5 . .
C33 C32 C35 120.5(6) . .
C33 C32 C31 119.0(7) . .
C31 C32 C35 120.5(6) . .
C13 C18 H18 119.5 . .
C17 C18 H18 119.5 . .
C17 C18 C13 121.0(8) . .
C14 C13 C10 120.5(7) . .
C18 C13 C14 119.0(7) . .
C18 C13 C10 120.5(7) . .
C11 C10 C13 124.6(8) . .
C9 C10 C13 118.4(7) . .
C9 C10 C11 116.5(8) . .
O8 C19 Cd03 61.4(4) . .
O8 C19 O7 122.7(7) . .
O8 C19 C17 117.9(7) . .
O7 C19 Cd03 61.4(4) . .
O7 C19 C17 119.5(8) . .
C17 C19 Cd03 177.7(6) . .
C16 C17 C19 119.7(7) . .
C18 C17 C16 119.8(8) . .
C18 C17 C19 120.5(8) . .
C27 C26 C29 123.0(8) . .
C27 C26 C25 120.6(7) . .
C25 C26 C29 116.4(7) . .
C33 C34 H34 119.3 . .
C29 C34 C33 121.5(7) . .
C29 C34 H34 119.3 . .
C34 C29 C26 122.7(7) . .
C34 C29 C30 117.5(6) . .
C30 C29 C26 119.7(7) . .
C32 C31 H31 119.4 . .
C32 C31 C30 121.1(8) . .
C30 C31 H31 119.4 . .
C28 C23 H23 119.0 . .
C24 C23 C28 121.9(9) . .
C24 C23 H23 119.0 . .
C7 C12 H12 118.7 . .
C7 C12 C11 122.7(8) . .
C11 C12 H12 118.7 . .
C10 C11 H11 119.3 . .
C12 C11 C10 121.3(9) . .
C12 C11 H11 119.3 . .
C29 C30 H30 120.1 . .
C31 C30 C29 119.8(7) . .
C31 C30 H30 120.1 . .
C26 C25 H25 123.0 . .
C26 C25 C24 113.9(10) . .
C24 C25 H25 123.0 . .
C10 C9 H9 118.7 . .
C10 C9 C8 122.6(9) . .
C8 C9 H9 118.7 . .
C7 C8 C9 115.2(9) . .
C7 C8 H8 122.4 . .
C9 C8 H8 122.4 . .
C23 C24 C25 123.0(12) . .
C23 C24 C43 119.8(12) . .
C25 C24 C43 116.5(12) . .
O12 C43 C24 120.8(13) . .
O11 C43 O12 118.8(15) . .
O11 C43 C24 120.3(14) . .
loop_
_geom_bond_atom_site_label_1
_geom_bond_atom_site_label_2
_geom_bond_distance
_geom_bond_site_symmetry_2
Cd01 O16 2.306(4) .
Cd01 O16 2.306(4) 3
Cd01 O1 2.232(4) .
Cd01 O1 2.232(4) 3
Cd01 O10 2.297(4) 3_655
Cd01 O10 2.297(4) 1_455
Cd02 O16 2.365(4) 3
Cd02 O15 2.390(5) 3
Cd02 O2 2.193(5) .
Cd02 O6 2.366(6) 2_645
Cd02 O5 2.320(5) 2_645
Cd02 O9 2.218(6) 3_655
Cd02 C41 2.738(6) 3
Cd02 C20 2.638(8) 2_645
Cd03 O4 2.353(5) 1_655
Cd03 O14 2.358(5) 3_665
Cd03 O3 2.407(5) 1_655
Cd03 O8 2.360(5) .
Cd03 O7 2.360(6) .
Cd03 O13 2.363(5) 3_665
Cd03 C22 2.720(6) 1_655
Cd03 C42 2.727(6) 3_665
Cd03 C19 2.689(8) .
O16 C41 1.298(7) .
O1 C21 1.244(7) .
O4 C22 1.215(8) .
O10 C44 1.232(8) .
O14 C42 1.260(8) .
O15 C41 1.256(8) .
O2 C21 1.230(8) .
O3 C22 1.292(8) .
O8 C19 1.256(10) .
O6 C20 1.268(9) .
O5 C20 1.226(10) .
O9 C44 1.273(10) .
O7 C19 1.255(9) .
O13 C42 1.264(9) .
C40 H40 0.9500 .
C40 C35 1.407(9) .
C40 C39 1.396(8) .
C41 C39 1.467(8) .
C21 C2 1.523(9) .
C36 H36 0.9500 .
C36 C35 1.371(9) .
C36 C37 1.398(9) .
C15 C16 1.368(12) .
C15 C20 1.575(11) .
C15 C14 1.363(10) .
C22 C6 1.488(9) .
C16 H16 0.9500 .
C16 C17 1.400(12) .
C3 H3 0.9500 .
C3 C2 1.387(8) .
C3 C4 1.364(9) .
C2 C1 1.402(9) .
C35 C32 1.495(10) .
C6 C1 1.377(9) .
C6 C5 1.364(9) .
C1 H1 0.9500 .
C28 C44 1.505(11) .
C28 C27 1.421(9) .
C28 C23 1.331(13) .
C4 C5 1.428(9) .
C4 C7 1.491(9) .
C5 H5 0.9500 .
C7 C12 1.309(11) .
C7 C8 1.433(13) .
C38 H38 0.9500 .
C38 C37 1.387(9) .
C38 C39 1.377(8) .
C14 H14 0.9500 .
C14 C13 1.386(11) .
C37 C42 1.480(8) .
C33 H33 0.9500 .
C33 C32 1.377(10) .
C33 C34 1.416(10) .
C27 H27 0.9500 .
C27 C26 1.325(10) .
C32 C31 1.407(10) .
C18 H18 0.9500 .
C18 C13 1.386(11) .
C18 C17 1.369(11) .
C13 C10 1.517(10) .
C10 C11 1.376(12) .
C10 C9 1.361(13) .
C19 C17 1.495(11) .
C26 C29 1.481(9) .
C26 C25 1.452(14) .
C34 H34 0.9500 .
C34 C29 1.389(10) .
C29 C30 1.450(12) .
C31 H31 0.9500 .
C31 C30 1.400(10) .
C23 H23 0.9500 .
C23 C24 1.358(16) .
C12 H12 0.9500 .
C12 C11 1.375(11) .
C11 H11 0.9500 .
C30 H30 0.9500 .
C25 H25 0.9500 .
C25 C24 1.422(15) .
C9 H9 0.9500 .
C9 C8 1.444(13) .
C8 H8 0.9500 .
O12 C43 1.262(16) .
C24 C43 1.49(2) .
O11 C43 1.192(16) .
loop_
_smtbx_masks_void_nr
_smtbx_masks_void_average_x
_smtbx_masks_void_average_y
_smtbx_masks_void_average_z
_smtbx_masks_void_volume
_smtbx_masks_void_count_electrons
1 -0.460 -0.669 -0.273 4602.1 1486.3
