#------------------------------------------------------------------------------
#$Date: 2018-05-17 15:12:24 +0300 (Thu, 17 May 2018) $
#$Revision: 207823 $
#$URL: file:///home/coder/svn-repositories/cod/cif/7/23/06/7230656.cif $
#------------------------------------------------------------------------------
#
# This file is available in the Crystallography Open Database (COD),
# http://www.crystallography.net/
#
# All data on this site have been placed in the public domain by the
# contributors.
#
data_7230656
loop_
_publ_author_name
'Huang, Ning-Yu'
'Mo, Zong-Wen'
'Li, Lu-Jian'
'Xu, Wei-Jian'
'Zhou, Hao-Long'
'Zhou, Dong-Dong'
'Liao, Pei-Qin'
'Zhang, Jie-Peng'
'Chen, Xiao-Ming'
_publ_section_title
;
 Direct synthesis of an aliphatic amine functionalized metal-organic
 framework for efficient CO2 removal and CH4 purification
;
_journal_name_full               CrystEngComm
_journal_paper_doi               10.1039/C8CE00574E
_journal_year                    2018
_chemical_formula_moiety         'C16 H13 N O4 Zn'
_chemical_formula_sum            'C16 H13 N O4 Zn'
_chemical_formula_weight         348.64
_space_group_crystal_system      trigonal
_space_group_IT_number           148
_space_group_name_Hall           '-R 3'
_space_group_name_H-M_alt        'R -3'
_symmetry_space_group_name_Hall  '-R 3'
_symmetry_space_group_name_H-M   'R -3 :H'
_atom_sites_solution_hydrogens   geom
_audit_creation_date             2017-11-25
_audit_creation_method
;
Olex2 1.2
(compiled 2015.09.30 svn.r3233 for OlexSys, GUI svn.r5103)
;
_audit_update_record
;
2017-12-28 deposited with the CCDC.
2018-05-16 downloaded from the CCDC.
;
_cell_angle_alpha                90
_cell_angle_beta                 90
_cell_angle_gamma                120
_cell_formula_units_Z            18
_cell_length_a                   41.740(4)
_cell_length_b                   41.740(4)
_cell_length_c                   9.9584(14)
_cell_measurement_reflns_used    3497
_cell_measurement_temperature    203
_cell_measurement_theta_max      68.2
_cell_measurement_theta_min      32.4
_cell_volume                     15025(3)
_computing_molecular_graphics    'Olex2 (Dolomanov et al., 2009)'
_computing_publication_material  'Olex2 (Dolomanov et al., 2009)'
_computing_structure_refinement  'ShelXL (Sheldrick, 2015)'
_computing_structure_solution    'SIR2004 (Burla et al., 2007)'
_diffrn_ambient_temperature      203(2)
_diffrn_measured_fraction_theta_full 0.993
_diffrn_measured_fraction_theta_max 0.993
_diffrn_measurement_device_type  'Bruker P4'
_diffrn_measurement_method       '\w scans'
_diffrn_radiation_monochromator  graphite
_diffrn_radiation_type           CuK\a
_diffrn_radiation_wavelength     1.54178
_diffrn_reflns_av_R_equivalents  0.0354
_diffrn_reflns_av_unetI/netI     0.0261
_diffrn_reflns_Laue_measured_fraction_full 0.993
_diffrn_reflns_Laue_measured_fraction_max 0.993
_diffrn_reflns_limit_h_max       39
_diffrn_reflns_limit_h_min       -48
_diffrn_reflns_limit_k_max       46
_diffrn_reflns_limit_k_min       -34
_diffrn_reflns_limit_l_max       11
_diffrn_reflns_limit_l_min       -11
_diffrn_reflns_number            27125
_diffrn_reflns_point_group_measured_fraction_full 0.993
_diffrn_reflns_point_group_measured_fraction_max 0.993
_diffrn_reflns_theta_full        62.991
_diffrn_reflns_theta_max         62.991
_diffrn_reflns_theta_min         6.948
_diffrn_standards_decay_%        0
_diffrn_standards_interval_count 0
_diffrn_standards_interval_time  0
_diffrn_standards_number         0
_exptl_absorpt_coefficient_mu    1.093
_exptl_absorpt_correction_type   none
_exptl_crystal_colour            Colorless
_exptl_crystal_density_diffrn    0.694
_exptl_crystal_density_method    "'not measured'"
_exptl_crystal_description       Prism
_exptl_crystal_F_000             3204
_exptl_crystal_size_max          0.2
_exptl_crystal_size_mid          0.2
_exptl_crystal_size_min          0.2
_refine_diff_density_max         0.343
_refine_diff_density_min         -0.298
_refine_diff_density_rms         0.055
_refine_ls_extinction_method     none
_refine_ls_goodness_of_fit_ref   1.098
_refine_ls_hydrogen_treatment    constr
_refine_ls_matrix_type           full
_refine_ls_number_parameters     199
_refine_ls_number_reflns         5370
_refine_ls_number_restraints     0
_refine_ls_restrained_S_all      1.098
_refine_ls_R_factor_all          0.0419
_refine_ls_R_factor_gt           0.0411
_refine_ls_shift/su_max          0.001
_refine_ls_shift/su_mean         0.000
_refine_ls_structure_factor_coef Fsqd
_refine_ls_weighting_details
'w=1/[\s^2^(Fo^2^)+(0.0708P)^2^+20.0439P] where P=(Fo^2^+2Fc^2^)/3'
_refine_ls_weighting_scheme      calc
_refine_ls_wR_factor_gt          0.1282
_refine_ls_wR_factor_ref         0.1292
_reflns_Friedel_coverage         0.000
_reflns_number_gt                5169
_reflns_number_total             5370
_reflns_threshold_expression     'I > 2\s(I)'
_cod_data_source_file            c8ce00574e2.cif
_cod_data_source_block           alpha_Zn
_cod_original_cell_volume        15025(4)
_cod_database_code               7230656
_shelx_space_group_comment
;
The symmetry employed for this shelxl refinement is uniquely defined
by the following loop, which should always be used as a source of
symmetry information in preference to the above space-group names.
They are only intended as comments.
;
_olex2_refinement_description
;
1. Fixed Uiso
 At 1.2 times of:
  All C(H) groups, All C(H,H) groups, All N(H) groups
2.a Ternary CH refined with riding coordinates:
 N1(H1)
2.b Secondary CH2 refined with riding coordinates:
 C13(H13a,H13b), C12(H12a,H12b)
2.c Aromatic/amide H refined with riding coordinates:
 C3(H3), C4(H4), C11(H11), C15(H15), C16(H16), C10(H10), C6(H6), C7(H7)
;
_shelx_res_file
;
    1_sq.res created by SHELXL-2014/7

TITL 1 in R-3
CELL 1.54178 41.7401 41.7401 9.9584 90 90 120
ZERR 18 0.0039 0.0039 0.0014 0 0 0
LATT 3
SYMM -Y,+X-Y,+Z
SYMM +Y-X,-X,+Z
SFAC C H N O Zn
UNIT 288 234 18 72 18

L.S. 50 0 68
PLAN  2
TEMP 293.15
BOND
ABIN
fmap 2
acta
OMIT -3 126
OMIT -7 4 1
OMIT 0 6 0
OMIT -1 10 1
OMIT -4 4 1
OMIT -4 8 0
OMIT -5 12 1
OMIT -3 5 1
OMIT 1 9 1
OMIT -8 9 1
OMIT 2 4 4
OMIT -13 10 1
REM <olex2.extras>
REM <HklSrc "%.\\1_sq.hkl">
REM </olex2.extras>

WGHT    0.070800   20.043901
FVAR       0.11673
ZN1   5    0.026581    0.490641    0.068653    11.00000    0.03689    0.02555 =
         0.03752   -0.00465   -0.00817    0.02038
N1    3    0.060940    0.476130    0.168553    11.00000    0.04414    0.03994 =
         0.03577   -0.00093   -0.00417    0.03029
AFIX  13
H1    2    0.045374    0.456115    0.230709    11.00000   -1.20000
AFIX   0
O1    4   -0.010612    0.484922    0.212552    11.00000    0.04983    0.06945 =
         0.04072    0.00270   -0.00027    0.03937
O2    4    0.052413    0.546304    0.092109    11.00000    0.06523    0.02537 =
         0.05477   -0.00754   -0.01679    0.02190
O3    4   -0.012546    0.439560   -0.000485    11.00000    0.05606    0.02920 =
         0.09777   -0.02222   -0.02542    0.02171
O4    4    0.049060    0.499134   -0.119558    11.00000    0.07936    0.07120 =
         0.03318    0.00348   -0.00153    0.05693
C1    1   -0.036203    0.492136    0.218359    11.00000    0.04529    0.02989 =
         0.04080   -0.00473   -0.00781    0.02012
C8    1    0.041617    0.568522    0.061976    11.00000    0.04852    0.02818 =
         0.04463   -0.00688   -0.00206    0.01607
C5    1   -0.078655    0.491758    0.610844    11.00000    0.04009    0.05071 =
         0.03825   -0.00874   -0.00867    0.02662
C3    1   -0.045451    0.473918    0.459739    11.00000    0.05045    0.04687 =
         0.04406   -0.00193   -0.00456    0.03440
AFIX  43
H3    2   -0.031477    0.462490    0.445933    11.00000   -1.20000
AFIX   0
C2    1   -0.052417    0.490462    0.353663    11.00000    0.04205    0.04112 =
         0.03763   -0.00557   -0.00826    0.02457
C14   1    0.093078    0.439560    0.127268    11.00000    0.05679    0.05086 =
         0.04397   -0.00015   -0.00001    0.04006
C9    1    0.065080    0.607802    0.107806    11.00000    0.04996    0.02638 =
         0.05204   -0.00396   -0.00271    0.01659
C4    1   -0.058790    0.473876    0.586944    11.00000    0.05572    0.05147 =
         0.03715    0.00118   -0.00389    0.03601
AFIX  43
H4    2   -0.054401    0.461781    0.656802    11.00000   -1.20000
AFIX   0
C13   1    0.075347    0.460221    0.066884    11.00000    0.06306    0.05602 =
         0.04048   -0.00364   -0.00508    0.04613
AFIX  23
H13A  2    0.093436    0.480111    0.011116    11.00000   -1.20000
H13B  2    0.055099    0.443468    0.009323    11.00000   -1.20000
AFIX   0
C11   1    0.097851    0.619075    0.176122    11.00000    0.05844    0.03273 =
         0.06336   -0.00781   -0.01416    0.02123
AFIX  43
H11   2    0.106308    0.602501    0.189437    11.00000   -1.20000
AFIX   0
C15   1    0.130063    0.451462    0.108591    11.00000    0.05877    0.05876 =
         0.06475    0.01867    0.01143    0.04114
AFIX  43
H15   2    0.144857    0.473426    0.062662    11.00000   -1.20000
AFIX   0
C12   1    0.091547    0.505996    0.250170    11.00000    0.04117    0.05739 =
         0.03906   -0.00674   -0.00584    0.02990
AFIX  23
H12A  2    0.100586    0.529589    0.205233    11.00000   -1.20000
H12B  2    0.111871    0.501061    0.256573    11.00000   -1.20000
AFIX   0
C16   1    0.071834    0.407291    0.197209    11.00000    0.04716    0.07079 =
         0.10261    0.02674    0.01159    0.04401
AFIX  43
H16   2    0.046848    0.398934    0.211173    11.00000   -1.20000
AFIX   0
C10   1    0.053776    0.633063    0.086246    11.00000    0.06188    0.03193 =
         0.11119   -0.01685   -0.03406    0.02231
AFIX  43
H10   2    0.032284    0.626157    0.037506    11.00000   -1.20000
AFIX   0
C6    1   -0.086186    0.507807    0.503844    11.00000    0.09414    0.10186 =
         0.04317   -0.00285   -0.00560    0.08318
AFIX  43
H6    2   -0.100043    0.519361    0.517612    11.00000   -1.20000
AFIX   0
C7    1   -0.073543    0.507065    0.376428    11.00000    0.09868    0.09553 =
         0.04164    0.00135   -0.00559    0.08079
AFIX  43
H7    2   -0.079246    0.517790    0.305331    11.00000   -1.20000
AFIX   0
HKLF 4

REM  1 in R-3
REM R1 =  0.0411 for    5169 Fo > 4sig(Fo)  and  0.0419 for all    5370 data
REM    199 parameters refined using      0 restraints

END

WGHT      0.0708     20.0550

REM Highest difference peak  0.343,  deepest hole -0.298,  1-sigma level  0.055
Q1    1   0.0325  0.4917 -0.0386  11.00000  0.05    0.34
Q2    1   0.0046  0.4634  0.0365  11.00000  0.05    0.33
;
_shelx_res_checksum              72665
_shelx_fab_checksum              75679
_shelx_fab_file
;
   -5    7    0    252.20      0.00
   -2    7    0    195.95      0.00
   -7    8    0    -47.30      0.00
   -1    8    0     61.42      0.00
   -6    9    0     -5.67      0.00
   -3    9    0    -82.09      0.00
    0    9    0    -42.13      0.00
   -8   10    0     27.06      0.00
   -5   10    0    116.79      0.00
   -2   10    0     11.81      0.00
  -10   11    0    -16.06      0.00
   -7   11    0   -121.41      0.00
   -4   11    0   -152.03      0.00
   -1   11    0    -71.30      0.00
   -9   12    0    -37.34      0.00
   -6   12    0    -48.55      0.00
   -3   12    0      8.68      0.00
    0   12    0    110.22      0.00
  -11   13    0    -16.92      0.00
   -8   13    0    -72.94      0.00
   -5   13    0     16.44      0.00
   -2   13    0    -24.08      0.00
  -13   14    0     30.37      0.00
  -10   14    0     29.12      0.00
   -7   14    0     89.22      0.00
   -4   14    0    -54.62      0.00
   -1   14    0    -69.98      0.00
  -12   15    0     33.09      0.00
   -9   15    0    -37.65      0.00
   -6   15    0     73.43      0.00
   -3   15    0     80.16      0.00
    0   15    0     24.27      0.00
  -14   16    0    -26.29      0.00
  -11   16    0    -61.93      0.00
   -8   16    0    -22.24      0.00
   -5   16    0    -21.17      0.00
   -2   16    0    -20.82      0.00
  -16   17    0    -11.07      0.00
  -13   17    0     27.62      0.00
  -10   17    0     91.05      0.00
   -7   17    0     60.73      0.00
   -4   17    0      2.66      0.00
   -1   17    0    -11.33      0.00
  -15   18    0     -1.94      0.00
  -12   18    0     -6.85      0.00
   -9   18    0    -76.02      0.00
   -6   18    0    -28.25      0.00
   -3   18    0     -4.38      0.00
    0   18    0    -11.69      0.00
  -17   19    0     28.41      0.00
  -14   19    0     16.59      0.00
  -11   19    0     18.44      0.00
   -8   19    0     -8.88      0.00
   -5   19    0     -2.86      0.00
   -2   19    0     12.75      0.00
  -19   20    0     -9.71      0.00
  -16   20    0    -50.07      0.00
  -13   20    0      7.32      0.00
  -10   20    0     24.81      0.00
   -7   20    0     18.38      0.00
   -4   20    0     26.16      0.00
   -1   20    0     14.63      0.00
  -18   21    0     -5.77      0.00
  -15   21    0     -8.44      0.00
  -12   21    0    -25.52      0.00
   -9   21    0    -47.69      0.00
   -6   21    0    -35.77      0.00
   -3   21    0     -9.55      0.00
    0   21    0     -4.37      0.00
  -20   22    0     19.93      0.00
  -17   22    0     38.47      0.00
  -14   22    0      7.91      0.00
  -11   22    0     17.74      0.00
   -8   22    0     18.11      0.00
   -5   22    0     33.00      0.00
   -2   22    0     18.72      0.00
  -22   23    0      6.61      0.00
  -19   23    0    -14.48      0.00
  -16   23    0    -25.84      0.00
  -13   23    0    -14.91      0.00
  -10   23    0     -4.75      0.00
   -7   23    0      1.84      0.00
   -4   23    0     -8.59      0.00
   -1   23    0    -25.22      0.00
  -21   24    0    -14.83      0.00
  -18   24    0      2.70      0.00
  -15   24    0     15.49      0.00
  -12   24    0     35.03      0.00
   -9   24    0     19.73      0.00
   -6   24    0     -7.25      0.00
   -3   24    0     -7.48      0.00
    0   24    0      0.21      0.00
  -23   25    0     -7.90      0.00
  -20   25    0      4.37      0.00
  -17   25    0     -1.92      0.00
  -14   25    0    -15.79      0.00
  -11   25    0     -3.90      0.00
   -8   25    0     -0.30      0.00
   -5   25    0      8.20      0.00
   -2   25    0      5.51      0.00
  -25   26    0     18.93      0.00
  -22   26    0     16.12      0.00
  -19   26    0      4.51      0.00
  -16   26    0      3.58      0.00
  -13   26    0     -4.31      0.00
  -10   26    0    -14.90      0.00
   -7   26    0    -11.63      0.00
   -4   26    0     -9.42      0.00
   -1   26    0     -6.59      0.00
  -24   27    0     -7.16      0.00
  -21   27    0    -17.61      0.00
  -18   27    0     -2.34      0.00
  -15   27    0     16.42      0.00
  -12   27    0     27.45      0.00
   -9   27    0      1.53      0.00
   -6   27    0      5.35      0.00
   -3   27    0     13.71      0.00
    0   27    0      7.70      0.00
  -26   28    0     -7.83      0.00
  -23   28    0     -0.84      0.00
  -20   28    0      2.68      0.00
  -17   28    0    -12.82      0.00
  -14   28    0    -25.26      0.00
  -11   28    0    -25.14      0.00
   -8   28    0     -2.90      0.00
   -5   28    0     -1.18      0.00
   -2   28    0     -4.59      0.00
  -28   29    0     -1.57      0.00
  -25   29    0      3.68      0.00
  -22   29    0     10.46      0.00
  -19   29    0     10.87      0.00
  -16   29    0      1.31      0.00
  -13   29    0      1.86      0.00
  -10   29    0     14.81      0.00
   -7   29    0     20.11      0.00
   -4   29    0      8.81      0.00
   -1   29    0     -6.38      0.00
  -27   30    0      3.94      0.00
  -24   30    0    -13.77      0.00
  -21   30    0    -11.03      0.00
  -18   30    0    -12.03      0.00
  -15   30    0     -6.25      0.00
  -12   30    0     -0.47      0.00
   -9   30    0     -2.62      0.00
   -6   30    0     -2.98      0.00
   -3   30    0      6.96      0.00
    0   30    0     10.51      0.00
  -29   31    0     -1.41      0.00
  -26   31    0      6.30      0.00
  -23   31    0     12.87      0.00
  -20   31    0     10.64      0.00
  -17   31    0     11.70      0.00
  -14   31    0      9.03      0.00
  -11   31    0      2.34      0.00
   -8   31    0    -12.80      0.00
   -5   31    0    -13.10      0.00
   -2   31    0     -3.18      0.00
  -31   32    0     -2.14      0.00
  -28   32    0     -4.04      0.00
  -25   32    0     -4.74      0.00
  -22   32    0     -2.83      0.00
  -19   32    0     -0.77      0.00
  -16   32    0      1.29      0.00
  -13   32    0     16.05      0.00
  -10   32    0     12.24      0.00
   -7   32    0      3.87      0.00
   -4   32    0      1.25      0.00
   -1   32    0     -5.67      0.00
  -30   33    0      3.15      0.00
  -27   33    0     -0.44      0.00
  -24   33    0     -1.15      0.00
  -21   33    0     -3.37      0.00
  -18   33    0     -3.85      0.00
  -15   33    0     -9.28      0.00
  -12   33    0    -11.70      0.00
   -9   33    0     -3.94      0.00
   -6   33    0      0.17      0.00
   -3   33    0      0.69      0.00
    0   33    0      1.94      0.00
  -32   34    0      0.25      0.00
  -29   34    0     -0.64      0.00
  -26   34    0     13.07      0.00
  -23   34    0      4.93      0.00
  -20   34    0      9.56      0.00
  -17   34    0      8.06      0.00
  -14   34    0      6.41      0.00
  -11   34    0      3.12      0.00
   -8   34    0      4.47      0.00
   -5   34    0      6.46      0.00
   -2   34    0      4.78      0.00
  -34   35    0      0.49      0.00
  -31   35    0     -2.65      0.00
  -28   35    0     -5.81      0.00
  -25   35    0     -5.08      0.00
  -22   35    0     -4.10      0.00
  -19   35    0    -10.07      0.00
  -16   35    0    -14.75      0.00
  -13   35    0     -8.65      0.00
  -10   35    0     -0.91      0.00
   -7   35    0     -3.59      0.00
   -4   35    0     -2.01      0.00
   -1   35    0      6.65      0.00
  -33   36    0      0.41      0.00
  -30   36    0     -0.35      0.00
  -27   36    0      6.05      0.00
  -24   36    0      5.70      0.00
  -21   36    0      9.43      0.00
  -18   36    0      3.77      0.00
  -15   36    0      1.11      0.00
  -12   36    0      1.03      0.00
   -9   36    0      1.37      0.00
   -6   36    0     -4.86      0.00
   -3   36    0     -6.08      0.00
    0   36    0     -3.90      0.00
  -35   37    0      3.61      0.00
  -32   37    0      4.11      0.00
  -29   37    0      1.25      0.00
  -26   37    0     -1.60      0.00
  -23   37    0     -4.28      0.00
  -20   37    0     -3.50      0.00
  -17   37    0      3.11      0.00
  -14   37    0      3.97      0.00
  -11   37    0      4.04      0.00
   -8   37    0      8.01      0.00
   -5   37    0      7.71      0.00
   -2   37    0     -2.83      0.00
  -37   38    0     -5.78      0.00
  -34   38    0     -1.13      0.00
  -31   38    0      1.01      0.00
  -28   38    0     -3.24      0.00
  -25   38    0     -2.36      0.00
  -22   38    0     -1.79      0.00
  -19   38    0     -0.99      0.00
  -16   38    0      0.10      0.00
  -13   38    0     -7.15      0.00
  -10   38    0     -8.09      0.00
   -7   38    0     -1.69      0.00
   -4   38    0      2.46      0.00
   -1   38    0      5.08      0.00
  -36   39    0      0.76      0.00
  -33   39    0      5.24      0.00
  -30   39    0      2.89      0.00
  -27   39    0      3.72      0.00
  -24   39    0      2.45      0.00
  -21   39    0     -0.06      0.00
  -18   39    0      8.73      0.00
  -15   39    0      7.60      0.00
  -12   39    0      5.19      0.00
   -9   39    0      0.29      0.00
   -6   39    0     -4.23      0.00
   -3   39    0     -2.36      0.00
    0   39    0      1.33      0.00
  -38   40    0     -2.00      0.00
  -35   40    0     -1.01      0.00
  -32   40    0     -1.03      0.00
  -29   40    0     -1.48      0.00
  -26   40    0     -3.32      0.00
  -23   40    0     -6.90      0.00
  -20   40    0     -4.19      0.00
  -17   40    0     -6.24      0.00
  -14   40    0     -4.28      0.00
  -11   40    0      0.84      0.00
   -8   40    0      4.02      0.00
   -5   40    0      0.22      0.00
   -2   40    0     -1.19      0.00
  -40   41    0     -0.56      0.00
  -37   41    0     -0.58      0.00
  -34   41    0     -4.02      0.00
  -31   41    0     -2.34      0.00
  -28   41    0     -0.24      0.00
  -25   41    0      3.39      0.00
  -22   41    0      4.33      0.00
  -19   41    0      6.76      0.00
  -16   41    0      2.78      0.00
  -13   41    0      1.06      0.00
  -10   41    0     -1.56      0.00
   -7   41    0      0.71      0.00
   -4   41    0      3.27      0.00
   -1   41    0      0.28      0.00
  -39   42    0      3.71      0.00
  -36   42    0      4.18      0.00
  -33   42    0      1.76      0.00
  -30   42    0      2.44      0.00
  -27   42    0     -0.54      0.00
  -24   42    0     -5.04      0.00
  -21   42    0     -2.98      0.00
  -18   42    0     -2.71      0.00
  -15   42    0      2.02      0.00
  -12   42    0      2.91      0.00
   -9   42    0      1.14      0.00
   -6   42    0      1.14      0.00
   -3   42    0      1.02      0.00
    0   42    0      0.94      0.00
  -41   43    0     -2.48      0.00
  -38   43    0     -1.29      0.00
  -35   43    0     -2.13      0.00
  -32   43    0     -0.38      0.00
  -29   43    0     -1.15      0.00
  -26   43    0      1.43      0.00
  -23   43    0      3.71      0.00
  -20   43    0     -0.01      0.00
  -17   43    0     -4.77      0.00
  -14   43    0     -1.41      0.00
  -11   43    0      0.17      0.00
   -8   43    0      2.32      0.00
   -5   43    0     -1.32      0.00
   -2   43    0      1.76      0.00
  -43   44    0      1.03      0.00
  -40   44    0      3.37      0.00
  -37   44    0      1.71      0.00
  -34   44    0     -0.86      0.00
  -31   44    0     -1.02      0.00
  -28   44    0      0.13      0.00
  -25   44    0      2.52      0.00
  -22   44    0      4.45      0.00
  -19   44    0      6.23      0.00
  -16   44    0      2.36      0.00
  -13   44    0      1.53      0.00
  -10   44    0      2.57      0.00
   -7   44    0      1.74      0.00
   -4   44    0     -1.21      0.00
   -1   44    0      0.44      0.00
  -39   45    0     -0.06      0.00
  -36   45    0      1.70      0.00
  -33   45    0      0.62      0.00
  -30   45    0      0.05      0.00
  -27   45    0     -2.65      0.00
  -24   45    0     -5.62      0.00
  -21   45    0     -0.29      0.00
  -18   45    0     -1.31      0.00
  -15   45    0     -0.72      0.00
  -12   45    0     -1.32      0.00
   -9   45    0      2.04      0.00
   -6   45    0      0.49      0.00
  -38   46    0     -0.12      0.00
  -35   46    0      0.47      0.00
  -32   46    0      0.03      0.00
  -29   46    0     -0.10      0.00
  -26   46    0      1.84      0.00
  -23   46    0      0.34      0.00
  -20   46    0      4.76      0.00
  -17   46    0      3.28      0.00
  -14   46    0      4.29      0.00
  -11   46    0      2.33      0.00
   -8   46    0      2.09      0.00
  -37   47    0      1.08      0.00
  -34   47    0      1.04      0.00
  -31   47    0      0.91      0.00
  -28   47    0      1.59      0.00
  -25   47    0     -2.77      0.00
  -22   47    0     -0.75      0.00
  -19   47    0     -1.84      0.00
  -16   47    0      0.38      0.00
  -13   47    0      0.58      0.00
  -10   47    0      3.35      0.00
  -36   48    0     -1.61      0.00
  -33   48    0      0.60      0.00
  -30   48    0      0.62      0.00
  -27   48    0      1.26      0.00
  -24   48    0     -0.50      0.00
  -21   48    0      3.71      0.00
  -18   48    0      1.26      0.00
  -15   48    0     -0.65      0.00
  -12   48    0     -0.56      0.00
  -32   49    0     -0.85      0.00
  -29   49    0     -0.31      0.00
  -26   49    0      1.51      0.00
  -23   49    0      0.91      0.00
  -20   49    0      4.59      0.00
  -17   49    0      7.95      0.00
  -28   50    0      2.03      0.00
  -25   50    0     -1.52      0.00
  -22   50    0     -1.05      0.00
   -5    3    1    -59.48      0.00
    2    4    1    -20.62      0.00
   -9    5    1    -91.12      0.00
   -6    5    1     81.05      0.00
   -3    5    1     23.41      0.00
    0    5    1    -57.46      0.00
    3    5    1     25.51      0.00
  -11    6    1    -20.00      0.00
   -8    6    1     64.37      0.00
   -5    6    1    165.10      0.00
   -2    6    1     79.95      0.00
    1    6    1    -17.72      0.00
    4    6    1     71.13      0.00
  -10    7    1   -116.04      0.00
   -7    7    1    -36.65      0.00
   -4    7    1     58.68      0.00
   -1    7    1     22.89      0.00
    2    7    1    -32.12      0.00
    5    7    1    -68.62      0.00
  -15    8    1     42.85      0.00
  -12    8    1    -31.99      0.00
   -9    8    1    -64.15      0.00
   -6    8    1    -60.27      0.00
   -3    8    1   -161.08      0.00
    0    8    1    -52.92      0.00
    3    8    1    -50.41      0.00
    6    8    1    -37.96      0.00
  -17    9    1    -70.22      0.00
  -14    9    1     -5.17      0.00
  -11    9    1     71.30      0.00
   -8    9    1     17.99      0.00
   -5    9    1    -27.59      0.00
   -2    9    1     22.90      0.00
    1    9    1     48.99      0.00
    4    9    1     60.93      0.00
    7    9    1     38.07      0.00
  -19   10    1    -58.19      0.00
  -16   10    1    -50.46      0.00
  -13   10    1    -11.53      0.00
  -10   10    1    -61.59      0.00
   -7   10    1    -78.71      0.00
   -4   10    1    -38.50      0.00
    2   10    1    -65.86      0.00
    5   10    1     -8.65      0.00
    8   10    1      2.35      0.00
  -21   11    1     -0.51      0.00
  -18   11    1     23.12      0.00
  -15   11    1      2.13      0.00
  -12   11    1     12.49      0.00
   -9   11    1     11.50      0.00
   -6   11    1     92.08      0.00
   -3   11    1    100.87      0.00
    0   11    1    -11.47      0.00
    3   11    1    -59.80      0.00
    6   11    1      4.16      0.00
    9   11    1     28.84      0.00
  -23   12    1     44.80      0.00
  -20   12    1     61.58      0.00
  -17   12    1    -43.31      0.00
  -14   12    1    -14.93      0.00
  -11   12    1     62.71      0.00
   -8   12    1    -19.16      0.00
   -2   12    1     -0.06      0.00
    1   12    1     37.39      0.00
    4   12    1     -7.80      0.00
    7   12    1      7.66      0.00
   10   12    1     -5.98      0.00
  -25   13    1    -12.48      0.00
  -22   13    1    -21.47      0.00
  -19   13    1     -3.09      0.00
  -16   13    1    -18.99      0.00
  -13   13    1      7.75      0.00
  -10   13    1     58.33      0.00
   -7   13    1     25.44      0.00
   -4   13    1    -89.54      0.00
   -1   13    1    -13.39      0.00
    2   13    1      2.25      0.00
    5   13    1      3.46      0.00
    8   13    1    -45.28      0.00
   11   13    1    -21.29      0.00
  -27   14    1     18.81      0.00
  -24   14    1    -34.11      0.00
  -21   14    1     32.93      0.00
  -18   14    1     52.33      0.00
  -15   14    1    -19.64      0.00
  -12   14    1     29.35      0.00
   -9   14    1     23.17      0.00
   -6   14    1     94.30      0.00
   -3   14    1      9.02      0.00
    0   14    1     -3.41      0.00
    6   14    1     21.94      0.00
    9   14    1     32.85      0.00
   12   14    1    -11.29      0.00
  -29   15    1    -16.16      0.00
  -26   15    1    -11.58      0.00
  -23   15    1      3.59      0.00
  -20   15    1     11.17      0.00
  -17   15    1    -14.68      0.00
  -14   15    1    -34.91      0.00
  -11   15    1    -21.39      0.00
   -8   15    1    -52.89      0.00
   -5   15    1    -77.59      0.00
   -2   15    1      0.54      0.00
    1   15    1    -26.68      0.00
    4   15    1    -13.70      0.00
    7   15    1     17.69      0.00
   10   15    1     16.18      0.00
   13   15    1     -3.35      0.00
  -31   16    1    -14.55      0.00
  -28   16    1     19.28      0.00
  -25   16    1      4.90      0.00
  -22   16    1    -24.12      0.00
  -19   16    1      0.53      0.00
  -16   16    1      0.06      0.00
  -13   16    1     31.42      0.00
  -10   16    1     11.82      0.00
   -7   16    1      3.77      0.00
   -4   16    1     19.41      0.00
   -1   16    1     56.93      0.00
    2   16    1     49.32      0.00
    5   16    1    -17.68      0.00
    8   16    1    -34.08      0.00
   11   16    1     10.85      0.00
   14   16    1     29.60      0.00
  -33   17    1      5.66      0.00
  -30   17    1     16.52      0.00
  -27   17    1      1.20      0.00
  -24   17    1    -19.60      0.00
  -21   17    1      2.34      0.00
  -18   17    1     20.64      0.00
  -15   17    1    -18.94      0.00
  -12   17    1    -47.66      0.00
   -9   17    1    -50.33      0.00
   -6   17    1     15.82      0.00
   -3   17    1      0.41      0.00
    0   17    1    -13.46      0.00
    3   17    1     -3.39      0.00
    6   17    1     -7.78      0.00
    9   17    1     -7.50      0.00
   12   17    1    -18.94      0.00
   15   17    1      0.97      0.00
  -35   18    1      3.94      0.00
  -32   18    1     -0.10      0.00
  -29   18    1    -16.99      0.00
  -26   18    1     -8.00      0.00
  -23   18    1    -17.82      0.00
  -20   18    1     -8.27      0.00
  -17   18    1     19.30      0.00
  -14   18    1    -11.10      0.00
  -11   18    1     14.85      0.00
   -8   18    1      9.94      0.00
   -5   18    1     -7.13      0.00
   -2   18    1    -40.38      0.00
    1   18    1    -17.34      0.00
    4   18    1     17.10      0.00
    7   18    1     23.80      0.00
   10   18    1     -2.58      0.00
   13   18    1    -14.92      0.00
   16   18    1     -9.93      0.00
  -37   19    1     10.31      0.00
  -34   19    1     -4.59      0.00
  -31   19    1     -8.24      0.00
  -28   19    1     30.12      0.00
  -25   19    1     30.69      0.00
  -22   19    1     -6.98      0.00
  -19   19    1    -13.98      0.00
  -16   19    1      5.80      0.00
  -13   19    1     41.29      0.00
  -10   19    1     20.53      0.00
   -7   19    1     29.09      0.00
   -4   19    1     25.37      0.00
   -1   19    1     19.33      0.00
    2   19    1     10.59      0.00
    5   19    1    -24.59      0.00
    8   19    1      9.21      0.00
   11   19    1     10.80      0.00
   14   19    1      3.22      0.00
   17   19    1     -8.30      0.00
  -39   20    1     -6.22      0.00
  -36   20    1     -9.41      0.00
  -33   20    1      1.86      0.00
  -30   20    1     -4.44      0.00
  -27   20    1    -13.65      0.00
  -24   20    1     -1.90      0.00
  -21   20    1    -11.26      0.00
  -18   20    1      6.26      0.00
  -15   20    1    -21.29      0.00
  -12   20    1     -4.98      0.00
   -9   20    1    -38.28      0.00
   -6   20    1    -30.03      0.00
   -3   20    1    -16.84      0.00
    0   20    1    -13.06      0.00
    3   20    1    -24.20      0.00
    6   20    1    -13.17      0.00
    9   20    1     -7.87      0.00
   12   20    1     14.80      0.00
   15   20    1      8.51      0.00
   18   20    1     -4.03      0.00
  -41   21    1     -4.63      0.00
  -38   21    1     -2.07      0.00
  -35   21    1     13.23      0.00
  -32   21    1      8.57      0.00
  -29   21    1     -5.93      0.00
  -26   21    1     -8.41      0.00
  -23   21    1      3.34      0.00
  -20   21    1     20.21      0.00
  -17   21    1      4.99      0.00
  -14   21    1     11.53      0.00
  -11   21    1     50.69      0.00
   -8   21    1     30.31      0.00
   -5   21    1     12.30      0.00
   -2   21    1    -18.58      0.00
    1   21    1     15.16      0.00
    4   21    1     26.55      0.00
    7   21    1     11.97      0.00
   10   21    1    -14.70      0.00
   13   21    1     -9.10      0.00
   16   21    1      4.97      0.00
   19   21    1     10.84      0.00
  -43   22    1     -2.09      0.00
  -40   22    1      6.71      0.00
  -37   22    1      4.96      0.00
  -34   22    1    -10.12      0.00
  -31   22    1     -1.35      0.00
  -28   22    1     10.19      0.00
  -25   22    1     20.46      0.00
  -22   22    1     -6.20      0.00
  -19   22    1     -7.65      0.00
  -16   22    1     -8.89      0.00
  -13   22    1     -8.03      0.00
  -10   22    1    -29.58      0.00
   -7   22    1     -3.74      0.00
   -4   22    1     -1.43      0.00
   -1   22    1      1.75      0.00
    2   22    1     -6.70      0.00
    5   22    1      7.66      0.00
    8   22    1     10.60      0.00
   11   22    1     -2.84      0.00
   14   22    1     -8.68      0.00
   17   22    1     -0.55      0.00
   20   22    1     -0.01      0.00
  -45   23    1      0.86      0.00
  -42   23    1     -1.31      0.00
  -39   23    1     -9.42      0.00
  -36   23    1    -11.69      0.00
  -33   23    1     -0.91      0.00
  -30   23    1     -4.91      0.00
  -27   23    1     -6.97      0.00
  -24   23    1    -14.70      0.00
  -21   23    1     -6.59      0.00
  -18   23    1     17.77      0.00
  -15   23    1     -2.95      0.00
  -12   23    1     -1.51      0.00
   -9   23    1    -15.70      0.00
   -6   23    1      2.02      0.00
   -3   23    1     16.87      0.00
    0   23    1      1.74      0.00
    3   23    1    -17.29      0.00
    6   23    1    -13.31      0.00
    9   23    1      6.54      0.00
   12   23    1     16.82      0.00
   15   23    1      1.63      0.00
   18   23    1     -4.98      0.00
   21   23    1     -0.38      0.00
  -47   24    1      3.82      0.00
  -44   24    1      3.16      0.00
  -41   24    1     -3.95      0.00
  -38   24    1      5.88      0.00
  -35   24    1     14.71      0.00
  -32   24    1      9.02      0.00
  -29   24    1     -0.83      0.00
  -26   24    1      5.37      0.00
  -23   24    1     13.02      0.00
  -20   24    1      2.56      0.00
  -17   24    1    -10.90      0.00
  -14   24    1     -7.12      0.00
  -11   24    1     23.14      0.00
   -8   24    1     23.88      0.00
   -5   24    1      1.07      0.00
   -2   24    1      5.87      0.00
    1   24    1     10.51      0.00
    4   24    1     -2.52      0.00
    7   24    1     -4.28      0.00
   10   24    1    -10.68      0.00
   13   24    1     -6.28      0.00
   16   24    1      4.05      0.00
   19   24    1      0.72      0.00
   22   24    1     -3.54      0.00
  -49   25    1     -2.53      0.00
  -46   25    1     -0.78      0.00
  -43   25    1     -2.17      0.00
  -40   25    1      2.98      0.00
  -37   25    1     -0.58      0.00
  -34   25    1     -9.00      0.00
  -31   25    1    -10.33      0.00
  -28   25    1     -0.73      0.00
  -25   25    1      5.31      0.00
  -22   25    1    -16.04      0.00
  -19   25    1     -6.40      0.00
  -16   25    1    -13.87      0.00
  -13   25    1    -22.48      0.00
  -10   25    1    -13.58      0.00
   -7   25    1    -18.89      0.00
   -4   25    1     -9.57      0.00
   -1   25    1    -15.53      0.00
    2   25    1     -6.66      0.00
    5   25    1     11.62      0.00
    8   25    1     -1.34      0.00
   11   25    1     -6.89      0.00
   14   25    1     -0.50      0.00
   17   25    1      0.32      0.00
   20   25    1      0.84      0.00
   23   25    1      2.57      0.00
  -48   26    1      1.70      0.00
  -45   26    1      4.43      0.00
  -42   26    1      1.62      0.00
  -39   26    1     -4.55      0.00
  -36   26    1     -4.20      0.00
  -33   26    1      9.10      0.00
  -30   26    1     12.65      0.00
  -27   26    1     -1.40      0.00
  -24   26    1     -6.42      0.00
  -21   26    1     -0.38      0.00
  -18   26    1     22.78      0.00
  -15   26    1      6.50      0.00
  -12   26    1      2.84      0.00
   -9   26    1     -5.56      0.00
   -6   26    1     20.18      0.00
   -3   26    1     14.27      0.00
    0   26    1      1.47      0.00
    3   26    1     -8.00      0.00
    6   26    1     -3.53      0.00
    9   26    1      8.19      0.00
   12   26    1      5.78      0.00
   15   26    1     -0.83      0.00
   18   26    1     -1.25      0.00
   21   26    1      2.75      0.00
   24   26    1     -0.71      0.00
  -50   27    1     -1.72      0.00
  -47   27    1      2.60      0.00
  -44   27    1     -2.45      0.00
  -41   27    1     -3.65      0.00
  -38   27    1      3.51      0.00
  -35   27    1      7.34      0.00
  -32   27    1      5.21      0.00
  -29   27    1     -7.28      0.00
  -26   27    1     12.06      0.00
  -23   27    1      7.82      0.00
  -20   27    1     -5.35      0.00
  -17   27    1      2.18      0.00
  -14   27    1     -3.23      0.00
  -11   27    1     -2.17      0.00
   -8   27    1    -12.29      0.00
   -5   27    1    -15.31      0.00
   -2   27    1     -4.27      0.00
    1   27    1      0.87      0.00
    4   27    1      4.26      0.00
    7   27    1      2.36      0.00
   10   27    1     -1.38      0.00
   13   27    1     -1.66      0.00
   16   27    1      0.79      0.00
   19   27    1      1.64      0.00
   22   27    1      0.63      0.00
  -49   28    1      2.21      0.00
  -46   28    1     -0.69      0.00
  -43   28    1     -0.88      0.00
  -40   28    1     -0.74      0.00
  -37   28    1     -4.05      0.00
  -34   28    1     -4.75      0.00
  -31   28    1     -8.86      0.00
  -28   28    1     -8.28      0.00
  -25   28    1     -1.02      0.00
  -22   28    1    -10.14      0.00
  -19   28    1      0.23      0.00
  -16   28    1      2.08      0.00
  -13   28    1     14.41      0.00
  -10   28    1     11.60      0.00
   -7   28    1      3.66      0.00
   -4   28    1    -17.39      0.00
   -1   28    1     -8.99      0.00
    2   28    1      8.69      0.00
    5   28    1      1.71      0.00
    8   28    1     -1.92      0.00
   11   28    1     -0.36      0.00
   14   28    1      1.74      0.00
   17   28    1     -1.68      0.00
   20   28    1      0.13      0.00
  -48   29    1      1.67      0.00
  -45   29    1      5.99      0.00
  -42   29    1      5.24      0.00
  -39   29    1     -4.40      0.00
  -36   29    1     -3.95      0.00
  -33   29    1     10.70      0.00
  -30   29    1     12.34      0.00
  -27   29    1      1.77      0.00
  -24   29    1      5.04      0.00
  -21   29    1      5.11      0.00
  -18   29    1     -0.78      0.00
  -15   29    1     -8.67      0.00
  -12   29    1     -2.86      0.00
   -9   29    1     13.02      0.00
   -6   29    1     13.24      0.00
   -3   29    1     12.91      0.00
    0   29    1      5.52      0.00
    3   29    1     -8.05      0.00
    6   29    1     -2.72      0.00
    9   29    1      2.73      0.00
   12   29    1      1.12      0.00
   15   29    1      0.40      0.00
   18   29    1     -0.84      0.00
  -47   30    1     -1.47      0.00
  -44   30    1     -1.53      0.00
  -41   30    1     -3.37      0.00
  -38   30    1      2.47      0.00
  -35   30    1     -3.38      0.00
  -32   30    1     -6.67      0.00
  -29   30    1     -4.98      0.00
  -26   30    1      6.18      0.00
  -23   30    1      3.42      0.00
  -20   30    1     -1.31      0.00
  -17   30    1      2.47      0.00
  -14   30    1     -3.07      0.00
  -11   30    1     -7.21      0.00
   -8   30    1    -12.55      0.00
   -5   30    1      1.14      0.00
   -2   30    1      5.54      0.00
    1   30    1     -4.29      0.00
    4   30    1      4.02      0.00
    7   30    1      3.62      0.00
   10   30    1     -2.42      0.00
   13   30    1     -1.35      0.00
   16   30    1      1.36      0.00
   19   30    1      1.20      0.00
  -49   31    1      4.70      0.00
  -46   31    1     -1.83      0.00
  -43   31    1     -0.76      0.00
  -40   31    1      2.15      0.00
  -37   31    1      2.84      0.00
  -34   31    1     -3.00      0.00
  -31   31    1      4.06      0.00
  -28   31    1     -2.12      0.00
  -25   31    1     -2.93      0.00
  -22   31    1      0.25      0.00
  -19   31    1     -5.80      0.00
  -16   31    1      9.24      0.00
  -13   31    1     13.63      0.00
  -10   31    1      6.86      0.00
   -7   31    1      5.33      0.00
   -4   31    1     -2.37      0.00
   -1   31    1     -0.07      0.00
    2   31    1      7.38      0.00
    5   31    1      0.00      0.00
    8   31    1     -3.60      0.00
   11   31    1     -0.56      0.00
   14   31    1     -1.08      0.00
   17   31    1     -1.82      0.00
  -48   32    1     -2.41      0.00
  -45   32    1      3.79      0.00
  -42   32    1     -0.02      0.00
  -39   32    1     -2.05      0.00
  -36   32    1     -4.94      0.00
  -33   32    1      4.11      0.00
  -30   32    1      4.36      0.00
  -27   32    1      1.08      0.00
  -24   32    1      5.74      0.00
  -21   32    1     -1.60      0.00
  -18   32    1     -3.90      0.00
  -15   32    1    -14.88      0.00
  -12   32    1     -4.69      0.00
   -9   32    1     -1.78      0.00
   -6   32    1     -6.17      0.00
   -3   32    1     -3.24      0.00
    0   32    1     -7.66      0.00
    3   32    1      0.69      0.00
    6   32    1      2.46      0.00
    9   32    1      0.41      0.00
   12   32    1     -0.47      0.00
   15   32    1      0.14      0.00
  -47   33    1     -0.76      0.00
  -44   33    1     -0.44      0.00
  -41   33    1     -0.56      0.00
  -38   33    1      4.60      0.00
  -35   33    1     -3.26      0.00
  -32   33    1     -7.06      0.00
  -29   33    1     -4.35      0.00
  -26   33    1     -3.17      0.00
  -23   33    1      1.95      0.00
  -20   33    1      2.34      0.00
  -17   33    1      5.96      0.00
  -14   33    1      0.37      0.00
  -11   33    1     -0.56      0.00
   -8   33    1      7.59      0.00
   -5   33    1      2.37      0.00
   -2   33    1     -8.60      0.00
    1   33    1     -4.26      0.00
    4   33    1     -1.37      0.00
    7   33    1      0.34      0.00
   10   33    1      0.54      0.00
   13   33    1     -0.32      0.00
   16   33    1      0.32      0.00
  -46   34    1     -0.59      0.00
  -43   34    1      0.03      0.00
  -40   34    1      2.39      0.00
  -37   34    1      3.12      0.00
  -34   34    1      4.83      0.00
  -31   34    1      3.97      0.00
  -28   34    1     -0.96      0.00
  -25   34    1      1.08      0.00
  -22   34    1     -0.12      0.00
  -19   34    1      3.74      0.00
  -16   34    1     -1.56      0.00
  -13   34    1     -0.39      0.00
  -10   34    1      3.97      0.00
   -7   34    1      0.67      0.00
   -4   34    1      6.49      0.00
   -1   34    1      8.58      0.00
    2   34    1      0.63      0.00
    5   34    1     -2.43      0.00
    8   34    1     -2.13      0.00
   11   34    1      0.98      0.00
   14   34    1      0.92      0.00
  -48   35    1     -2.13      0.00
  -45   35    1      2.60      0.00
  -42   35    1     -1.84      0.00
  -39   35    1     -4.08      0.00
  -36   35    1     -3.31      0.00
  -33   35    1     -2.94      0.00
  -30   35    1      1.50      0.00
  -27   35    1      2.31      0.00
  -24   35    1      0.48      0.00
  -21   35    1      0.43      0.00
  -18   35    1      1.43      0.00
  -15   35    1      2.68      0.00
  -12   35    1      3.01      0.00
   -9   35    1    -14.21      0.00
   -6   35    1    -14.40      0.00
   -3   35    1      1.28      0.00
    0   35    1      2.51      0.00
    3   35    1      1.84      0.00
    6   35    1      0.38      0.00
    9   35    1     -0.69      0.00
   12   35    1     -0.60      0.00
  -47   36    1      4.48      0.00
  -44   36    1      0.70      0.00
  -41   36    1      0.06      0.00
  -38   36    1      0.87      0.00
  -35   36    1     -1.52      0.00
  -32   36    1     -0.13      0.00
  -29   36    1      0.98      0.00
  -26   36    1      2.28      0.00
  -23   36    1     -2.10      0.00
  -20   36    1     -3.44      0.00
  -17   36    1      2.48      0.00
  -14   36    1      7.55      0.00
  -11   36    1      3.51      0.00
   -8   36    1      6.37      0.00
   -5   36    1      0.69      0.00
   -2   36    1     -4.73      0.00
    1   36    1     -1.37      0.00
    4   36    1      3.41      0.00
    7   36    1     -0.87      0.00
   10   36    1     -1.49      0.00
  -46   37    1      0.14      0.00
  -43   37    1      1.01      0.00
  -40   37    1     -0.21      0.00
  -37   37    1      0.68      0.00
  -34   37    1      2.12      0.00
  -31   37    1      0.48      0.00
  -28   37    1     -0.36      0.00
  -25   37    1      2.25      0.00
  -22   37    1      2.40      0.00
  -19   37    1      3.28      0.00
  -16   37    1     -4.47      0.00
  -13   37    1     -7.16      0.00
  -10   37    1      0.54      0.00
   -7   37    1      2.97      0.00
   -4   37    1      4.75      0.00
   -1   37    1     -0.21      0.00
    2   37    1     -1.50      0.00
    5   37    1      1.06      0.00
    8   37    1      1.86      0.00
  -45   38    1      2.53      0.00
  -42   38    1      0.67      0.00
  -39   38    1      1.24      0.00
  -36   38    1      0.14      0.00
  -33   38    1      0.01      0.00
  -30   38    1     -2.56      0.00
  -27   38    1     -0.26      0.00
  -24   38    1     -1.59      0.00
  -21   38    1     -1.21      0.00
  -18   38    1      1.63      0.00
  -15   38    1      5.25      0.00
  -12   38    1     -0.51      0.00
   -9   38    1     -3.46      0.00
   -6   38    1     -3.12      0.00
   -3   38    1      1.50      0.00
    0   38    1      1.86      0.00
    3   38    1     -1.48      0.00
    6   38    1     -3.26      0.00
    9   38    1      0.30      0.00
  -44   39    1      1.06      0.00
  -41   39    1     -0.53      0.00
  -38   39    1     -1.81      0.00
  -35   39    1      0.83      0.00
  -32   39    1      3.11      0.00
  -29   39    1      1.60      0.00
  -26   39    1      1.79      0.00
  -23   39    1     -2.92      0.00
  -20   39    1     -5.63      0.00
  -17   39    1     -4.62      0.00
  -14   39    1     -4.89      0.00
  -11   39    1      2.62      0.00
   -8   39    1      0.39      0.00
   -5   39    1     -2.78      0.00
   -2   39    1      0.28      0.00
    1   39    1      1.52      0.00
    4   39    1      0.87      0.00
    7   39    1     -2.12      0.00
  -46   40    1      1.24      0.00
  -43   40    1      0.97      0.00
  -40   40    1     -2.15      0.00
  -37   40    1     -2.34      0.00
  -34   40    1     -1.84      0.00
  -31   40    1     -1.96      0.00
  -28   40    1     -1.72      0.00
  -25   40    1      0.95      0.00
  -22   40    1      5.54      0.00
  -19   40    1      4.35      0.00
  -16   40    1     -3.33      0.00
  -13   40    1      0.05      0.00
  -10   40    1     -0.72      0.00
   -7   40    1     -4.35      0.00
   -4   40    1     -3.29      0.00
   -1   40    1     -2.84      0.00
    2   40    1      0.73      0.00
    5   40    1      0.54      0.00
  -45   41    1      2.80      0.00
  -42   41    1      1.64      0.00
  -39   41    1      2.33      0.00
  -36   41    1      0.50      0.00
  -33   41    1      0.78      0.00
  -30   41    1      0.17      0.00
  -27   41    1     -1.62      0.00
  -24   41    1     -1.52      0.00
  -21   41    1     -1.99      0.00
  -18   41    1      0.03      0.00
  -15   41    1      4.17      0.00
  -12   41    1      2.67      0.00
   -9   41    1      1.69      0.00
   -6   41    1      2.38      0.00
   -3   41    1      0.33      0.00
    0   41    1     -1.13      0.00
    3   41    1     -0.95      0.00
  -44   42    1     -2.34      0.00
  -41   42    1     -3.38      0.00
  -38   42    1      0.48      0.00
  -35   42    1      0.50      0.00
  -32   42    1      3.17      0.00
  -29   42    1      1.73      0.00
  -26   42    1     -0.55      0.00
  -23   42    1     -2.37      0.00
  -20   42    1      1.69      0.00
  -17   42    1      0.31      0.00
  -14   42    1     -3.37      0.00
  -11   42    1     -4.37      0.00
   -8   42    1      0.43      0.00
   -5   42    1      1.76      0.00
   -2   42    1      1.96      0.00
    1   42    1      2.00      0.00
  -43   43    1     -3.39      0.00
  -40   43    1     -0.14      0.00
  -37   43    1     -0.12      0.00
  -34   43    1      1.41      0.00
  -31   43    1      1.47      0.00
  -28   43    1     -2.76      0.00
  -25   43    1     -2.17      0.00
  -22   43    1      3.91      0.00
  -19   43    1      3.32      0.00
  -16   43    1      4.06      0.00
  -13   43    1      1.37      0.00
  -10   43    1     -0.06      0.00
   -7   43    1     -0.90      0.00
   -4   43    1     -0.91      0.00
   -1   43    1      1.11      0.00
  -42   44    1     -0.25      0.00
  -39   44    1      0.13      0.00
  -36   44    1      0.28      0.00
  -33   44    1     -0.67      0.00
  -30   44    1      2.32      0.00
  -27   44    1      1.13      0.00
  -24   44    1      0.67      0.00
  -21   44    1     -1.52      0.00
  -18   44    1     -2.13      0.00
  -15   44    1     -2.85      0.00
  -12   44    1      0.87      0.00
   -9   44    1      5.49      0.00
   -6   44    1      2.57      0.00
   -3   44    1      1.49      0.00
  -41   45    1     -0.40      0.00
  -38   45    1     -0.70      0.00
  -35   45    1     -2.21      0.00
  -32   45    1     -2.06      0.00
  -29   45    1     -1.86      0.00
  -26   45    1      0.19      0.00
  -23   45    1      4.31      0.00
  -20   45    1      3.08      0.00
  -17   45    1      0.66      0.00
  -14   45    1     -2.27      0.00
  -11   45    1     -2.32      0.00
   -8   45    1      0.58      0.00
   -5   45    1      1.41      0.00
  -40   46    1     -0.41      0.00
  -37   46    1      2.40      0.00
  -34   46    1     -0.11      0.00
  -31   46    1     -0.08      0.00
  -28   46    1     -1.99      0.00
  -25   46    1      0.62      0.00
  -22   46    1      0.47      0.00
  -19   46    1      0.94      0.00
  -16   46    1      2.55      0.00
  -13   46    1      3.49      0.00
  -10   46    1      0.05      0.00
   -7   46    1     -1.12      0.00
  -36   47    1      0.89      0.00
  -33   47    1      0.03      0.00
  -30   47    1      0.40      0.00
  -27   47    1      1.01      0.00
  -24   47    1      3.11      0.00
  -21   47    1      0.40      0.00
  -18   47    1     -2.16      0.00
  -15   47    1      0.55      0.00
  -12   47    1      0.48      0.00
   -9   47    1      0.34      0.00
  -35   48    1     -0.45      0.00
  -32   48    1     -0.86      0.00
  -29   48    1     -2.08      0.00
  -26   48    1     -0.85      0.00
  -23   48    1      3.19      0.00
  -20   48    1      4.53      0.00
  -17   48    1      1.30      0.00
  -14   48    1      1.08      0.00
  -31   49    1      1.80      0.00
  -28   49    1     -1.64      0.00
  -25   49    1      0.22      0.00
  -22   49    1      2.77      0.00
  -19   49    1      1.99      0.00
  -16   49    1      1.62      0.00
  -27   50    1     -1.84      0.00
  -24   50    1      1.33      0.00
    0    1    2    -49.02      0.00
   -2    2    2    -86.17      0.00
    1    2    2     26.12      0.00
   -4    3    2     82.07      0.00
   -1    3    2     69.60      0.00
    2    3    2    -53.30      0.00
   -6    4    2     25.28      0.00
   -3    4    2     53.05      0.00
    0    4    2    101.33      0.00
    3    4    2    -50.97      0.00
   -8    5    2    -20.40      0.00
   -5    5    2    -32.87      0.00
   -2    5    2     28.35      0.00
    1    5    2     12.37      0.00
    4    5    2     73.44      0.00
  -10    6    2    -19.11      0.00
   -7    6    2    -33.01      0.00
   -4    6    2     -3.82      0.00
   -1    6    2     26.56      0.00
    2    6    2      2.34      0.00
    5    6    2     30.90      0.00
  -12    7    2    -40.40      0.00
   -9    7    2     -4.98      0.00
   -6    7    2      4.76      0.00
   -3    7    2   -110.85      0.00
    0    7    2    -81.51      0.00
    3    7    2    -53.97      0.00
    6    7    2    -38.91      0.00
  -14    8    2     33.60      0.00
  -11    8    2     39.40      0.00
   -8    8    2    -11.62      0.00
   -5    8    2    -11.10      0.00
   -2    8    2     11.45      0.00
    1    8    2     36.73      0.00
    4    8    2     -9.79      0.00
    7    8    2    -37.00      0.00
  -16    9    2     19.53      0.00
  -13    9    2     -9.90      0.00
  -10    9    2    -59.34      0.00
   -7    9    2      5.41      0.00
   -4    9    2    -27.72      0.00
   -1    9    2     84.25      0.00
    2    9    2     -6.59      0.00
    5    9    2     -5.16      0.00
    8    9    2      9.19      0.00
  -18   10    2     -8.55      0.00
  -15   10    2    -29.56      0.00
  -12   10    2    -16.70      0.00
   -9   10    2     38.99      0.00
   -6   10    2     91.83      0.00
   -3   10    2     -1.13      0.00
    0   10    2    -86.68      0.00
    3   10    2      1.21      0.00
    6   10    2     38.45      0.00
    9   10    2     -9.38      0.00
  -20   11    2     -5.30      0.00
  -17   11    2     -6.62      0.00
  -14   11    2     30.12      0.00
  -11   11    2     28.58      0.00
   -8   11    2     49.14      0.00
   -5   11    2     25.41      0.00
   -2   11    2     38.92      0.00
    1   11    2     26.03      0.00
    4   11    2     17.34      0.00
    7   11    2      9.71      0.00
   10   11    2     -0.25      0.00
  -22   12    2    -16.35      0.00
  -19   12    2     20.17      0.00
  -16   12    2      4.62      0.00
  -13   12    2    -19.03      0.00
  -10   12    2    -47.26      0.00
   -7   12    2    -57.14      0.00
   -4   12    2    -22.36      0.00
   -1   12    2     13.70      0.00
    2   12    2     -6.15      0.00
    5   12    2    -37.83      0.00
    8   12    2     -9.98      0.00
   11   12    2     39.56      0.00
  -24   13    2     14.96      0.00
  -21   13    2     28.63      0.00
  -18   13    2     18.62      0.00
  -15   13    2     -6.81      0.00
  -12   13    2      5.38      0.00
   -9   13    2     12.72      0.00
   -6   13    2     36.98      0.00
   -3   13    2    -44.95      0.00
    0   13    2     -9.01      0.00
    3   13    2      7.18      0.00
    6   13    2     17.29      0.00
    9   13    2    -34.20      0.00
   12   13    2    -38.28      0.00
  -26   14    2     11.19      0.00
  -23   14    2    -15.15      0.00
  -20   14    2    -37.02      0.00
  -17   14    2    -30.66      0.00
  -14   14    2     -2.41      0.00
  -11   14    2     31.46      0.00
   -8   14    2    -25.75      0.00
   -5   14    2    -59.55      0.00
   -2   14    2      1.46      0.00
    1   14    2     14.26      0.00
    4   14    2      2.45      0.00
    7   14    2      5.86      0.00
   10   14    2      4.56      0.00
   13   14    2     -6.40      0.00
  -28   15    2      0.84      0.00
  -25   15    2     -9.71      0.00
  -22   15    2    -12.33      0.00
  -19   15    2     20.53      0.00
  -16   15    2      9.42      0.00
  -13   15    2      0.91      0.00
  -10   15    2    -41.19      0.00
   -7   15    2      1.68      0.00
   -4   15    2     13.98      0.00
   -1   15    2     24.88      0.00
    2   15    2    -35.15      0.00
    5   15    2    -18.62      0.00
    8   15    2     25.56      0.00
   11   15    2     23.57      0.00
   14   15    2      9.98      0.00
  -30   16    2     -3.42      0.00
  -27   16    2     -6.17      0.00
  -24   16    2      9.94      0.00
  -21   16    2     18.31      0.00
  -18   16    2     24.72      0.00
  -15   16    2    -28.04      0.00
  -12   16    2    -25.25      0.00
   -9   16    2     27.07      0.00
   -6   16    2     58.66      0.00
   -3   16    2      0.92      0.00
    0   16    2      4.11      0.00
    3   16    2     14.71      0.00
    6   16    2      7.13      0.00
    9   16    2    -22.92      0.00
   12   16    2    -14.44      0.00
   15   16    2      6.04      0.00
  -32   17    2     -6.94      0.00
  -29   17    2      0.41      0.00
  -26   17    2      0.43      0.00
  -23   17    2    -36.25      0.00
  -20   17    2    -25.47      0.00
  -17   17    2    -15.10      0.00
  -14   17    2     10.34      0.00
  -11   17    2     38.49      0.00
   -8   17    2      9.46      0.00
   -5   17    2    -40.17      0.00
   -2   17    2    -14.68      0.00
    1   17    2      7.98      0.00
    4   17    2     -3.54      0.00
    7   17    2    -13.33      0.00
   10   17    2     -4.79      0.00
   13   17    2      8.49      0.00
   16   17    2      6.21      0.00
  -34   18    2     -0.88      0.00
  -31   18    2      8.64      0.00
  -28   18    2     15.34      0.00
  -25   18    2     21.54      0.00
  -22   18    2     -3.64      0.00
  -19   18    2      9.71      0.00
  -16   18    2     46.99      0.00
  -13   18    2     16.42      0.00
  -10   18    2    -25.49      0.00
   -7   18    2     22.99      0.00
   -4   18    2     19.62      0.00
   -1   18    2      9.21      0.00
    2   18    2    -21.59      0.00
    5   18    2     -7.68      0.00
    8   18    2     19.73      0.00
   11   18    2      0.57      0.00
   14   18    2     -8.49      0.00
   17   18    2    -13.97      0.00
  -36   19    2      6.39      0.00
  -33   19    2      2.30      0.00
  -30   19    2    -23.95      0.00
  -27   19    2     -9.54      0.00
  -24   19    2      6.58      0.00
  -21   19    2     -1.03      0.00
  -18   19    2     -2.68      0.00
  -15   19    2    -27.38      0.00
  -12   19    2    -23.72      0.00
   -9   19    2    -10.56      0.00
   -6   19    2      0.35      0.00
   -3   19    2     -6.88      0.00
    0   19    2    -12.67      0.00
    3   19    2      4.31      0.00
    6   19    2      2.10      0.00
    9   19    2      2.55      0.00
   12   19    2      7.24      0.00
   15   19    2     -8.00      0.00
   18   19    2      3.16      0.00
  -38   20    2     -1.93      0.00
  -35   20    2     -0.48      0.00
  -32   20    2      5.45      0.00
  -29   20    2     -2.49      0.00
  -26   20    2      3.02      0.00
  -23   20    2      7.40      0.00
  -20   20    2    -20.00      0.00
  -17   20    2     -0.93      0.00
  -14   20    2     29.96      0.00
  -11   20    2     32.96      0.00
   -8   20    2     -3.34      0.00
   -5   20    2    -13.38      0.00
   -2   20    2    -12.32      0.00
    1   20    2      5.95      0.00
    4   20    2    -10.66      0.00
    7   20    2     -8.38      0.00
   10   20    2     -9.73      0.00
   13   20    2      6.76      0.00
   16   20    2      8.79      0.00
   19   20    2     -1.94      0.00
  -40   21    2      1.53      0.00
  -37   21    2     -4.02      0.00
  -34   21    2      2.76      0.00
  -31   21    2     10.22      0.00
  -28   21    2      2.69      0.00
  -25   21    2      7.33      0.00
  -22   21    2    -15.83      0.00
  -19   21    2     -0.57      0.00
  -16   21    2     16.71      0.00
  -13   21    2    -19.47      0.00
  -10   21    2    -39.43      0.00
   -7   21    2     10.08      0.00
   -4   21    2     22.82      0.00
   -1   21    2      1.25      0.00
    2   21    2      5.30      0.00
    5   21    2      8.84      0.00
    8   21    2     -1.93      0.00
   11   21    2     -1.12      0.00
   14   21    2     -7.59      0.00
   17   21    2     -6.36      0.00
   20   21    2     -1.48      0.00
  -42   22    2     -2.61      0.00
  -39   22    2     -4.90      0.00
  -36   22    2     -1.22      0.00
  -33   22    2      1.26      0.00
  -30   22    2    -11.92      0.00
  -27   22    2    -22.17      0.00
  -24   22    2     -5.54      0.00
  -21   22    2      7.65      0.00
  -18   22    2     -1.28      0.00
  -15   22    2    -26.26      0.00
  -12   22    2     -4.82      0.00
   -9   22    2     -8.07      0.00
   -6   22    2     11.01      0.00
   -3   22    2    -12.70      0.00
    0   22    2      0.50      0.00
    3   22    2      3.44      0.00
    6   22    2      1.72      0.00
    9   22    2      8.28      0.00
   12   22    2      1.85      0.00
   15   22    2     -2.32      0.00
   18   22    2      6.40      0.00
   21   22    2      3.04      0.00
  -44   23    2      2.21      0.00
  -41   23    2      1.52      0.00
  -38   23    2      3.02      0.00
  -35   23    2      1.55      0.00
  -32   23    2     10.06      0.00
  -29   23    2      2.78      0.00
  -26   23    2     13.16      0.00
  -23   23    2     22.12      0.00
  -20   23    2     -8.57      0.00
  -17   23    2     -4.15      0.00
  -14   23    2     29.92      0.00
  -11   23    2     35.01      0.00
   -8   23    2      6.22      0.00
   -5   23    2     -9.09      0.00
   -2   23    2      5.76      0.00
    1   23    2      3.90      0.00
    4   23    2     -6.11      0.00
    7   23    2     -6.09      0.00
   10   23    2     -8.04      0.00
   13   23    2      4.70      0.00
   16   23    2      3.20      0.00
   19   23    2     -2.92      0.00
   22   23    2     -2.36      0.00
  -46   24    2     -1.20      0.00
  -43   24    2      0.97      0.00
  -40   24    2     -6.09      0.00
  -37   24    2    -12.69      0.00
  -34   24    2     -6.09      0.00
  -31   24    2      2.80      0.00
  -28   24    2     -1.99      0.00
  -25   24    2    -14.23      0.00
  -22   24    2    -11.72      0.00
  -19   24    2     -6.26      0.00
  -16   24    2     -9.68      0.00
  -13   24    2     -9.49      0.00
  -10   24    2    -19.27      0.00
   -7   24    2     -9.58      0.00
   -4   24    2     -2.77      0.00
   -1   24    2     -4.86      0.00
    2   24    2      3.46      0.00
    5   24    2     -1.80      0.00
    8   24    2      0.54      0.00
   11   24    2     11.96      0.00
   14   24    2     -0.18      0.00
   17   24    2     -2.91      0.00
   20   24    2      0.67      0.00
   23   24    2      2.76      0.00
  -48   25    2      3.44      0.00
  -45   25    2      2.35      0.00
  -42   25    2      4.09      0.00
  -39   25    2      3.25      0.00
  -36   25    2      2.08      0.00
  -33   25    2      4.78      0.00
  -30   25    2      2.56      0.00
  -27   25    2    -12.91      0.00
  -24   25    2      6.24      0.00
  -21   25    2     21.23      0.00
  -18   25    2     14.13      0.00
  -15   25    2     -4.33      0.00
  -12   25    2      0.87      0.00
   -9   25    2      5.10      0.00
   -6   25    2     11.64      0.00
   -3   25    2     -1.67      0.00
    0   25    2    -11.83      0.00
    3   25    2    -11.09      0.00
    6   25    2      6.30      0.00
    9   25    2     -1.36      0.00
   12   25    2     -4.40      0.00
   15   25    2      1.89      0.00
   18   25    2      3.63      0.00
   21   25    2     -2.31      0.00
   24   25    2     -1.42      0.00
  -47   26    2     -1.13      0.00
  -44   26    2     -2.69      0.00
  -41   26    2      1.34      0.00
  -38   26    2      5.11      0.00
  -35   26    2     -0.48      0.00
  -32   26    2     -5.31      0.00
  -29   26    2      3.26      0.00
  -26   26    2     12.27      0.00
  -23   26    2      2.04      0.00
  -20   26    2    -14.68      0.00
  -17   26    2     -2.54      0.00
  -14   26    2     -2.33      0.00
  -11   26    2      1.57      0.00
   -8   26    2     -9.46      0.00
   -5   26    2      1.71      0.00
   -2   26    2      0.26      0.00
    1   26    2      1.25      0.00
    4   26    2      9.75      0.00
    7   26    2     -6.18      0.00
   10   26    2     -5.36      0.00
   13   26    2     -0.02      0.00
   16   26    2      3.21      0.00
   19   26    2      1.09      0.00
   22   26    2     -0.96      0.00
  -49   27    2      3.72      0.00
  -46   27    2     -3.32      0.00
  -43   27    2     -4.63      0.00
  -40   27    2     -8.56      0.00
  -37   27    2     -5.41      0.00
  -34   27    2     -5.57      0.00
  -31   27    2      2.75      0.00
  -28   27    2      2.70      0.00
  -25   27    2    -10.64      0.00
  -22   27    2    -10.07      0.00
  -19   27    2     -2.22      0.00
  -16   27    2     -2.21      0.00
  -13   27    2      2.47      0.00
  -10   27    2     -1.94      0.00
   -7   27    2     -5.12      0.00
   -4   27    2    -12.11      0.00
   -1   27    2      5.66      0.00
    2   27    2      5.86      0.00
    5   27    2     -5.16      0.00
    8   27    2      7.69      0.00
   11   27    2      9.47      0.00
   14   27    2     -1.87      0.00
   17   27    2     -4.31      0.00
   20   27    2      2.29      0.00
  -48   28    2      1.83      0.00
  -45   28    2      5.27      0.00
  -42   28    2      3.79      0.00
  -39   28    2      2.26      0.00
  -36   28    2      3.59      0.00
  -33   28    2      4.80      0.00
  -30   28    2      3.37      0.00
  -27   28    2     -3.17      0.00
  -24   28    2     11.41      0.00
  -21   28    2     15.23      0.00
  -18   28    2     11.63      0.00
  -15   28    2     -9.20      0.00
  -12   28    2      7.37      0.00
   -9   28    2     13.55      0.00
   -6   28    2      9.34      0.00
   -3   28    2      8.66      0.00
    0   28    2     -8.53      0.00
    3   28    2     -4.12      0.00
    6   28    2      4.52      0.00
    9   28    2     -2.74      0.00
   12   28    2     -3.08      0.00
   15   28    2      0.33      0.00
   18   28    2     -2.12      0.00
   21   28    2     -4.61      0.00
  -47   29    2     -4.00      0.00
  -44   29    2     -2.59      0.00
  -41   29    2     -2.34      0.00
  -38   29    2      0.73      0.00
  -35   29    2    -11.85      0.00
  -32   29    2    -14.59      0.00
  -29   29    2     -4.24      0.00
  -26   29    2     -3.03      0.00
  -23   29    2     -4.68      0.00
  -20   29    2    -12.46      0.00
  -17   29    2    -11.97      0.00
  -14   29    2    -10.70      0.00
  -11   29    2     -4.81      0.00
   -8   29    2     -3.28      0.00
   -5   29    2      0.70      0.00
   -2   29    2     -5.63      0.00
    1   29    2      2.54      0.00
    4   29    2      2.79      0.00
    7   29    2     -2.33      0.00
   10   29    2     -0.08      0.00
   13   29    2      3.10      0.00
   16   29    2      1.90      0.00
   19   29    2      0.69      0.00
  -49   30    2      2.82      0.00
  -46   30    2      1.47      0.00
  -43   30    2     -0.32      0.00
  -40   30    2      2.32      0.00
  -37   30    2      3.31      0.00
  -34   30    2      5.38      0.00
  -31   30    2      9.35      0.00
  -28   30    2     -4.20      0.00
  -25   30    2      2.30      0.00
  -22   30    2     -1.84      0.00
  -19   30    2      3.48      0.00
  -16   30    2     14.09      0.00
  -13   30    2      8.73      0.00
  -10   30    2      0.13      0.00
   -7   30    2     -3.73      0.00
   -4   30    2      5.77      0.00
   -1   30    2      9.50      0.00
    2   30    2     -5.70      0.00
    5   30    2     -4.45      0.00
    8   30    2      4.99      0.00
   11   30    2      4.42      0.00
   14   30    2     -3.09      0.00
   17   30    2     -3.60      0.00
  -48   31    2      0.91      0.00
  -45   31    2      2.72      0.00
  -42   31    2     -1.61      0.00
  -39   31    2     -0.17      0.00
  -36   31    2      5.20      0.00
  -33   31    2      7.65      0.00
  -30   31    2     -3.12      0.00
  -27   31    2     -4.39      0.00
  -24   31    2      2.35      0.00
  -21   31    2      0.96      0.00
  -18   31    2      3.25      0.00
  -15   31    2     -5.08      0.00
  -12   31    2     -6.14      0.00
   -9   31    2    -12.54      0.00
   -6   31    2      4.69      0.00
   -3   31    2      1.11      0.00
    0   31    2     -2.93      0.00
    3   31    2      7.04      0.00
    6   31    2      0.66      0.00
    9   31    2     -1.91      0.00
   12   31    2     -2.59      0.00
   15   31    2     -0.27      0.00
  -47   32    2     -2.80      0.00
  -44   32    2     -6.10      0.00
  -41   32    2     -3.34      0.00
  -38   32    2     -3.18      0.00
  -35   32    2     -8.28      0.00
  -32   32    2     -5.22      0.00
  -29   32    2     -2.14      0.00
  -26   32    2      1.45      0.00
  -23   32    2     -1.45      0.00
  -20   32    2    -10.37      0.00
  -17   32    2     -5.48      0.00
  -14   32    2     -6.02      0.00
  -11   32    2      6.70      0.00
   -8   32    2      6.64      0.00
   -5   32    2    -20.03      0.00
   -2   32    2    -13.36      0.00
    1   32    2      4.50      0.00
    4   32    2     -0.24      0.00
    7   32    2     -2.29      0.00
   10   32    2     -0.14      0.00
   13   32    2      2.60      0.00
   16   32    2     -0.38      0.00
  -46   33    2     -0.72      0.00
  -43   33    2      4.43      0.00
  -40   33    2      3.93      0.00
  -37   33    2      2.36      0.00
  -34   33    2      2.07      0.00
  -31   33    2      5.35      0.00
  -28   33    2      4.95      0.00
  -25   33    2      1.83      0.00
  -22   33    2      3.31      0.00
  -19   33    2      1.89      0.00
  -16   33    2      1.29      0.00
  -13   33    2      9.96      0.00
  -10   33    2      7.17      0.00
   -7   33    2      2.83      0.00
   -4   33    2      6.75      0.00
   -1   33    2     -0.76      0.00
    2   33    2     -6.53      0.00
    5   33    2     -2.46      0.00
    8   33    2      2.44      0.00
   11   33    2      0.49      0.00
   14   33    2     -0.69      0.00
  -48   34    2     -2.87      0.00
  -45   34    2     -3.44      0.00
  -42   34    2     -2.85      0.00
  -39   34    2     -1.90      0.00
  -36   34    2     -1.95      0.00
  -33   34    2     -3.52      0.00
  -30   34    2     -0.96      0.00
  -27   34    2     -7.22      0.00
  -24   34    2     -3.12      0.00
  -21   34    2     -3.17      0.00
  -18   34    2      2.10      0.00
  -15   34    2      1.21      0.00
  -12   34    2     -7.53      0.00
   -9   34    2    -11.11      0.00
   -6   34    2      4.42      0.00
   -3   34    2      5.16      0.00
    0   34    2     -0.15      0.00
    3   34    2      0.96      0.00
    6   34    2     -1.27      0.00
    9   34    2     -1.85      0.00
   12   34    2      0.72      0.00
  -47   35    2     -6.59      0.00
  -44   35    2     -0.77      0.00
  -41   35    2      1.52      0.00
  -38   35    2      2.46      0.00
  -35   35    2     -1.43      0.00
  -32   35    2      4.05      0.00
  -29   35    2      3.60      0.00
  -26   35    2     -0.33      0.00
  -23   35    2      3.44      0.00
  -20   35    2     -4.82      0.00
  -17   35    2     -0.37      0.00
  -14   35    2      6.51      0.00
  -11   35    2     13.19      0.00
   -8   35    2      1.42      0.00
   -5   35    2    -11.45      0.00
   -2   35    2     -1.56      0.00
    1   35    2      4.51      0.00
    4   35    2     -1.45      0.00
    7   35    2     -5.28      0.00
   10   35    2     -0.77      0.00
  -46   36    2     -0.20      0.00
  -43   36    2      2.64      0.00
  -40   36    2     -1.09      0.00
  -37   36    2      0.77      0.00
  -34   36    2      0.29      0.00
  -31   36    2      1.63      0.00
  -28   36    2     -1.49      0.00
  -25   36    2      1.34      0.00
  -22   36    2     -0.92      0.00
  -19   36    2     -4.94      0.00
  -16   36    2     -4.42      0.00
  -13   36    2      3.55      0.00
  -10   36    2     -3.51      0.00
   -7   36    2      2.66      0.00
   -4   36    2      2.55      0.00
   -1   36    2     -5.12      0.00
    2   36    2      1.42      0.00
    5   36    2      1.91      0.00
    8   36    2      2.31      0.00
   11   36    2     -0.94      0.00
  -45   37    2     -1.55      0.00
  -42   37    2     -4.42      0.00
  -39   37    2      0.20      0.00
  -36   37    2     -1.21      0.00
  -33   37    2     -2.29      0.00
  -30   37    2     -2.01      0.00
  -27   37    2     -1.87      0.00
  -24   37    2     -2.77      0.00
  -21   37    2     -2.22      0.00
  -18   37    2      8.00      0.00
  -15   37    2     -1.45      0.00
  -12   37    2    -10.54      0.00
   -9   37    2      1.30      0.00
   -6   37    2      2.17      0.00
   -3   37    2     -0.40      0.00
    0   37    2     -2.11      0.00
    3   37    2     -2.88      0.00
    6   37    2      0.87      0.00
    9   37    2     -0.50      0.00
  -44   38    2      2.09      0.00
  -41   38    2      2.60      0.00
  -38   38    2      6.01      0.00
  -35   38    2      2.41      0.00
  -32   38    2     -0.39      0.00
  -29   38    2      1.54      0.00
  -26   38    2      0.89      0.00
  -23   38    2      1.33      0.00
  -20   38    2      3.75      0.00
  -17   38    2     -3.62      0.00
  -14   38    2      1.77      0.00
  -11   38    2      6.01      0.00
   -8   38    2     -2.10      0.00
   -5   38    2     -0.57      0.00
   -2   38    2      4.04      0.00
    1   38    2      0.42      0.00
    4   38    2     -3.30      0.00
    7   38    2     -1.87      0.00
  -43   39    2     -3.14      0.00
  -40   39    2     -4.52      0.00
  -37   39    2     -4.39      0.00
  -34   39    2     -4.11      0.00
  -31   39    2     -2.96      0.00
  -28   39    2     -1.91      0.00
  -25   39    2     -1.97      0.00
  -22   39    2     -3.94      0.00
  -19   39    2     -6.46      0.00
  -16   39    2      1.79      0.00
  -13   39    2      1.11      0.00
  -10   39    2     -6.89      0.00
   -7   39    2     -4.70      0.00
   -4   39    2      2.61      0.00
   -1   39    2     -0.01      0.00
    2   39    2     -1.23      0.00
    5   39    2      0.56      0.00
  -45   40    2      1.20      0.00
  -42   40    2     -0.17      0.00
  -39   40    2     -2.61      0.00
  -36   40    2     -3.03      0.00
  -33   40    2      1.82      0.00
  -30   40    2      3.84      0.00
  -27   40    2     -0.86      0.00
  -24   40    2     -4.19      0.00
  -21   40    2     -0.03      0.00
  -18   40    2      6.18      0.00
  -15   40    2      0.41      0.00
  -12   40    2      0.18      0.00
   -9   40    2      2.37      0.00
   -6   40    2      0.20      0.00
   -3   40    2     -1.84      0.00
    0   40    2     -1.56      0.00
    3   40    2      1.06      0.00
  -44   41    2      3.20      0.00
  -41   41    2     -0.67      0.00
  -38   41    2      0.45      0.00
  -35   41    2     -1.79      0.00
  -32   41    2      1.71      0.00
  -29   41    2     -2.72      0.00
  -26   41    2     -1.55      0.00
  -23   41    2      3.62      0.00
  -20   41    2      0.28      0.00
  -17   41    2     -4.15      0.00
  -14   41    2     -2.46      0.00
  -11   41    2     -2.34      0.00
   -8   41    2     -0.62      0.00
   -5   41    2      2.68      0.00
   -2   41    2      1.21      0.00
    1   41    2      1.04      0.00
  -43   42    2     -1.92      0.00
  -40   42    2     -2.83      0.00
  -37   42    2     -2.71      0.00
  -34   42    2      0.68      0.00
  -31   42    2     -3.20      0.00
  -28   42    2     -0.50      0.00
  -25   42    2      1.33      0.00
  -22   42    2     -6.86      0.00
  -19   42    2     -0.99      0.00
  -16   42    2      3.11      0.00
  -13   42    2     -1.51      0.00
  -10   42    2     -3.80      0.00
   -7   42    2     -1.82      0.00
   -4   42    2      0.83      0.00
   -1   42    2      0.01      0.00
  -42   43    2     -1.23      0.00
  -39   43    2      2.02      0.00
  -36   43    2      0.19      0.00
  -33   43    2      3.63      0.00
  -30   43    2      0.46      0.00
  -27   43    2      0.26      0.00
  -24   43    2      0.57      0.00
  -21   43    2      3.28      0.00
  -18   43    2     -0.59      0.00
  -15   43    2     -2.26      0.00
  -12   43    2      1.28      0.00
   -9   43    2      1.60      0.00
   -6   43    2     -2.31      0.00
   -3   43    2      0.39      0.00
  -41   44    2     -2.41      0.00
  -38   44    2     -0.81      0.00
  -35   44    2      0.88      0.00
  -32   44    2     -4.22      0.00
  -29   44    2     -2.84      0.00
  -26   44    2      1.57      0.00
  -23   44    2      3.87      0.00
  -20   44    2     -0.63      0.00
  -17   44    2     -2.65      0.00
  -14   44    2     -3.89      0.00
  -11   44    2     -2.32      0.00
   -8   44    2     -1.98      0.00
   -5   44    2     -0.01      0.00
  -40   45    2      2.16      0.00
  -37   45    2     -0.42      0.00
  -34   45    2     -0.98      0.00
  -31   45    2      1.02      0.00
  -28   45    2      0.46      0.00
  -25   45    2     -1.46      0.00
  -22   45    2     -2.80      0.00
  -19   45    2      2.40      0.00
  -16   45    2      4.07      0.00
  -13   45    2      0.77      0.00
  -10   45    2      2.13      0.00
   -7   45    2      1.10      0.00
  -36   46    2      0.40      0.00
  -33   46    2     -1.93      0.00
  -30   46    2      0.35      0.00
  -27   46    2     -3.22      0.00
  -24   46    2      2.07      0.00
  -21   46    2      2.66      0.00
  -18   46    2      2.54      0.00
  -15   46    2     -1.82      0.00
  -12   46    2      0.42      0.00
   -9   46    2     -0.35      0.00
  -35   47    2      0.32      0.00
  -32   47    2     -0.69      0.00
  -29   47    2     -5.68      0.00
  -26   47    2     -1.13      0.00
  -23   47    2      0.23      0.00
  -20   47    2      2.17      0.00
  -17   47    2      1.03      0.00
  -14   47    2      0.76      0.00
  -11   47    2     -0.46      0.00
  -34   48    2      0.05      0.00
  -31   48    2      1.66      0.00
  -28   48    2     -5.06      0.00
  -25   48    2     -2.53      0.00
  -22   48    2     -0.98      0.00
  -19   48    2      0.09      0.00
  -16   48    2      0.00      0.00
  -30   49    2     -3.02      0.00
  -27   49    2      1.35      0.00
  -24   49    2      3.09      0.00
  -21   49    2      1.42      0.00
    0    0    3     31.60      0.00
    1    1    3     67.83      0.00
   -1    2    3   -115.04      0.00
    2    2    3      5.46      0.00
   -3    3    3     38.54      0.00
    0    3    3     15.43      0.00
    3    3    3     15.09      0.00
   -5    4    3     30.83      0.00
   -2    4    3     61.06      0.00
    1    4    3    -39.57      0.00
    4    4    3    -52.11      0.00
   -7    5    3     53.52      0.00
   -4    5    3      1.80      0.00
   -1    5    3    -36.01      0.00
    2    5    3     32.19      0.00
    5    5    3     68.22      0.00
   -9    6    3     28.34      0.00
   -6    6    3   -131.05      0.00
   -3    6    3    -93.85      0.00
    0    6    3      3.71      0.00
    3    6    3     35.54      0.00
    6    6    3    -19.38      0.00
  -11    7    3    -24.12      0.00
   -8    7    3    -36.79      0.00
   -5    7    3     54.89      0.00
   -2    7    3     43.52      0.00
    1    7    3    -57.97      0.00
    4    7    3    -85.41      0.00
    7    7    3      2.07      0.00
  -13    8    3    -23.63      0.00
  -10    8    3     33.21      0.00
   -7    8    3     13.69      0.00
   -4    8    3     12.17      0.00
   -1    8    3     19.54      0.00
    2    8    3    -21.22      0.00
    5    8    3     36.25      0.00
    8    8    3     28.00      0.00
  -15    9    3     -1.39      0.00
  -12    9    3     13.61      0.00
   -9    9    3    -23.89      0.00
   -6    9    3    -51.76      0.00
   -3    9    3    -53.01      0.00
    0    9    3     44.16      0.00
    3    9    3     43.51      0.00
    6    9    3    -31.66      0.00
    9    9    3    -27.81      0.00
  -17   10    3     39.77      0.00
  -14   10    3     26.35      0.00
  -11   10    3     15.62      0.00
   -8   10    3     48.62      0.00
   -5   10    3     75.62      0.00
   -2   10    3     47.48      0.00
    1   10    3    -38.62      0.00
    4   10    3     18.91      0.00
    7   10    3      4.15      0.00
   10   10    3     -2.88      0.00
  -19   11    3     16.22      0.00
  -16   11    3    -23.76      0.00
  -13   11    3    -61.73      0.00
  -10   11    3    -17.33      0.00
   -7   11    3     35.83      0.00
   -4   11    3    -53.62      0.00
   -1   11    3    -60.56      0.00
    2   11    3    -11.78      0.00
    5   11    3     22.26      0.00
    8   11    3     30.85      0.00
   11   11    3     18.19      0.00
  -21   12    3      3.29      0.00
  -18   12    3     -3.84      0.00
  -15   12    3     21.74      0.00
  -12   12    3     38.44      0.00
   -9   12    3    -11.00      0.00
   -6   12    3    -30.00      0.00
   -3   12    3      6.34      0.00
    0   12    3     41.67      0.00
    3   12    3      8.42      0.00
    6   12    3    -46.74      0.00
    9   12    3    -21.07      0.00
   12   12    3     11.15      0.00
  -23   13    3    -13.78      0.00
  -20   13    3    -25.25      0.00
  -17   13    3     10.56      0.00
  -14   13    3     29.09      0.00
  -11   13    3    -24.92      0.00
   -8   13    3    -37.99      0.00
   -5   13    3     20.91      0.00
   -2   13    3     54.50      0.00
    1   13    3    -21.72      0.00
    4   13    3    -11.23      0.00
    7   13    3     -0.06      0.00
   10   13    3     -4.96      0.00
   13   13    3      0.72      0.00
  -25   14    3     -6.82      0.00
  -22   14    3      9.04      0.00
  -19   14    3     -7.10      0.00
  -16   14    3    -27.37      0.00
  -13   14    3    -12.40      0.00
  -10   14    3     -8.86      0.00
   -7   14    3     24.64      0.00
   -4   14    3    -38.49      0.00
   -1   14    3    -54.15      0.00
    2   14    3     -4.14      0.00
    5   14    3     35.93      0.00
    8   14    3      8.61      0.00
   11   14    3     -9.31      0.00
   14   14    3     -5.48      0.00
  -27   15    3      2.13      0.00
  -24   15    3     15.98      0.00
  -21   15    3      3.03      0.00
  -18   15    3     -6.81      0.00
  -15   15    3     25.37      0.00
  -12   15    3     66.14      0.00
   -9   15    3     27.80      0.00
   -6   15    3      1.30      0.00
   -3   15    3     16.84      0.00
    0   15    3     20.32      0.00
    3   15    3     19.16      0.00
    6   15    3     10.25      0.00
    9   15    3     -3.55      0.00
   12   15    3      5.79      0.00
   15   15    3     -3.68      0.00
  -29   16    3      6.86      0.00
  -26   16    3    -13.20      0.00
  -23   16    3    -17.90      0.00
  -20   16    3     -6.27      0.00
  -17   16    3      1.37      0.00
  -14   16    3      6.42      0.00
  -11   16    3    -39.12      0.00
   -8   16    3    -26.18      0.00
   -5   16    3     11.16      0.00
   -2   16    3     23.62      0.00
    1   16    3    -23.42      0.00
    4   16    3    -21.61      0.00
    7   16    3     -5.31      0.00
   10   16    3     16.19      0.00
   13   16    3     10.66      0.00
   16   16    3     -0.53      0.00
  -31   17    3      4.73      0.00
  -28   17    3      1.88      0.00
  -25   17    3     -0.90      0.00
  -22   17    3     14.14      0.00
  -19   17    3     26.69      0.00
  -16   17    3     -9.91      0.00
  -13   17    3     -0.61      0.00
  -10   17    3     30.55      0.00
   -7   17    3     31.55      0.00
   -4   17    3    -15.28      0.00
   -1   17    3     -1.58      0.00
    2   17    3      0.55      0.00
    5   17    3      1.11      0.00
    8   17    3    -13.70      0.00
   11   17    3     -8.28      0.00
   14   17    3     -5.52      0.00
   17   17    3     -1.43      0.00
  -33   18    3      3.90      0.00
  -30   18    3     -1.77      0.00
  -27   18    3     -1.07      0.00
  -24   18    3      4.71      0.00
  -21   18    3     -3.66      0.00
  -18   18    3    -30.19      0.00
  -15   18    3     -5.74      0.00
  -12   18    3     30.38      0.00
   -9   18    3    -13.69      0.00
   -6   18    3    -46.25      0.00
   -3   18    3      1.95      0.00
    0   18    3     15.88      0.00
    3   18    3     22.33      0.00
    6   18    3     12.83      0.00
    9   18    3      7.46      0.00
   12   18    3     -7.79      0.00
   15   18    3      3.04      0.00
   18   18    3      7.60      0.00
  -35   19    3     -7.08      0.00
  -32   19    3     -2.18      0.00
  -29   19    3      4.03      0.00
  -26   19    3      3.32      0.00
  -23   19    3     -9.80      0.00
  -20   19    3      1.62      0.00
  -17   19    3      8.43      0.00
  -14   19    3    -13.13      0.00
  -11   19    3    -35.45      0.00
   -8   19    3    -10.23      0.00
   -5   19    3     18.83      0.00
   -2   19    3      7.97      0.00
    1   19    3    -18.36      0.00
    4   19    3    -17.68      0.00
    7   19    3      2.65      0.00
   10   19    3      3.64      0.00
   13   19    3      8.23      0.00
   16   19    3     -6.83      0.00
   19   19    3     -3.38      0.00
  -37   20    3      2.12      0.00
  -34   20    3      5.21      0.00
  -31   20    3      3.75      0.00
  -28   20    3     -0.86      0.00
  -25   20    3     -4.49      0.00
  -22   20    3      8.35      0.00
  -19   20    3     20.63      0.00
  -16   20    3    -13.28      0.00
  -13   20    3    -16.71      0.00
  -10   20    3     27.21      0.00
   -7   20    3     35.16      0.00
   -4   20    3      6.94      0.00
   -1   20    3     -2.42      0.00
    2   20    3      1.44      0.00
    5   20    3     -7.69      0.00
    8   20    3     -1.14      0.00
   11   20    3      3.79      0.00
   14   20    3     -0.94      0.00
   17   20    3      0.17      0.00
   20   20    3      1.10      0.00
  -39   21    3      0.11      0.00
  -36   21    3      4.23      0.00
  -33   21    3     -4.57      0.00
  -30   21    3    -15.26      0.00
  -27   21    3     -5.49      0.00
  -24   21    3     -2.03      0.00
  -21   21    3    -14.44      0.00
  -18   21    3    -16.96      0.00
  -15   21    3      4.83      0.00
  -12   21    3     16.39      0.00
   -9   21    3    -21.52      0.00
   -6   21    3    -27.96      0.00
   -3   21    3    -17.80      0.00
    0   21    3     13.68      0.00
    3   21    3     10.35      0.00
    6   21    3      8.50      0.00
    9   21    3     -5.06      0.00
   12   21    3      0.39      0.00
   15   21    3      8.37      0.00
   18   21    3      2.59      0.00
   21   21    3     -4.69      0.00
  -41   22    3      1.89      0.00
  -38   22    3      2.02      0.00
  -35   22    3     -2.60      0.00
  -32   22    3     -2.50      0.00
  -29   22    3     10.38      0.00
  -26   22    3      9.89      0.00
  -23   22    3    -15.47      0.00
  -20   22    3     -0.84      0.00
  -17   22    3     30.08      0.00
  -14   22    3     11.22      0.00
  -11   22    3      2.90      0.00
   -8   22    3     11.90      0.00
   -5   22    3     18.73      0.00
   -2   22    3     12.21      0.00
    1   22    3     -4.06      0.00
    4   22    3     -9.22      0.00
    7   22    3    -12.22      0.00
   10   22    3     -2.98      0.00
   13   22    3      0.35      0.00
   16   22    3     -7.07      0.00
   19   22    3     -0.43      0.00
   22   22    3      2.83      0.00
  -43   23    3      0.80      0.00
  -40   23    3     -6.72      0.00
  -37   23    3     -4.49      0.00
  -34   23    3      7.45      0.00
  -31   23    3     12.27      0.00
  -28   23    3     -1.42      0.00
  -25   23    3     -8.04      0.00
  -22   23    3     10.98      0.00
  -19   23    3     -1.60      0.00
  -16   23    3    -23.91      0.00
  -13   23    3     -7.88      0.00
  -10   23    3      6.82      0.00
   -7   23    3      9.06      0.00
   -4   23    3     -7.28      0.00
   -1   23    3     -6.84      0.00
    2   23    3     -4.83      0.00
    5   23    3      1.42      0.00
    8   23    3     15.48      0.00
   11   23    3      1.22      0.00
   14   23    3     -6.56      0.00
   17   23    3      1.52      0.00
   20   23    3      2.88      0.00
   23   23    3      2.31      0.00
  -45   24    3      0.91      0.00
  -42   24    3     -0.23      0.00
  -39   24    3     -1.64      0.00
  -36   24    3     -0.59      0.00
  -33   24    3     -4.40      0.00
  -30   24    3     -9.04      0.00
  -27   24    3      2.39      0.00
  -24   24    3     18.74      0.00
  -21   24    3      1.68      0.00
  -18   24    3     -1.51      0.00
  -15   24    3      3.74      0.00
  -12   24    3      8.25      0.00
   -9   24    3    -10.52      0.00
   -6   24    3     -6.12      0.00
   -3   24    3    -11.53      0.00
    0   24    3    -11.37      0.00
    3   24    3      7.64      0.00
    6   24    3      7.30      0.00
    9   24    3     -9.79      0.00
   12   24    3      2.73      0.00
   15   24    3      2.90      0.00
   18   24    3     -3.49      0.00
   21   24    3     -3.33      0.00
   24   24    3      0.88      0.00
  -47   25    3     -0.34      0.00
  -44   25    3      4.84      0.00
  -41   25    3      6.36      0.00
  -38   25    3      3.98      0.00
  -35   25    3     -2.98      0.00
  -32   25    3     -0.53      0.00
  -29   25    3      5.99      0.00
  -26   25    3     -4.08      0.00
  -23   25    3    -13.96      0.00
  -20   25    3     -2.90      0.00
  -17   25    3     10.29      0.00
  -14   25    3     -5.58      0.00
  -11   25    3    -10.53      0.00
   -8   25    3      1.47      0.00
   -5   25    3     15.86      0.00
   -2   25    3      9.53      0.00
    1   25    3      5.64      0.00
    4   25    3    -10.39      0.00
    7   25    3    -11.77      0.00
   10   25    3      2.89      0.00
   13   25    3     -0.02      0.00
   16   25    3     -0.33      0.00
   19   25    3      0.86      0.00
   22   25    3      1.76      0.00
  -46   26    3      0.16      0.00
  -43   26    3     -0.24      0.00
  -40   26    3     -5.69      0.00
  -37   26    3      0.32      0.00
  -34   26    3      8.74      0.00
  -31   26    3      4.64      0.00
  -28   26    3    -12.60      0.00
  -25   26    3     -4.63      0.00
  -22   26    3      9.95      0.00
  -19   26    3     -5.31      0.00
  -16   26    3    -21.15      0.00
  -13   26    3     -6.33      0.00
  -10   26    3     -3.18      0.00
   -7   26    3     -4.02      0.00
   -4   26    3     -4.18      0.00
   -1   26    3      0.44      0.00
    2   26    3     -5.04      0.00
    5   26    3      4.27      0.00
    8   26    3      8.63      0.00
   11   26    3     -1.47      0.00
   14   26    3     -3.60      0.00
   17   26    3      1.04      0.00
   20   26    3      2.07      0.00
  -48   27    3      0.13      0.00
  -45   27    3      2.19      0.00
  -42   27    3     -1.58      0.00
  -39   27    3      3.34      0.00
  -36   27    3      6.22      0.00
  -33   27    3     -3.68      0.00
  -30   27    3     -5.05      0.00
  -27   27    3      9.87      0.00
  -24   27    3     10.42      0.00
  -21   27    3     -0.18      0.00
  -18   27    3     -2.75      0.00
  -15   27    3      1.86      0.00
  -12   27    3     18.57      0.00
   -9   27    3      5.66      0.00
   -6   27    3     -0.23      0.00
   -3   27    3     -5.99      0.00
    0   27    3     -5.58      0.00
    3   27    3     11.92      0.00
    6   27    3     -2.50      0.00
    9   27    3     -4.13      0.00
   12   27    3      2.86      0.00
   15   27    3      0.53      0.00
   18   27    3     -5.65      0.00
   21   27    3     -3.94      0.00
  -47   28    3     -3.69      0.00
  -44   28    3      0.14      0.00
  -41   28    3      2.97      0.00
  -38   28    3     -1.17      0.00
  -35   28    3    -11.31      0.00
  -32   28    3      2.40      0.00
  -29   28    3     11.38      0.00
  -26   28    3    -10.93      0.00
  -23   28    3    -12.70      0.00
  -20   28    3     -3.34      0.00
  -17   28    3      2.78      0.00
  -14   28    3     -7.02      0.00
  -11   28    3     -7.08      0.00
   -8   28    3     -9.39      0.00
   -5   28    3     -1.54      0.00
   -2   28    3      8.88      0.00
    1   28    3      3.98      0.00
    4   28    3    -10.40      0.00
    7   28    3      5.14      0.00
   10   28    3      7.35      0.00
   13   28    3      2.40      0.00
   16   28    3     -0.70      0.00
   19   28    3      1.17      0.00
  -46   29    3      0.79      0.00
  -43   29    3      0.61      0.00
  -40   29    3     -2.35      0.00
  -37   29    3     -1.14      0.00
  -34   29    3      3.15      0.00
  -31   29    3     -1.16      0.00
  -28   29    3     -6.59      0.00
  -25   29    3      4.65      0.00
  -22   29    3     11.38      0.00
  -19   29    3     10.80      0.00
  -16   29    3      0.71      0.00
  -13   29    3     -1.27      0.00
  -10   29    3     -4.98      0.00
   -7   29    3      3.13      0.00
   -4   29    3     12.46      0.00
   -1   29    3    -11.03      0.00
    2   29    3    -11.76      0.00
    5   29    3      2.51      0.00
    8   29    3      0.71      0.00
   11   29    3     -1.97      0.00
   14   29    3     -0.41      0.00
   17   29    3      1.15      0.00
  -45   30    3      0.05      0.00
  -42   30    3     -1.50      0.00
  -39   30    3      7.62      0.00
  -36   30    3      9.53      0.00
  -33   30    3      2.53      0.00
  -30   30    3     -4.38      0.00
  -27   30    3      3.76      0.00
  -24   30    3      1.40      0.00
  -21   30    3    -13.48      0.00
  -18   30    3     -4.19      0.00
  -15   30    3     -0.59      0.00
  -12   30    3      3.62      0.00
   -9   30    3      2.01      0.00
   -6   30    3      1.39      0.00
   -3   30    3     -7.76      0.00
    0   30    3      6.41      0.00
    3   30    3      5.87      0.00
    6   30    3     -6.84      0.00
    9   30    3     -6.13      0.00
   12   30    3      2.46      0.00
   15   30    3      1.65      0.00
   18   30    3     -0.05      0.00
  -47   31    3     -4.21      0.00
  -44   31    3     -0.63      0.00
  -41   31    3      0.51      0.00
  -38   31    3     -3.34      0.00
  -35   31    3      1.54      0.00
  -32   31    3      8.13      0.00
  -29   31    3      5.08      0.00
  -26   31    3     -0.50      0.00
  -23   31    3     -7.13      0.00
  -20   31    3     -3.69      0.00
  -17   31    3      0.13      0.00
  -14   31    3     -2.67      0.00
  -11   31    3      3.58      0.00
   -8   31    3     -9.52      0.00
   -5   31    3    -10.74      0.00
   -2   31    3      9.61      0.00
    1   31    3      4.30      0.00
    4   31    3     -1.81      0.00
    7   31    3      3.08      0.00
   10   31    3      2.53      0.00
   13   31    3     -0.76      0.00
   16   31    3      0.13      0.00
  -46   32    3      4.15      0.00
  -43   32    3     -0.49      0.00
  -40   32    3     -4.79      0.00
  -37   32    3     -0.84      0.00
  -34   32    3      4.83      0.00
  -31   32    3     -4.05      0.00
  -28   32    3      0.60      0.00
  -25   32    3      7.51      0.00
  -22   32    3      7.05      0.00
  -19   32    3      3.00      0.00
  -16   32    3     -1.36      0.00
  -13   32    3     -5.42      0.00
  -10   32    3      4.44      0.00
   -7   32    3     15.01      0.00
   -4   32    3      5.81      0.00
   -1   32    3    -12.72      0.00
    2   32    3     -4.82      0.00
    5   32    3      2.11      0.00
    8   32    3     -2.00      0.00
   11   32    3     -3.30      0.00
   14   32    3     -0.86      0.00
  -45   33    3     -1.91      0.00
  -42   33    3     -2.05      0.00
  -39   33    3      2.66      0.00
  -36   33    3     -0.52      0.00
  -33   33    3     -6.41      0.00
  -30   33    3     -0.96      0.00
  -27   33    3      0.78      0.00
  -24   33    3     -3.90      0.00
  -21   33    3    -11.90      0.00
  -18   33    3     -1.53      0.00
  -15   33    3     -4.59      0.00
  -12   33    3     -2.60      0.00
   -9   33    3      0.94      0.00
   -6   33    3     -5.88      0.00
   -3   33    3     -1.13      0.00
    0   33    3      3.96      0.00
    3   33    3     -0.72      0.00
    6   33    3     -0.68      0.00
    9   33    3     -0.29      0.00
   12   33    3      1.83      0.00
  -47   34    3      0.87      0.00
  -44   34    3      3.81      0.00
  -41   34    3      6.37      0.00
  -38   34    3     -3.62      0.00
  -35   34    3     -3.39      0.00
  -32   34    3      1.78      0.00
  -29   34    3     -1.80      0.00
  -26   34    3     -0.64      0.00
  -23   34    3      5.28      0.00
  -20   34    3     -1.55      0.00
  -17   34    3      8.04      0.00
  -14   34    3     10.10      0.00
  -11   34    3      5.83      0.00
   -8   34    3    -14.34      0.00
   -5   34    3      0.42      0.00
   -2   34    3      6.58      0.00
    1   34    3     -2.26      0.00
    4   34    3     -0.01      0.00
    7   34    3      2.75      0.00
   10   34    3      1.00      0.00
   13   34    3     -2.53      0.00
  -46   35    3      0.46      0.00
  -43   35    3     -0.37      0.00
  -40   35    3     -0.57      0.00
  -37   35    3      2.28      0.00
  -34   35    3      4.23      0.00
  -31   35    3     -1.75      0.00
  -28   35    3     -8.91      0.00
  -25   35    3     -1.28      0.00
  -22   35    3     -0.02      0.00
  -19   35    3     -1.90      0.00
  -16   35    3     -1.54      0.00
  -13   35    3     -7.88      0.00
  -10   35    3      1.58      0.00
   -7   35    3     15.32      0.00
   -4   35    3      0.44      0.00
   -1   35    3     -6.64      0.00
    2   35    3      1.50      0.00
    5   35    3      1.95      0.00
    8   35    3     -2.45      0.00
   11   35    3     -2.89      0.00
  -45   36    3     -4.99      0.00
  -42   36    3      0.57      0.00
  -39   36    3     -1.02      0.00
  -36   36    3     -1.00      0.00
  -33   36    3      2.06      0.00
  -30   36    3      1.75      0.00
  -27   36    3     -4.62      0.00
  -24   36    3     -4.48      0.00
  -18   36    3      1.13      0.00
  -15   36    3     -8.65      0.00
  -12   36    3      2.32      0.00
   -9   36    3     -1.00      0.00
   -6   36    3     -5.71      0.00
   -3   36    3      0.24      0.00
    0   36    3      1.75      0.00
    3   36    3      0.19      0.00
    6   36    3     -0.42      0.00
    9   36    3      1.59      0.00
  -44   37    3      4.89      0.00
  -41   37    3      3.37      0.00
  -38   37    3     -0.56      0.00
  -35   37    3     -2.42      0.00
  -32   37    3      0.06      0.00
  -29   37    3      3.44      0.00
  -26   37    3      3.22      0.00
  -23   37    3      2.97      0.00
  -20   37    3     -6.43      0.00
  -17   37    3      3.20      0.00
  -14   37    3      8.84      0.00
  -11   37    3     -2.33      0.00
   -8   37    3     -4.12      0.00
   -5   37    3      1.88      0.00
   -2   37    3      2.24      0.00
    1   37    3     -0.66      0.00
    4   37    3     -0.56      0.00
    7   37    3      1.54      0.00
  -43   38    3     -2.39      0.00
  -40   38    3     -1.11      0.00
  -37   38    3      4.12      0.00
  -34   38    3     -1.14      0.00
  -31   38    3     -2.47      0.00
  -28   38    3      1.08      0.00
  -25   38    3     -0.09      0.00
  -22   38    3     -4.53      0.00
  -19   38    3      1.71      0.00
  -16   38    3     -2.60      0.00
  -13   38    3     -6.28      0.00
  -10   38    3     -0.11      0.00
   -7   38    3      4.25      0.00
   -4   38    3     -0.21      0.00
   -1   38    3     -0.14      0.00
    2   38    3      0.68      0.00
    5   38    3     -1.59      0.00
  -42   39    3      0.48      0.00
  -39   39    3      1.86      0.00
  -36   39    3     -2.10      0.00
  -33   39    3      0.86      0.00
  -30   39    3      1.27      0.00
  -27   39    3     -6.88      0.00
  -21   39    3      5.95      0.00
  -18   39    3     -0.85      0.00
  -15   39    3      0.65      0.00
  -12   39    3      6.06      0.00
   -9   39    3     -2.68      0.00
   -6   39    3     -5.98      0.00
   -3   39    3      1.75      0.00
    0   39    3      2.26      0.00
    3   39    3     -1.35      0.00
  -44   40    3      1.68      0.00
  -41   40    3      0.96      0.00
  -38   40    3     -0.28      0.00
  -35   40    3     -0.63      0.00
  -32   40    3     -0.87      0.00
  -29   40    3      0.23      0.00
  -26   40    3     -3.67      0.00
  -23   40    3     -3.96      0.00
  -20   40    3     -5.15      0.00
  -17   40    3      3.79      0.00
  -14   40    3      2.25      0.00
  -11   40    3     -4.53      0.00
   -8   40    3     -1.02      0.00
   -5   40    3     -1.08      0.00
   -2   40    3     -1.40      0.00
    1   40    3      0.41      0.00
    4   40    3      0.56      0.00
  -43   41    3     -1.86      0.00
  -40   41    3      1.47      0.00
  -37   41    3      0.17      0.00
  -34   41    3     -0.77      0.00
  -31   41    3      0.26      0.00
  -28   41    3      0.75      0.00
  -22   41    3     -1.79      0.00
  -19   41    3      3.76      0.00
  -16   41    3     -3.17      0.00
  -13   41    3     -2.61      0.00
  -10   41    3      1.31      0.00
   -7   41    3     -0.72      0.00
   -4   41    3     -1.79      0.00
   -1   41    3     -1.09      0.00
    2   41    3     -0.72      0.00
  -42   42    3      1.84      0.00
  -39   42    3      2.51      0.00
  -36   42    3      2.13      0.00
  -33   42    3     -1.55      0.00
  -30   42    3     -5.21      0.00
  -27   42    3     -5.17      0.00
  -24   42    3      6.01      0.00
  -21   42    3      2.34      0.00
  -18   42    3     -3.43      0.00
  -15   42    3      2.18      0.00
  -12   42    3      3.93      0.00
   -9   42    3      0.79      0.00
   -6   42    3      0.13      0.00
   -3   42    3      1.79      0.00
    0   42    3      0.95      0.00
  -41   43    3     -2.19      0.00
  -38   43    3      0.95      0.00
  -35   43    3      3.07      0.00
  -32   43    3     -2.98      0.00
  -29   43    3     -1.30      0.00
  -26   43    3     -0.92      0.00
  -23   43    3     -4.69      0.00
  -20   43    3     -0.05      0.00
  -17   43    3      1.96      0.00
  -14   43    3     -0.41      0.00
  -11   43    3     -3.04      0.00
   -8   43    3     -0.51      0.00
   -5   43    3      0.33      0.00
   -2   43    3     -0.06      0.00
  -40   44    3     -0.29      0.00
  -37   44    3     -1.51      0.00
  -34   44    3      0.30      0.00
  -31   44    3      3.78      0.00
  -28   44    3      1.00      0.00
  -25   44    3     -1.26      0.00
  -22   44    3      2.62      0.00
  -19   44    3      1.38      0.00
  -16   44    3      0.70      0.00
  -13   44    3      1.71      0.00
  -10   44    3      2.94      0.00
   -7   44    3      1.25      0.00
   -4   44    3     -0.07      0.00
  -36   45    3      0.01      0.00
  -33   45    3     -2.72      0.00
  -30   45    3     -2.85      0.00
  -27   45    3     -0.69      0.00
  -24   45    3      3.26      0.00
  -21   45    3     -1.55      0.00
  -18   45    3     -2.50      0.00
  -15   45    3      0.40      0.00
  -12   45    3      1.04      0.00
   -9   45    3      2.74      0.00
  -35   46    3      0.75      0.00
  -32   46    3     -2.72      0.00
  -29   46    3     -3.38      0.00
  -26   46    3      0.34      0.00
  -23   46    3     -2.76      0.00
  -20   46    3      1.42      0.00
  -17   46    3      2.02      0.00
  -14   46    3     -2.33      0.00
  -11   46    3     -1.98      0.00
  -34   47    3     -0.83      0.00
  -31   47    3     -1.90      0.00
  -28   47    3     -6.29      0.00
  -25   47    3     -0.13      0.00
  -22   47    3      1.01      0.00
  -19   47    3     -1.20      0.00
  -16   47    3      0.13      0.00
  -13   47    3      1.96      0.00
  -30   48    3     -7.17      0.00
  -27   48    3     -0.65      0.00
  -24   48    3     -3.61      0.00
  -21   48    3     -1.93      0.00
  -18   48    3     -1.97      0.00
   -1    1    4      7.30      0.00
   -3    2    4     52.22      0.00
    0    2    4     -1.60      0.00
   -5    3    4     -5.41      0.00
   -2    3    4    -47.86      0.00
    1    3    4    -69.30      0.00
   -7    4    4     -6.53      0.00
   -4    4    4     -0.86      0.00
   -1    4    4     37.62      0.00
    2    4    4     25.58      0.00
   -9    5    4    -32.53      0.00
   -6    5    4    -10.59      0.00
   -3    5    4     33.04      0.00
    0    5    4    -27.08      0.00
    3    5    4    -15.58      0.00
  -11    6    4    -12.01      0.00
   -8    6    4     32.42      0.00
   -5    6    4     -9.30      0.00
   -2    6    4    -44.72      0.00
    1    6    4    -40.64      0.00
    4    6    4     17.44      0.00
  -13    7    4     12.86      0.00
  -10    7    4      5.53      0.00
   -7    7    4    -34.65      0.00
   -4    7    4     34.04      0.00
   -1    7    4     38.33      0.00
    2    7    4      2.50      0.00
    5    7    4     -9.66      0.00
  -15    8    4      5.24      0.00
  -12    8    4    -23.55      0.00
   -9    8    4    -22.14      0.00
   -6    8    4    -14.32      0.00
   -3    8    4     28.26      0.00
    0    8    4    -11.66      0.00
    6    8    4     -8.75      0.00
  -17    9    4     21.48      0.00
  -14    9    4     15.86      0.00
  -11    9    4     42.45      0.00
   -8    9    4     38.91      0.00
   -5    9    4     -4.60      0.00
   -2    9    4    -23.75      0.00
    1    9    4     34.36      0.00
    4    9    4     50.62      0.00
    7    9    4    -17.08      0.00
  -19   10    4    -23.33      0.00
  -16   10    4    -22.45      0.00
  -13   10    4     -2.74      0.00
  -10   10    4      6.45      0.00
   -7   10    4    -35.69      0.00
   -4   10    4    -31.66      0.00
   -1   10    4     10.82      0.00
    2   10    4     10.42      0.00
    5   10    4    -10.57      0.00
    8   10    4      1.80      0.00
  -21   11    4    -12.56      0.00
  -18   11    4      6.99      0.00
  -15   11    4     21.40      0.00
  -12   11    4     -4.68      0.00
   -9   11    4      2.08      0.00
   -6   11    4     19.79      0.00
   -3   11    4      2.14      0.00
    0   11    4    -19.94      0.00
    3   11    4    -37.33      0.00
    6   11    4      0.55      0.00
    9   11    4     30.55      0.00
  -23   12    4     11.94      0.00
  -20   12    4     17.97      0.00
  -17   12    4     -1.78      0.00
  -14   12    4    -21.42      0.00
  -11   12    4     -5.20      0.00
   -8   12    4     22.09      0.00
   -5   12    4     -3.23      0.00
   -2   12    4     12.52      0.00
    1   12    4     -7.06      0.00
    4   12    4     10.45      0.00
    7   12    4     -8.84      0.00
   10   12    4     -6.99      0.00
  -25   13    4      3.85      0.00
  -22   13    4     -4.22      0.00
  -19   13    4    -22.04      0.00
  -16   13    4    -11.04      0.00
  -13   13    4     -6.74      0.00
  -10   13    4     -4.26      0.00
   -7   13    4    -13.72      0.00
   -4   13    4    -18.11      0.00
   -1   13    4     12.09      0.00
    2   13    4     13.69      0.00
    5   13    4      0.96      0.00
    8   13    4    -16.57      0.00
   11   13    4     -5.41      0.00
  -27   14    4      8.16      0.00
  -24   14    4     -6.79      0.00
  -21   14    4    -11.39      0.00
  -18   14    4     11.30      0.00
  -15   14    4     29.48      0.00
  -12   14    4      8.46      0.00
   -9   14    4      8.40      0.00
   -6   14    4     21.99      0.00
   -3   14    4      9.83      0.00
    0   14    4    -22.24      0.00
    3   14    4     18.30      0.00
    6   14    4     14.60      0.00
    9   14    4      5.56      0.00
   12   14    4      2.81      0.00
  -29   15    4     -3.95      0.00
  -26   15    4     -4.31      0.00
  -23   15    4     10.38      0.00
  -20   15    4      4.06      0.00
  -17   15    4    -15.54      0.00
  -14   15    4    -27.58      0.00
  -11   15    4    -16.31      0.00
   -8   15    4      7.67      0.00
   -5   15    4     -3.50      0.00
   -2   15    4    -10.58      0.00
    1   15    4     -9.53      0.00
    4   15    4     -1.19      0.00
    7   15    4      5.49      0.00
   10   15    4     13.93      0.00
   13   15    4     -9.56      0.00
  -31   16    4    -13.16      0.00
  -28   16    4     -8.11      0.00
  -25   16    4      9.48      0.00
  -22   16    4     13.01      0.00
  -19   16    4      0.58      0.00
  -16   16    4      6.35      0.00
  -13   16    4     30.84      0.00
  -10   16    4      5.40      0.00
   -7   16    4     -2.81      0.00
   -4   16    4      0.63      0.00
   -1   16    4     27.75      0.00
    2   16    4     -1.06      0.00
    5   16    4    -12.75      0.00
    8   16    4    -12.73      0.00
   11   16    4      4.20      0.00
   14   16    4      8.27      0.00
  -33   17    4     11.61      0.00
  -30   17    4     16.13      0.00
  -27   17    4      3.54      0.00
  -24   17    4    -16.34      0.00
  -21   17    4    -14.49      0.00
  -18   17    4      4.28      0.00
  -15   17    4     16.37      0.00
  -12   17    4     -8.35      0.00
   -9   17    4    -22.12      0.00
   -6   17    4     -5.70      0.00
   -3   17    4     10.44      0.00
    0   17    4     -9.84      0.00
    3   17    4      4.00      0.00
    6   17    4     -0.15      0.00
    9   17    4     -5.03      0.00
   12   17    4      0.80      0.00
   15   17    4      4.79      0.00
  -35   18    4     -6.15      0.00
  -32   18    4      1.91      0.00
  -29   18    4     -4.67      0.00
  -26   18    4    -15.04      0.00
  -23   18    4     -7.04      0.00
  -20   18    4      6.18      0.00
  -17   18    4    -13.27      0.00
  -14   18    4    -17.23      0.00
  -11   18    4     -5.28      0.00
   -8   18    4     13.54      0.00
   -5   18    4    -13.53      0.00
   -2   18    4    -11.13      0.00
    1   18    4    -21.41      0.00
    4   18    4      9.39      0.00
    7   18    4     12.75      0.00
   10   18    4      5.76      0.00
   13   18    4     -9.48      0.00
   16   18    4     -9.09      0.00
  -37   19    4      5.80      0.00
  -34   19    4      1.59      0.00
  -31   19    4     -5.85      0.00
  -28   19    4      4.84      0.00
  -25   19    4     14.87      0.00
  -22   19    4      8.30      0.00
  -19   19    4     -5.86      0.00
  -16   19    4     -2.19      0.00
  -13   19    4     23.91      0.00
  -10   19    4     15.62      0.00
   -7   19    4     -1.85      0.00
   -4   19    4      4.97      0.00
   -1   19    4      3.04      0.00
    2   19    4      7.08      0.00
    5   19    4      4.20      0.00
    8   19    4     -1.63      0.00
   11   19    4     -3.71      0.00
   14   19    4      1.86      0.00
   17   19    4      5.11      0.00
  -39   20    4      0.59      0.00
  -36   20    4     -1.88      0.00
  -33   20    4     -3.81      0.00
  -30   20    4      6.43      0.00
  -27   20    4      6.43      0.00
  -24   20    4    -12.11      0.00
  -21   20    4     -7.40      0.00
  -18   20    4      6.34      0.00
  -15   20    4      1.24      0.00
  -12   20    4    -14.29      0.00
   -9   20    4    -11.92      0.00
   -6   20    4     -7.55      0.00
   -3   20    4     -2.38      0.00
    0   20    4     -4.09      0.00
    3   20    4     -4.26      0.00
    6   20    4    -10.43      0.00
    9   20    4      1.71      0.00
   12   20    4     14.18      0.00
   15   20    4     -1.72      0.00
   18   20    4     -8.57      0.00
  -41   21    4      0.34      0.00
  -38   21    4     -2.76      0.00
  -35   21    4     -2.01      0.00
  -32   21    4     -1.41      0.00
  -29   21    4     -7.14      0.00
  -26   21    4    -11.85      0.00
  -23   21    4     -5.23      0.00
  -20   21    4     19.80      0.00
  -17   21    4      9.99      0.00
  -14   21    4      2.91      0.00
  -11   21    4     10.86      0.00
   -8   21    4     14.69      0.00
   -5   21    4     -0.60      0.00
   -2   21    4      1.65      0.00
    1   21    4     -7.09      0.00
    4   21    4     -6.75      0.00
    7   21    4      3.21      0.00
   10   21    4      4.13      0.00
   13   21    4     -6.00      0.00
   16   21    4     -1.09      0.00
   19   21    4      5.66      0.00
  -43   22    4      2.55      0.00
  -40   22    4      0.60      0.00
  -37   22    4      9.13      0.00
  -34   22    4      5.73      0.00
  -31   22    4      0.50      0.00
  -28   22    4     11.10      0.00
  -25   22    4     13.89      0.00
  -22   22    4     -1.60      0.00
  -19   22    4    -20.50      0.00
  -16   22    4     -1.54      0.00
  -13   22    4      3.93      0.00
  -10   22    4     -0.56      0.00
   -7   22    4     -3.80      0.00
   -4   22    4      1.56      0.00
   -1   22    4      4.02      0.00
    2   22    4     10.62      0.00
    5   22    4      8.57      0.00
    8   22    4     -7.86      0.00
   11   22    4    -16.17      0.00
   14   22    4      1.64      0.00
   17   22    4      6.12      0.00
   20   22    4      2.13      0.00
  -45   23    4     -0.77      0.00
  -42   23    4      0.15      0.00
  -39   23    4     -3.18      0.00
  -36   23    4    -11.05      0.00
  -33   23    4     -5.42      0.00
  -30   23    4      8.35      0.00
  -27   23    4     13.51      0.00
  -24   23    4     -2.94      0.00
  -21   23    4     -6.38      0.00
  -18   23    4      3.03      0.00
  -15   23    4     -6.80      0.00
  -12   23    4    -14.65      0.00
   -9   23    4      3.41      0.00
   -6   23    4      5.71      0.00
   -3   23    4     -4.84      0.00
    0   23    4     -4.15      0.00
    3   23    4     -4.06      0.00
    6   23    4     -4.12      0.00
    9   23    4      7.26      0.00
   12   23    4      8.96      0.00
   15   23    4     -4.26      0.00
   18   23    4     -4.99      0.00
   21   23    4      0.79      0.00
  -47   24    4      0.29      0.00
  -44   24    4      4.56      0.00
  -41   24    4      3.88      0.00
  -38   24    4      3.57      0.00
  -35   24    4      6.53      0.00
  -32   24    4      6.77      0.00
  -29   24    4     -8.12      0.00
  -26   24    4     -9.17      0.00
  -23   24    4      9.95      0.00
  -20   24    4      1.50      0.00
  -17   24    4      3.22      0.00
  -14   24    4    -13.53      0.00
  -11   24    4     -1.85      0.00
   -8   24    4      2.60      0.00
   -5   24    4      9.20      0.00
   -2   24    4      4.42      0.00
    1   24    4     -5.48      0.00
    4   24    4     -9.14      0.00
    7   24    4     12.14      0.00
   10   24    4      4.66      0.00
   13   24    4     -0.78      0.00
   16   24    4      1.41      0.00
   19   24    4      3.34      0.00
   22   24    4     -0.12      0.00
  -46   25    4     -3.96      0.00
  -43   25    4     -2.21      0.00
  -40   25    4      2.64      0.00
  -37   25    4      5.76      0.00
  -34   25    4     -1.68      0.00
  -31   25    4    -13.85      0.00
  -28   25    4     -1.33      0.00
  -25   25    4     12.92      0.00
  -22   25    4     -7.71      0.00
  -19   25    4    -15.08      0.00
  -16   25    4     -1.50      0.00
  -13   25    4      2.37      0.00
  -10   25    4     -6.79      0.00
   -7   25    4     -6.55      0.00
   -4   25    4    -10.18      0.00
   -1   25    4      5.66      0.00
    2   25    4     11.46      0.00
    5   25    4      4.65      0.00
    8   25    4    -11.14      0.00
   11   25    4     -5.83      0.00
   14   25    4      5.63      0.00
   17   25    4      4.11      0.00
   20   25    4     -1.13      0.00
  -45   26    4     -1.15      0.00
  -42   26    4      4.68      0.00
  -39   26    4      7.38      0.00
  -36   26    4     -6.61      0.00
  -33   26    4     -2.74      0.00
  -30   26    4      4.50      0.00
  -27   26    4      1.83      0.00
  -24   26    4     -6.76      0.00
  -21   26    4     -9.18      0.00
  -18   26    4      5.47      0.00
  -15   26    4      5.31      0.00
  -12   26    4     11.77      0.00
   -9   26    4      1.96      0.00
   -6   26    4     -4.18      0.00
   -3   26    4     -5.37      0.00
    0   26    4      3.99      0.00
    3   26    4     -7.03      0.00
    6   26    4     -5.23      0.00
    9   26    4      4.23      0.00
   12   26    4      2.37      0.00
   15   26    4     -2.09      0.00
   18   26    4     -1.52      0.00
   21   26    4      1.79      0.00
  -47   27    4     -2.19      0.00
  -44   27    4      1.37      0.00
  -41   27    4      1.93      0.00
  -38   27    4      0.25      0.00
  -35   27    4     12.93      0.00
  -32   27    4     12.28      0.00
  -29   27    4     -3.39      0.00
  -26   27    4     -6.95      0.00
  -23   27    4      7.99      0.00
  -20   27    4      1.56      0.00
  -17   27    4     -2.65      0.00
  -14   27    4     -3.33      0.00
  -11   27    4     -5.74      0.00
   -8   27    4     -2.45      0.00
   -5   27    4      6.41      0.00
   -2   27    4      5.10      0.00
    1   27    4    -12.15      0.00
    4   27    4      0.06      0.00
    7   27    4     12.79      0.00
   10   27    4     -0.72      0.00
   13   27    4     -4.60      0.00
   16   27    4      2.05      0.00
   19   27    4      4.37      0.00
  -46   28    4     -3.56      0.00
  -43   28    4     -4.83      0.00
  -40   28    4     -0.45      0.00
  -37   28    4     -4.28      0.00
  -34   28    4     -8.05      0.00
  -31   28    4     -9.16      0.00
  -28   28    4      6.17      0.00
  -25   28    4      9.16      0.00
  -22   28    4      3.86      0.00
  -19   28    4      2.63      0.00
  -16   28    4      3.70      0.00
  -13   28    4     -1.89      0.00
  -10   28    4     -2.72      0.00
   -7   28    4      6.98      0.00
   -4   28    4     -6.12      0.00
   -1   28    4     -4.42      0.00
    2   28    4      9.15      0.00
    5   28    4      0.93      0.00
    8   28    4     -4.13      0.00
   11   28    4     -0.57      0.00
   14   28    4      2.98      0.00
   17   28    4     -0.09      0.00
  -45   29    4      2.08      0.00
  -42   29    4      6.66      0.00
  -39   29    4      1.36      0.00
  -36   29    4     -1.95      0.00
  -33   29    4      1.66      0.00
  -30   29    4      8.51      0.00
  -27   29    4     -2.93      0.00
  -24   29    4     -3.56      0.00
  -21   29    4     -2.94      0.00
  -18   29    4      1.62      0.00
  -15   29    4     -2.40      0.00
  -12   29    4      3.51      0.00
   -9   29    4     -2.42      0.00
   -6   29    4     -4.56      0.00
   -3   29    4      5.08      0.00
    0   29    4      7.31      0.00
    3   29    4     -8.24      0.00
    6   29    4     -4.75      0.00
    9   29    4      1.81      0.00
   12   29    4      1.70      0.00
   15   29    4     -0.34      0.00
  -44   30    4     -0.33      0.00
  -38   30    4     -2.29      0.00
  -35   30    4     10.79      0.00
  -32   30    4      3.10      0.00
  -29   30    4     -6.11      0.00
  -26   30    4     -1.33      0.00
  -23   30    4      5.74      0.00
  -20   30    4     -1.77      0.00
  -17   30    4     -7.53      0.00
  -14   30    4     -2.30      0.00
  -11   30    4     -3.00      0.00
   -8   30    4     -0.95      0.00
   -5   30    4      3.72      0.00
   -2   30    4     -0.63      0.00
    1   30    4     -5.39      0.00
    4   30    4      2.99      0.00
    7   30    4      6.01      0.00
   10   30    4     -2.15      0.00
   13   30    4     -2.49      0.00
   16   30    4      2.32      0.00
  -46   31    4     -0.52      0.00
  -43   31    4     -0.25      0.00
  -40   31    4      3.71      0.00
  -37   31    4      3.66      0.00
  -34   31    4     -7.67      0.00
  -31   31    4     -5.35      0.00
  -28   31    4      5.08      0.00
  -25   31    4     -1.03      0.00
  -22   31    4     -2.87      0.00
  -19   31    4     -1.35      0.00
  -16   31    4     -6.59      0.00
  -13   31    4     -2.98      0.00
  -10   31    4      6.72      0.00
   -7   31    4      7.59      0.00
   -4   31    4     -8.43      0.00
   -1   31    4     -0.95      0.00
    2   31    4      6.86      0.00
    5   31    4      0.05      0.00
    8   31    4     -2.64      0.00
   11   31    4      1.24      0.00
   14   31    4     -1.47      0.00
  -45   32    4      2.92      0.00
  -42   32    4      6.79      0.00
  -39   32    4     -2.26      0.00
  -36   32    4     -3.43      0.00
  -33   32    4      2.98      0.00
  -30   32    4      8.89      0.00
  -27   32    4     -1.23      0.00
  -24   32    4     -3.38      0.00
  -21   32    4     -1.81      0.00
  -18   32    4     -2.85      0.00
  -15   32    4     -0.66      0.00
  -12   32    4     -2.43      0.00
   -9   32    4     -8.67      0.00
   -6   32    4     -2.84      0.00
   -3   32    4     11.97      0.00
    0   32    4      2.75      0.00
    3   32    4     -4.11      0.00
    6   32    4     -0.47      0.00
    9   32    4      1.12      0.00
   12   32    4     -0.87      0.00
  -44   33    4      3.18      0.00
  -41   33    4     -4.30      0.00
  -38   33    4     -3.26      0.00
  -35   33    4     -0.74      0.00
  -32   33    4     -5.80      0.00
  -29   33    4     -3.30      0.00
  -26   33    4      4.10      0.00
  -23   33    4      3.15      0.00
  -20   33    4     -1.66      0.00
  -17   33    4      7.17      0.00
  -14   33    4      3.10      0.00
  -11   33    4     -9.35      0.00
   -8   33    4     -0.46      0.00
   -5   33    4      0.98      0.00
   -2   33    4     -8.51      0.00
    1   33    4     -4.04      0.00
    4   33    4      3.13      0.00
    7   33    4      0.22      0.00
   10   33    4     -0.58      0.00
  -43   34    4      4.44      0.00
  -40   34    4      7.53      0.00
  -37   34    4      6.44      0.00
  -34   34    4     -3.77      0.00
  -31   34    4     -3.26      0.00
  -28   34    4     -2.51      0.00
  -25   34    4     -2.11      0.00
  -22   34    4     -0.80      0.00
  -19   34    4      3.27      0.00
  -16   34    4     -3.14      0.00
  -13   34    4     -4.53      0.00
  -10   34    4     10.38      0.00
   -7   34    4      2.45      0.00
   -4   34    4     -6.57      0.00
   -1   34    4      0.96      0.00
    2   34    4      3.79      0.00
    5   34    4     -2.46      0.00
    8   34    4     -1.01      0.00
   11   34    4      0.01      0.00
  -45   35    4      2.92      0.00
  -42   35    4     -1.13      0.00
  -39   35    4     -3.85      0.00
  -36   35    4     -1.75      0.00
  -33   35    4      5.54      0.00
  -30   35    4      2.17      0.00
  -27   35    4      0.70      0.00
  -24   35    4      0.79      0.00
  -21   35    4      2.71      0.00
  -18   35    4      0.24      0.00
  -15   35    4      4.00      0.00
  -12   35    4      1.21      0.00
   -9   35    4     -3.35      0.00
   -6   35    4      2.24      0.00
   -3   35    4      8.88      0.00
    0   35    4      0.95      0.00
    3   35    4     -1.88      0.00
    6   35    4      0.88      0.00
    9   35    4      1.74      0.00
  -44   36    4     -2.66      0.00
  -41   36    4     -2.87      0.00
  -38   36    4     -0.42      0.00
  -35   36    4     -1.64      0.00
  -32   36    4     -3.16      0.00
  -29   36    4      1.43      0.00
  -26   36    4      0.95      0.00
  -23   36    4     -5.87      0.00
  -20   36    4     -3.44      0.00
  -17   36    4      6.26      0.00
  -14   36    4     -2.16      0.00
  -11   36    4     -1.73      0.00
   -8   36    4      3.86      0.00
   -5   36    4     -1.80      0.00
   -2   36    4     -4.76      0.00
    1   36    4     -0.44      0.00
    4   36    4      0.52      0.00
    7   36    4     -0.55      0.00
  -43   37    4     -1.01      0.00
  -40   37    4      6.14      0.00
  -37   37    4      1.87      0.00
  -34   37    4     -0.86      0.00
  -31   37    4      0.79      0.00
  -28   37    4      1.75      0.00
  -25   37    4     -1.09      0.00
  -22   37    4      4.50      0.00
  -19   37    4     -1.68      0.00
  -16   37    4     -5.14      0.00
  -13   37    4     -1.99      0.00
  -10   37    4      3.64      0.00
   -7   37    4     -2.36      0.00
   -4   37    4      0.23      0.00
   -1   37    4      2.65      0.00
    2   37    4      1.62      0.00
    5   37    4     -2.07      0.00
  -42   38    4     -1.19      0.00
  -39   38    4     -6.44      0.00
  -36   38    4     -1.91      0.00
  -33   38    4      3.32      0.00
  -30   38    4     -1.40      0.00
  -27   38    4      1.64      0.00
  -24   38    4      6.86      0.00
  -21   38    4      0.94      0.00
  -18   38    4      1.31      0.00
  -15   38    4      6.67      0.00
  -12   38    4     -2.46      0.00
   -9   38    4     -6.59      0.00
   -6   38    4      2.30      0.00
   -3   38    4      2.86      0.00
    0   38    4     -0.07      0.00
    3   38    4     -1.10      0.00
  -41   39    4      1.95      0.00
  -38   39    4      2.12      0.00
  -35   39    4      1.46      0.00
  -32   39    4     -0.14      0.00
  -29   39    4      1.24      0.00
  -26   39    4     -6.70      0.00
  -23   39    4     -4.62      0.00
  -20   39    4      2.00      0.00
  -17   39    4      4.84      0.00
  -14   39    4     -5.02      0.00
  -11   39    4      0.89      0.00
   -8   39    4      2.04      0.00
   -5   39    4     -4.37      0.00
   -2   39    4     -3.12      0.00
    1   39    4      1.07      0.00
  -40   40    4      3.98      0.00
  -37   40    4      0.54      0.00
  -34   40    4      2.84      0.00
  -31   40    4     -0.19      0.00
  -28   40    4     -1.27      0.00
  -25   40    4     -0.61      0.00
  -22   40    4      5.41      0.00
  -19   40    4     -2.57      0.00
  -16   40    4     -2.43      0.00
  -13   40    4      2.45      0.00
  -10   40    4      1.30      0.00
   -7   40    4     -0.51      0.00
   -4   40    4     -0.86      0.00
   -1   40    4      1.78      0.00
    2   40    4     -1.85      0.00
  -39   41    4     -0.71      0.00
  -36   41    4      2.08      0.00
  -33   41    4     -3.89      0.00
  -30   41    4     -1.60      0.00
  -27   41    4      0.33      0.00
  -24   41    4      2.07      0.00
  -21   41    4     -3.82      0.00
  -18   41    4      0.60      0.00
  -15   41    4      1.49      0.00
  -12   41    4     -1.55      0.00
   -9   41    4     -0.16      0.00
   -6   41    4      1.29      0.00
   -3   41    4      1.42      0.00
    0   41    4     -0.97      0.00
  -38   42    4      3.45      0.00
  -35   42    4      3.47      0.00
  -32   42    4      0.33      0.00
  -29   42    4      2.25      0.00
  -26   42    4     -3.34      0.00
  -23   42    4     -1.33      0.00
  -20   42    4      2.71      0.00
  -17   42    4      0.07      0.00
  -14   42    4     -2.05      0.00
  -11   42    4      1.50      0.00
   -8   42    4      1.80      0.00
   -5   42    4      1.08      0.00
   -2   42    4      1.90      0.00
  -37   43    4      2.18      0.00
  -34   43    4      0.17      0.00
  -31   43    4     -1.62      0.00
  -28   43    4     -3.88      0.00
  -25   43    4      1.07      0.00
  -22   43    4      3.54      0.00
  -19   43    4     -3.02      0.00
  -16   43    4      1.40      0.00
  -13   43    4      2.48      0.00
  -10   43    4     -0.12      0.00
   -7   43    4      0.44      0.00
  -36   44    4      3.22      0.00
  -33   44    4     -2.31      0.00
  -30   44    4     -2.39      0.00
  -27   44    4      0.32      0.00
  -24   44    4     -1.91      0.00
  -21   44    4     -1.20      0.00
  -18   44    4      1.63      0.00
  -15   44    4     -2.73      0.00
  -12   44    4     -1.72      0.00
   -9   44    4      0.51      0.00
  -35   45    4      3.10      0.00
  -32   45    4      3.06      0.00
  -29   45    4      0.06      0.00
  -26   45    4     -2.36      0.00
  -23   45    4      3.05      0.00
  -20   45    4      1.27      0.00
  -17   45    4      0.93      0.00
  -14   45    4     -0.53      0.00
  -11   45    4      0.99      0.00
  -31   46    4     -7.85      0.00
  -28   46    4     -4.53      0.00
  -25   46    4      3.62      0.00
  -22   46    4     -1.43      0.00
  -19   46    4     -1.23      0.00
  -16   46    4      1.25      0.00
  -27   47    4      2.65      0.00
  -24   47    4     -1.44      0.00
  -21   47    4     -1.78      0.00
    0    1    5    -10.19      0.00
   -2    2    5     -8.76      0.00
    1    2    5     17.10      0.00
   -4    3    5     -3.79      0.00
   -1    3    5      0.49      0.00
    2    3    5      9.45      0.00
   -6    4    5      1.82      0.00
   -3    4    5    -20.21      0.00
    0    4    5     -1.75      0.00
    3    4    5      9.45      0.00
   -8    5    5     -4.25      0.00
   -5    5    5    -12.37      0.00
   -2    5    5     -3.66      0.00
    1    5    5     10.90      0.00
    4    5    5    -10.54      0.00
  -10    6    5     -4.25      0.00
   -7    6    5     15.97      0.00
   -4    6    5     11.19      0.00
   -1    6    5     -3.64      0.00
    2    6    5    -10.39      0.00
    5    6    5      1.34      0.00
  -12    7    5     -9.79      0.00
   -9    7    5    -14.20      0.00
   -6    7    5     -7.20      0.00
   -3    7    5      6.35      0.00
    0    7    5    -10.32      0.00
    3    7    5     13.61      0.00
    6    7    5     10.86      0.00
  -14    8    5      9.45      0.00
  -11    8    5      9.11      0.00
   -8    8    5     13.95      0.00
   -5    8    5     -3.03      0.00
   -2    8    5      3.15      0.00
    1    8    5      4.23      0.00
    4    8    5     -3.25      0.00
    7    8    5    -21.41      0.00
  -16    9    5      7.48      0.00
  -13    9    5      9.57      0.00
  -10    9    5     -4.45      0.00
   -7    9    5     -9.96      0.00
   -4    9    5     14.39      0.00
   -1    9    5    -13.11      0.00
    2    9    5      9.75      0.00
    5    9    5     -0.95      0.00
    8    9    5      7.55      0.00
  -18   10    5     -3.25      0.00
  -15   10    5     -6.61      0.00
  -12   10    5     -9.35      0.00
   -9   10    5     -5.18      0.00
   -6   10    5     -5.37      0.00
   -3   10    5      4.68      0.00
    0   10    5     -3.43      0.00
    3   10    5     -4.82      0.00
    6   10    5     11.18      0.00
    9   10    5      8.46      0.00
  -20   11    5      2.79      0.00
  -17   11    5     -6.95      0.00
  -14   11    5     -4.50      0.00
  -11   11    5      2.92      0.00
   -8   11    5      5.98      0.00
   -5   11    5     -3.19      0.00
   -2   11    5    -12.64      0.00
    1   11    5     -9.65      0.00
    4   11    5    -11.20      0.00
    7   11    5    -14.67      0.00
   10   11    5     -5.80      0.00
  -22   12    5     -5.79      0.00
  -19   12    5      8.89      0.00
  -16   12    5     -2.17      0.00
  -13   12    5    -12.02      0.00
  -10   12    5     -2.71      0.00
   -7   12    5     -9.67      0.00
   -4   12    5     -1.14      0.00
   -1   12    5     16.95      0.00
    2   12    5     10.61      0.00
    5   12    5      5.37      0.00
    8   12    5      4.92      0.00
   11   12    5      7.65      0.00
  -24   13    5     -7.21      0.00
  -21   13    5      4.25      0.00
  -18   13    5     15.48      0.00
  -15   13    5      6.58      0.00
  -12   13    5     -7.94      0.00
   -9   13    5     16.83      0.00
   -6   13    5      7.17      0.00
   -3   13    5      6.07      0.00
    0   13    5     -4.64      0.00
    3   13    5     10.99      0.00
    6   13    5     -5.75      0.00
    9   13    5      0.67      0.00
   12   13    5     -2.37      0.00
  -26   14    5     11.91      0.00
  -23   14    5      0.96      0.00
  -20   14    5     -8.05      0.00
  -17   14    5    -11.08      0.00
  -14   14    5     -3.23      0.00
  -11   14    5      8.98      0.00
   -8   14    5     -2.40      0.00
   -5   14    5    -12.68      0.00
   -2   14    5     -9.90      0.00
    1   14    5     -0.23      0.00
    4   14    5     -2.53      0.00
    7   14    5      0.91      0.00
   10   14    5      0.58      0.00
   13   14    5     -3.23      0.00
  -28   15    5     -4.17      0.00
  -25   15    5      0.84      0.00
  -22   15    5     -5.36      0.00
  -19   15    5     -4.31      0.00
  -16   15    5     13.51      0.00
  -13   15    5      8.93      0.00
  -10   15    5     -7.05      0.00
   -7   15    5     -8.98      0.00
   -4   15    5      7.29      0.00
   -1   15    5     15.78      0.00
    2   15    5      1.32      0.00
    5   15    5     -9.52      0.00
    8   15    5      1.94      0.00
   11   15    5      9.99      0.00
   14   15    5      4.05      0.00
  -30   16    5      6.63      0.00
  -27   16    5     -2.71      0.00
  -24   16    5      2.50      0.00
  -21   16    5     10.19      0.00
  -18   16    5      9.70      0.00
  -15   16    5      3.43      0.00
  -12   16    5    -13.12      0.00
   -9   16    5      1.18      0.00
   -6   16    5     16.57      0.00
   -3   16    5     -4.40      0.00
    0   16    5    -17.95      0.00
    3   16    5     -5.94      0.00
    6   16    5     -4.67      0.00
    9   16    5      1.39      0.00
   12   16    5     -2.36      0.00
   15   16    5     -7.17      0.00
  -32   17    5     -4.02      0.00
  -29   17    5     -4.09      0.00
  -26   17    5      2.65      0.00
  -23   17    5     -0.65      0.00
  -20   17    5    -10.29      0.00
  -17   17    5    -11.89      0.00
  -14   17    5      0.20      0.00
  -11   17    5      1.29      0.00
   -8   17    5      9.90      0.00
   -5   17    5    -10.52      0.00
   -2   17    5     -4.89      0.00
    1   17    5      2.18      0.00
    4   17    5     13.20      0.00
    7   17    5      6.58      0.00
   10   17    5     -2.08      0.00
   13   17    5      0.63      0.00
   16   17    5     12.15      0.00
  -34   18    5      1.13      0.00
  -31   18    5      3.38      0.00
  -28   18    5      2.34      0.00
  -25   18    5     -1.90      0.00
  -22   18    5     -6.49      0.00
  -19   18    5    -10.93      0.00
  -16   18    5     12.67      0.00
  -13   18    5     10.28      0.00
  -10   18    5     -4.94      0.00
   -7   18    5      0.76      0.00
   -4   18    5      6.61      0.00
   -1   18    5      5.14      0.00
    2   18    5      1.21      0.00
    5   18    5     -8.72      0.00
    8   18    5     -9.96      0.00
   11   18    5      1.43      0.00
   14   18    5     -3.31      0.00
   17   18    5     -7.17      0.00
  -36   19    5     -0.49      0.00
  -33   19    5      3.28      0.00
  -30   19    5      0.49      0.00
  -27   19    5     -1.34      0.00
  -24   19    5      8.05      0.00
  -21   19    5     11.77      0.00
  -18   19    5     -4.18      0.00
  -15   19    5    -15.32      0.00
  -12   19    5     -8.28      0.00
   -9   19    5      4.22      0.00
   -6   19    5      6.64      0.00
   -3   19    5      2.79      0.00
    0   19    5     -5.84      0.00
    3   19    5     -7.67      0.00
    6   19    5      5.01      0.00
    9   19    5     13.22      0.00
   12   19    5     -2.30      0.00
   15   19    5     -8.52      0.00
   18   19    5      1.52      0.00
  -38   20    5     -1.39      0.00
  -35   20    5     -7.86      0.00
  -32   20    5     -9.08      0.00
  -29   20    5     -5.15      0.00
  -26   20    5      1.87      0.00
  -23   20    5     11.40      0.00
  -20   20    5      2.69      0.00
  -17   20    5     -5.53      0.00
  -14   20    5      7.42      0.00
  -11   20    5      8.86      0.00
   -5   20    5     -1.61      0.00
   -2   20    5      7.93      0.00
    1   20    5      1.37      0.00
    4   20    5      9.43      0.00
    7   20    5     -0.87      0.00
   10   20    5     -1.71      0.00
   13   20    5      5.98      0.00
   16   20    5      8.61      0.00
   19   20    5     -2.90      0.00
  -40   21    5      5.35      0.00
  -37   21    5      5.81      0.00
  -34   21    5      2.10      0.00
  -31   21    5      6.13      0.00
  -28   21    5      4.13      0.00
  -25   21    5     -6.10      0.00
  -22   21    5    -10.23      0.00
  -19   21    5      4.35      0.00
  -16   21    5     10.81      0.00
  -13   21    5      5.24      0.00
  -10   21    5    -12.80      0.00
   -7   21    5     -2.41      0.00
   -4   21    5      0.38      0.00
   -1   21    5     -1.35      0.00
    2   21    5     -0.54      0.00
    5   21    5     -8.45      0.00
    8   21    5    -12.52      0.00
   11   21    5      1.61      0.00
   14   21    5      1.16      0.00
   17   21    5     -4.70      0.00
   20   21    5     -0.90      0.00
  -42   22    5     -2.00      0.00
  -39   22    5     -3.10      0.00
  -36   22    5     -7.24      0.00
  -33   22    5     -1.42      0.00
  -30   22    5     -3.40      0.00
  -27   22    5     -5.78      0.00
  -24   22    5     -4.19      0.00
  -21   22    5      7.26      0.00
  -18   22    5     -1.20      0.00
  -15   22    5    -12.84      0.00
  -12   22    5    -11.61      0.00
   -9   22    5      8.38      0.00
   -6   22    5      7.56      0.00
   -3   22    5      2.49      0.00
    0   22    5     -9.47      0.00
    3   22    5      0.42      0.00
    6   22    5     13.13      0.00
    9   22    5     11.95      0.00
   12   22    5     -6.45      0.00
   15   22    5     -4.49      0.00
   18   22    5      2.95      0.00
   21   22    5      4.05      0.00
  -44   23    5      6.04      0.00
  -41   23    5      1.89      0.00
  -38   23    5      5.34      0.00
  -35   23    5      5.29      0.00
  -32   23    5     -1.32      0.00
  -29   23    5     -0.69      0.00
  -26   23    5      4.32      0.00
  -23   23    5      5.80      0.00
  -20   23    5     -1.43      0.00
  -17   23    5     -6.54      0.00
  -14   23    5      0.48      0.00
  -11   23    5      6.21      0.00
   -8   23    5      8.91      0.00
   -5   23    5      0.39      0.00
   -2   23    5     -5.52      0.00
    1   23    5      0.74      0.00
    4   23    5      5.66      0.00
    7   23    5     -4.75      0.00
   10   23    5     -5.37      0.00
   13   23    5      4.14      0.00
   16   23    5      4.10      0.00
   19   23    5     -1.04      0.00
   22   23    5     -0.57      0.00
  -43   24    5     -1.53      0.00
  -40   24    5     -0.67      0.00
  -37   24    5     -1.49      0.00
  -34   24    5     -0.57      0.00
  -31   24    5      0.74      0.00
  -28   24    5      2.99      0.00
  -25   24    5     -6.18      0.00
  -22   24    5     -8.87      0.00
  -19   24    5      0.74      0.00
  -16   24    5      1.49      0.00
  -13   24    5     -0.09      0.00
  -10   24    5     -5.90      0.00
   -7   24    5     -9.17      0.00
   -4   24    5    -10.86      0.00
   -1   24    5      8.52      0.00
    2   24    5      3.24      0.00
    5   24    5     -8.11      0.00
    8   24    5     -2.35      0.00
   11   24    5      5.46      0.00
   14   24    5      3.55      0.00
   17   24    5      0.36      0.00
   20   24    5      0.24      0.00
  -45   25    5      1.87      0.00
  -42   25    5     -0.83      0.00
  -39   25    5     -3.11      0.00
  -36   25    5     -3.47      0.00
  -33   25    5     -1.99      0.00
  -30   25    5     -2.06      0.00
  -27   25    5     -5.70      0.00
  -24   25    5      0.55      0.00
  -21   25    5      4.89      0.00
  -18   25    5      4.92      0.00
  -15   25    5     -0.50      0.00
  -12   25    5     -1.63      0.00
   -9   25    5      0.80      0.00
   -6   25    5      6.71      0.00
   -3   25    5      5.18      0.00
    0   25    5     -9.41      0.00
    3   25    5     -4.13      0.00
    6   25    5     12.61      0.00
    9   25    5      3.47      0.00
   12   25    5     -4.35      0.00
   15   25    5      1.27      0.00
   18   25    5      9.52      0.00
  -44   26    5      0.13      0.00
  -41   26    5     -0.55      0.00
  -38   26    5      7.47      0.00
  -35   26    5      7.20      0.00
  -32   26    5      2.23      0.00
  -29   26    5      4.35      0.00
  -26   26    5     10.63      0.00
  -23   26    5      3.33      0.00
  -20   26    5     -3.14      0.00
  -17   26    5      0.07      0.00
  -14   26    5      6.41      0.00
  -11   26    5     -0.08      0.00
   -8   26    5      5.89      0.00
   -5   26    5     -3.06      0.00
   -2   26    5     -6.52      0.00
    1   26    5     -3.62      0.00
    4   26    5      4.45      0.00
    7   26    5     -5.56      0.00
   10   26    5     -6.80      0.00
   13   26    5      2.47      0.00
   16   26    5     10.59      0.00
   19   26    5     -2.03      0.00
  -43   27    5     -1.75      0.00
  -40   27    5     -0.76      0.00
  -37   27    5     -5.88      0.00
  -34   27    5     -3.24      0.00
  -31   27    5      4.95      0.00
  -28   27    5      4.29      0.00
  -25   27    5     -0.84      0.00
  -22   27    5     -3.71      0.00
  -19   27    5     -3.70      0.00
  -16   27    5     -1.13      0.00
  -13   27    5     -0.96      0.00
  -10   27    5     -0.39      0.00
   -7   27    5     -7.79      0.00
   -4   27    5     -4.64      0.00
   -1   27    5      9.15      0.00
    2   27    5      3.69      0.00
    5   27    5     -4.09      0.00
    8   27    5     -0.01      0.00
   11   27    5      3.87      0.00
   14   27    5      0.84      0.00
   17   27    5      2.28      0.00
  -45   28    5      4.00      0.00
  -42   28    5      1.27      0.00
  -39   28    5      0.26      0.00
  -36   28    5      3.19      0.00
  -33   28    5      6.80      0.00
  -30   28    5     -1.65      0.00
  -27   28    5     -4.56      0.00
  -24   28    5      5.16      0.00
  -21   28    5      5.42      0.00
  -18   28    5      0.20      0.00
  -15   28    5     -4.78      0.00
  -12   28    5     -4.97      0.00
   -9   28    5     -1.05      0.00
   -6   28    5      9.24      0.00
   -3   28    5      5.93      0.00
    0   28    5     -7.16      0.00
    3   28    5     -0.50      0.00
    6   28    5      6.16      0.00
    9   28    5      2.14      0.00
   12   28    5     -4.58      0.00
   15   28    5      5.71      0.00
  -44   29    5     -1.23      0.00
  -41   29    5     -2.18      0.00
  -38   29    5      2.52      0.00
  -35   29    5      1.03      0.00
  -32   29    5     -4.01      0.00
  -29   29    5     -1.84      0.00
  -26   29    5      1.32      0.00
  -23   29    5     -0.74      0.00
  -20   29    5     -2.55      0.00
  -17   29    5     -0.67      0.00
  -14   29    5     -2.74      0.00
  -11   29    5      1.42      0.00
   -8   29    5      1.22      0.00
   -5   29    5     -6.75      0.00
   -2   29    5     -4.41      0.00
    1   29    5      5.85      0.00
    4   29    5      2.01      0.00
    7   29    5     -1.85      0.00
   10   29    5     -2.96      0.00
   13   29    5      3.71      0.00
   16   29    5      2.20      0.00
  -43   30    5      1.91      0.00
  -40   30    5      3.76      0.00
  -37   30    5     -4.48      0.00
  -34   30    5     -6.43      0.00
  -31   30    5      0.79      0.00
  -28   30    5     -1.86      0.00
  -25   30    5     -6.89      0.00
  -22   30    5     -7.08      0.00
  -19   30    5     -6.53      0.00
  -16   30    5     -0.61      0.00
  -13   30    5     13.58      0.00
  -10   30    5     -0.86      0.00
   -7   30    5    -10.14      0.00
   -4   30    5     -0.38      0.00
   -1   30    5      7.75      0.00
    2   30    5     -1.19      0.00
    5   30    5     -4.06      0.00
    8   30    5      3.09      0.00
   11   30    5      2.20      0.00
   14   30    5      0.47      0.00
  -42   31    5      0.01      0.00
  -39   31    5      2.91      0.00
  -36   31    5      3.77      0.00
  -33   31    5      1.21      0.00
  -30   31    5     -2.77      0.00
  -27   31    5     -0.40      0.00
  -24   31    5      2.61      0.00
  -21   31    5      0.84      0.00
  -18   31    5     -0.83      0.00
  -15   31    5      3.42      0.00
  -12   31    5     -2.73      0.00
   -9   31    5     -1.94      0.00
   -6   31    5      9.52      0.00
   -3   31    5      1.05      0.00
    0   31    5     -4.59      0.00
    3   31    5      0.58      0.00
    6   31    5      6.00      0.00
    9   31    5     -0.19      0.00
  -41   32    5     -0.79      0.00
  -38   32    5      0.03      0.00
  -35   32    5     -6.50      0.00
  -32   32    5     -4.10      0.00
  -29   32    5      1.00      0.00
  -26   32    5      0.05      0.00
  -23   32    5      4.49      0.00
  -20   32    5      6.10      0.00
  -17   32    5     -1.54      0.00
  -14   32    5     -6.32      0.00
  -11   32    5      0.99      0.00
   -8   32    5      4.77      0.00
   -5   32    5     -5.15      0.00
   -2   32    5     -1.82      0.00
    1   32    5      6.63      0.00
    4   32    5      3.34      0.00
    7   32    5     -4.39      0.00
   10   32    5     -0.72      0.00
  -43   33    5      2.92      0.00
  -40   33    5      2.76      0.00
  -37   33    5     -1.54      0.00
  -34   33    5      1.21      0.00
  -31   33    5      4.54      0.00
  -28   33    5      2.19      0.00
  -25   33    5     -0.25      0.00
  -22   33    5      3.27      0.00
  -19   33    5     -0.30      0.00
  -16   33    5      3.34      0.00
  -13   33    5      6.42      0.00
  -10   33    5     -2.18      0.00
   -7   33    5     -5.40      0.00
   -4   33    5      3.09      0.00
   -1   33    5      5.12      0.00
    2   33    5     -1.83      0.00
    5   33    5     -4.07      0.00
    8   33    5     -0.04      0.00
  -42   34    5     -3.66      0.00
  -39   34    5      0.13      0.00
  -36   34    5      2.77      0.00
  -33   34    5     -0.49      0.00
  -30   34    5     -0.58      0.00
  -27   34    5      3.30      0.00
  -24   34    5      0.31      0.00
  -21   34    5     -1.01      0.00
  -18   34    5      5.15      0.00
  -15   34    5      1.90      0.00
  -12   34    5     -4.03      0.00
   -9   34    5     -1.07      0.00
   -6   34    5      4.99      0.00
   -3   34    5      0.42      0.00
    0   34    5     -2.19      0.00
    3   34    5      1.95      0.00
    6   34    5      0.57      0.00
    9   34    5      0.92      0.00
  -41   35    5     -0.39      0.00
  -38   35    5      0.72      0.00
  -35   35    5     -3.64      0.00
  -32   35    5     -5.45      0.00
  -29   35    5     -0.52      0.00
  -26   35    5     -2.24      0.00
  -23   35    5      2.19      0.00
  -20   35    5      1.39      0.00
  -17   35    5     -6.13      0.00
  -14   35    5     -2.95      0.00
  -11   35    5      9.01      0.00
   -8   35    5      2.77      0.00
   -5   35    5     -4.23      0.00
   -2   35    5      0.41      0.00
    1   35    5      2.26      0.00
    4   35    5     -1.10      0.00
    7   35    5     -2.86      0.00
  -40   36    5      0.34      0.00
  -37   36    5      1.88      0.00
  -34   36    5      2.76      0.00
  -31   36    5      0.79      0.00
  -28   36    5     -0.58      0.00
  -25   36    5      2.70      0.00
  -22   36    5     -0.04      0.00
  -19   36    5     -2.45      0.00
  -16   36    5      3.83      0.00
  -13   36    5      4.34      0.00
  -10   36    5     -1.95      0.00
   -7   36    5     -0.59      0.00
   -4   36    5      3.44      0.00
   -1   36    5     -1.52      0.00
    2   36    5     -3.96      0.00
    5   36    5     -1.20      0.00
  -39   37    5     -3.45      0.00
  -36   37    5     -0.33      0.00
  -33   37    5     -2.64      0.00
  -30   37    5     -1.68      0.00
  -27   37    5     -0.62      0.00
  -24   37    5     -6.09      0.00
  -21   37    5     -1.16      0.00
  -18   37    5      8.12      0.00
  -15   37    5     -0.87      0.00
  -12   37    5     -7.25      0.00
   -9   37    5     -2.29      0.00
   -6   37    5     -0.32      0.00
   -3   37    5     -0.83      0.00
    0   37    5     -2.81      0.00
    3   37    5      2.21      0.00
  -38   38    5     -1.62      0.00
  -35   38    5      0.75      0.00
  -32   38    5      2.31      0.00
  -29   38    5     -0.27      0.00
  -26   38    5      2.88      0.00
  -23   38    5      2.77      0.00
  -20   38    5      1.01      0.00
  -17   38    5     -1.20      0.00
  -14   38    5      1.36      0.00
  -11   38    5      7.21      0.00
   -8   38    5     -2.80      0.00
   -5   38    5     -4.76      0.00
   -2   38    5      0.57      0.00
  -40   39    5     -2.85      0.00
  -37   39    5      3.16      0.00
  -34   39    5      5.99      0.00
  -31   39    5      0.49      0.00
  -28   39    5      4.99      0.00
  -25   39    5      3.79      0.00
  -22   39    5      1.16      0.00
  -19   39    5     -1.03      0.00
  -16   39    5      4.44      0.00
  -13   39    5      2.86      0.00
  -10   39    5     -0.04      0.00
   -7   39    5     -0.44      0.00
   -4   39    5      0.32      0.00
   -1   39    5     -2.68      0.00
  -39   40    5     -5.01      0.00
  -36   40    5      1.05      0.00
  -33   40    5      2.59      0.00
  -30   40    5      1.16      0.00
  -27   40    5     -2.53      0.00
  -24   40    5     -3.60      0.00
  -21   40    5      1.79      0.00
  -18   40    5      4.22      0.00
  -15   40    5     -4.48      0.00
  -12   40    5     -3.52      0.00
   -9   40    5      0.08      0.00
   -6   40    5      0.53      0.00
   -3   40    5     -0.84      0.00
  -35   41    5      1.24      0.00
  -32   41    5      4.29      0.00
  -29   41    5      4.71      0.00
  -26   41    5      0.49      0.00
  -23   41    5      4.82      0.00
  -20   41    5      0.06      0.00
  -17   41    5      0.95      0.00
  -14   41    5      2.43      0.00
  -11   41    5      2.55      0.00
   -8   41    5     -1.12      0.00
   -5   41    5      1.22      0.00
  -34   42    5     -1.97      0.00
  -31   42    5      0.74      0.00
  -28   42    5      0.55      0.00
  -25   42    5      1.65      0.00
  -22   42    5     -2.51      0.00
  -19   42    5     -0.45      0.00
  -16   42    5      2.26      0.00
  -13   42    5     -0.33      0.00
  -10   42    5     -1.54      0.00
   -7   42    5     -0.41      0.00
  -33   43    5      2.16      0.00
  -30   43    5      1.18      0.00
  -27   43    5     -5.17      0.00
  -24   43    5     -1.28      0.00
  -21   43    5      2.55      0.00
  -18   43    5      0.62      0.00
  -15   43    5     -3.55      0.00
  -12   43    5      1.45      0.00
   -9   43    5     -0.71      0.00
  -29   44    5     -1.87      0.00
  -26   44    5      1.17      0.00
  -23   44    5      3.82      0.00
  -20   44    5     -0.55      0.00
  -17   44    5      0.09      0.00
  -14   44    5      2.41      0.00
  -28   45    5      0.63      0.00
  -25   45    5      2.66      0.00
  -22   45    5     -2.20      0.00
  -19   45    5     -1.38      0.00
  -16   45    5     -0.91      0.00
    0    0    6    -13.16      0.00
    1    1    6      7.38      0.00
   -1    2    6      3.25      0.00
    2    2    6      6.80      0.00
   -3    3    6      4.86      0.00
    0    3    6      1.95      0.00
    3    3    6     10.83      0.00
   -5    4    6    -20.97      0.00
   -2    4    6     -7.06      0.00
    1    4    6     -1.45      0.00
    4    4    6    -19.04      0.00
   -7    5    6      8.29      0.00
   -4    5    6     13.66      0.00
   -1    5    6    -11.01      0.00
    2    5    6     -8.88      0.00
    5    5    6      4.80      0.00
   -9    6    6      8.39      0.00
   -6    6    6     12.73      0.00
   -3    6    6     -1.73      0.00
    0    6    6     10.80      0.00
    3    6    6     10.13      0.00
    6    6    6     -1.90      0.00
  -11    7    6      8.25      0.00
   -8    7    6    -16.40      0.00
   -5    7    6    -17.18      0.00
   -2    7    6      6.18      0.00
    1    7    6      9.54      0.00
    4    7    6     -2.79      0.00
    7    7    6      1.14      0.00
  -13    8    6     -0.91      0.00
  -10    8    6     -1.13      0.00
   -7    8    6     16.34      0.00
   -4    8    6     17.44      0.00
   -1    8    6    -11.69      0.00
    2    8    6     -0.99      0.00
    5    8    6      1.83      0.00
    8    8    6      5.00      0.00
  -15    9    6     -9.09      0.00
  -12    9    6      1.19      0.00
   -9    9    6      3.34      0.00
   -6    9    6     -0.64      0.00
   -3    9    6     -7.95      0.00
    0    9    6     -0.92      0.00
    3    9    6      1.17      0.00
    6    9    6     -1.14      0.00
    9    9    6     -1.83      0.00
  -17   10    6      4.99      0.00
  -14   10    6     12.50      0.00
  -11   10    6      4.64      0.00
   -8   10    6    -15.82      0.00
   -5   10    6      0.98      0.00
   -2   10    6      5.73      0.00
    1   10    6      4.31      0.00
    4   10    6     -8.97      0.00
    7   10    6     -1.15      0.00
   10   10    6     -0.80      0.00
  -19   11    6     -3.84      0.00
  -16   11    6     -3.15      0.00
  -13   11    6     -2.94      0.00
  -10   11    6     -8.31      0.00
   -7   11    6     15.80      0.00
   -4   11    6     12.71      0.00
   -1   11    6    -10.68      0.00
    2   11    6     -3.74      0.00
    5   11    6      8.52      0.00
    8   11    6     -5.84      0.00
   11   11    6     -3.73      0.00
  -21   12    6     11.06      0.00
  -18   12    6      3.69      0.00
  -15   12    6     -2.17      0.00
  -12   12    6     14.76      0.00
   -9   12    6     17.68      0.00
   -6   12    6     -9.70      0.00
   -3   12    6    -13.66      0.00
    0   12    6      3.38      0.00
    3   12    6      9.20      0.00
    6   12    6     -5.01      0.00
    9   12    6      1.35      0.00
   12   12    6      0.14      0.00
  -23   13    6      0.12      0.00
  -20   13    6     -8.24      0.00
  -17   13    6      2.64      0.00
  -14   13    6     14.40      0.00
  -11   13    6      0.45      0.00
   -8   13    6     -7.16      0.00
   -5   13    6     14.02      0.00
   -2   13    6     20.29      0.00
    1   13    6      3.95      0.00
    4   13    6     -4.45      0.00
    7   13    6      5.67      0.00
   10   13    6      3.23      0.00
   13   13    6      3.25      0.00
  -25   14    6     -2.05      0.00
  -22   14    6     -2.47      0.00
  -19   14    6      5.48      0.00
  -16   14    6      1.02      0.00
  -13   14    6    -11.66      0.00
  -10   14    6     -6.59      0.00
   -7   14    6      8.03      0.00
   -4   14    6      9.83      0.00
   -1   14    6     -9.71      0.00
    2   14    6    -10.83      0.00
    5   14    6     -0.96      0.00
    8   14    6      1.20      0.00
   11   14    6     -0.73      0.00
   14   14    6     -0.31      0.00
  -27   15    6     -1.05      0.00
  -24   15    6      8.98      0.00
  -21   15    6      3.10      0.00
  -18   15    6     -3.37      0.00
  -15   15    6     -7.23      0.00
  -12   15    6      6.43      0.00
   -9   15    6      6.05      0.00
   -6   15    6    -16.54      0.00
   -3   15    6    -11.61      0.00
    0   15    6      1.32      0.00
    3   15    6      3.34      0.00
    6   15    6     -2.60      0.00
    9   15    6     -4.25      0.00
   12   15    6     -3.31      0.00
   15   15    6      4.55      0.00
  -29   16    6     -0.08      0.00
  -26   16    6      2.05      0.00
  -23   16    6     -6.46      0.00
  -20   16    6     -7.59      0.00
  -17   16    6     -2.81      0.00
  -14   16    6      5.01      0.00
  -11   16    6     -7.71      0.00
   -8   16    6     -3.87      0.00
   -5   16    6      5.95      0.00
   -2   16    6     13.73      0.00
    1   16    6     -0.12      0.00
    4   16    6      3.36      0.00
    7   16    6      2.29      0.00
   10   16    6      2.54      0.00
   13   16    6      5.65      0.00
   16   16    6     -1.45      0.00
  -31   17    6     -1.97      0.00
  -28   17    6     -3.84      0.00
  -25   17    6     -0.06      0.00
  -22   17    6      6.34      0.00
  -19   17    6     15.11      0.00
  -16   17    6      4.50      0.00
  -13   17    6    -12.62      0.00
  -10   17    6      4.91      0.00
   -7   17    6      7.49      0.00
   -4   17    6      0.00      0.00
   -1   17    6    -16.06      0.00
    2   17    6     -3.90      0.00
    5   17    6     -5.13      0.00
    8   17    6      5.40      0.00
   11   17    6      2.47      0.00
   14   17    6     -7.07      0.00
   17   17    6      0.03      0.00
  -33   18    6      1.55      0.00
  -30   18    6     -0.81      0.00
  -27   18    6     -0.22      0.00
  -24   18    6      6.41      0.00
  -21   18    6     -1.20      0.00
  -18   18    6    -16.24      0.00
  -15   18    6     -2.34      0.00
  -12   18    6      9.47      0.00
   -9   18    6      5.27      0.00
   -6   18    6     -8.29      0.00
   -3   18    6      7.33      0.00
    0   18    6     10.98      0.00
    3   18    6     -0.90      0.00
    6   18    6      1.09      0.00
    9   18    6     -0.80      0.00
   12   18    6     -4.51      0.00
   15   18    6      3.99      0.00
   18   18    6      1.45      0.00
  -35   19    6     -3.56      0.00
  -32   19    6     -7.35      0.00
  -29   19    6     -1.11      0.00
  -26   19    6      1.03      0.00
  -23   19    6     -0.75      0.00
  -20   19    6     -6.43      0.00
  -17   19    6      5.98      0.00
  -14   19    6      7.92      0.00
  -11   19    6     -0.84      0.00
   -8   19    6     -8.39      0.00
   -5   19    6      5.00      0.00
   -2   19    6     10.40      0.00
    1   19    6      3.60      0.00
    4   19    6     -3.03      0.00
    7   19    6     -5.56      0.00
   10   19    6      2.99      0.00
   13   19    6      2.34      0.00
   16   19    6     -3.11      0.00
   19   19    6     -3.66      0.00
  -37   20    6      4.03      0.00
  -34   20    6      2.48      0.00
  -31   20    6      6.42      0.00
  -28   20    6     -3.27      0.00
  -25   20    6     -1.47      0.00
  -22   20    6      4.49      0.00
  -19   20    6     11.72      0.00
  -16   20    6     -4.10      0.00
  -13   20    6    -12.33      0.00
  -10   20    6     -0.63      0.00
   -7   20    6      8.17      0.00
   -4   20    6     -3.88      0.00
   -1   20    6     -7.99      0.00
    2   20    6     -3.06      0.00
    5   20    6      3.85      0.00
    8   20    6      7.40      0.00
   11   20    6     -1.24      0.00
   14   20    6     -2.35      0.00
   17   20    6      1.59      0.00
   20   20    6      2.18      0.00
  -39   21    6     -2.08      0.00
  -36   21    6     -3.10      0.00
  -33   21    6     -0.04      0.00
  -30   21    6      0.18      0.00
  -27   21    6     -2.41      0.00
  -24   21    6      2.56      0.00
  -21   21    6     -5.09      0.00
  -18   21    6    -11.89      0.00
  -15   21    6     -6.10      0.00
  -12   21    6     -0.68      0.00
   -9   21    6      3.96      0.00
   -6   21    6     -0.32      0.00
   -3   21    6      4.51      0.00
    0   21    6     -2.16      0.00
    3   21    6      5.76      0.00
    6   21    6      3.62      0.00
    9   21    6     -2.77      0.00
   12   21    6     -0.13      0.00
   15   21    6      4.87      0.00
   18   21    6     -1.61      0.00
   21   21    6      2.07      0.00
  -41   22    6      2.84      0.00
  -38   22    6      4.61      0.00
  -35   22    6      1.28      0.00
  -32   22    6     -1.50      0.00
  -29   22    6     -1.04      0.00
  -26   22    6      3.70      0.00
  -23   22    6     -6.82      0.00
  -20   22    6      0.65      0.00
  -17   22    6      4.09      0.00
  -14   22    6      2.42      0.00
  -11   22    6     -4.24      0.00
   -8   22    6     -6.92      0.00
   -5   22    6     -6.97      0.00
   -2   22    6     -1.04      0.00
    1   22    6      3.69      0.00
    4   22    6    -10.17      0.00
    7   22    6     -8.83      0.00
   10   22    6      6.33      0.00
   13   22    6      4.78      0.00
   16   22    6     -3.80      0.00
   19   22    6     -3.75      0.00
  -43   23    6      0.91      0.00
  -40   23    6      0.62      0.00
  -37   23    6      2.17      0.00
  -34   23    6      4.57      0.00
  -31   23    6      2.79      0.00
  -28   23    6     -4.66      0.00
  -25   23    6     -6.06      0.00
  -22   23    6      3.69      0.00
  -19   23    6     -1.59      0.00
  -16   23    6    -13.38      0.00
  -13   23    6     -8.12      0.00
  -10   23    6      8.53      0.00
   -7   23    6      3.07      0.00
   -4   23    6      1.53      0.00
   -1   23    6      3.14      0.00
    2   23    6     -2.47      0.00
    5   23    6      2.78      0.00
    8   23    6      4.99      0.00
   11   23    6     -1.55      0.00
   14   23    6      0.33      0.00
   17   23    6     -0.12      0.00
   20   23    6      1.80      0.00
  -42   24    6     -1.84      0.00
  -39   24    6     -3.58      0.00
  -36   24    6     -1.21      0.00
  -33   24    6     -2.69      0.00
  -30   24    6     -1.44      0.00
  -27   24    6      1.52      0.00
  -24   24    6      7.32      0.00
  -21   24    6      5.89      0.00
  -18   24    6     -0.30      0.00
  -15   24    6     -1.91      0.00
  -12   24    6      5.19      0.00
   -9   24    6      4.49      0.00
   -6   24    6      5.88      0.00
   -3   24    6     -0.75      0.00
    0   24    6     -5.97      0.00
    3   24    6      3.16      0.00
    6   24    6      3.97      0.00
    9   24    6     -5.16      0.00
   12   24    6     -2.82      0.00
   15   24    6      1.27      0.00
   18   24    6      0.31      0.00
  -41   25    6      3.20      0.00
  -38   25    6      5.30      0.00
  -35   25    6     -3.93      0.00
  -32   25    6     -2.01      0.00
  -29   25    6      7.13      0.00
  -26   25    6      2.67      0.00
  -23   25    6     -6.28      0.00
  -20   25    6      0.37      0.00
  -17   25    6     11.72      0.00
  -14   25    6      5.63      0.00
  -11   25    6     -5.39      0.00
   -8   25    6     -7.35      0.00
   -5   25    6     -3.48      0.00
   -2   25    6      6.29      0.00
    1   25    6     -1.38      0.00
    4   25    6     -5.27      0.00
    7   25    6     -1.56      0.00
   10   25    6      4.70      0.00
   13   25    6      2.86      0.00
   16   25    6     -1.73      0.00
  -43   26    6      0.60      0.00
  -40   26    6     -0.86      0.00
  -37   26    6     -4.25      0.00
  -34   26    6     -4.39      0.00
  -31   26    6      3.75      0.00
  -28   26    6     -1.85      0.00
  -25   26    6      0.49      0.00
  -22   26    6     -1.78      0.00
  -19   26    6     -3.48      0.00
  -16   26    6     -2.07      0.00
  -13   26    6      8.23      0.00
  -10   26    6      3.76      0.00
   -7   26    6      3.23      0.00
   -4   26    6      6.78      0.00
   -1   26    6      0.62      0.00
    2   26    6     -1.59      0.00
    5   26    6      4.97      0.00
    8   26    6      1.09      0.00
   11   26    6     -1.22      0.00
   14   26    6     -0.97      0.00
   17   26    6      2.65      0.00
  -42   27    6     -1.08      0.00
  -39   27    6      2.32      0.00
  -36   27    6      3.07      0.00
  -33   27    6     -0.03      0.00
  -30   27    6     -5.38      0.00
  -27   27    6      5.28      0.00
  -24   27    6      9.76      0.00
  -21   27    6      4.44      0.00
  -18   27    6     -1.67      0.00
  -15   27    6     -5.26      0.00
  -12   27    6      1.50      0.00
   -9   27    6      8.18      0.00
   -6   27    6     -1.12      0.00
   -3   27    6    -10.70      0.00
    0   27    6     -3.62      0.00
    3   27    6      5.37      0.00
    6   27    6     -2.24      0.00
    9   27    6     -3.62      0.00
   15   27    6      1.68      0.00
  -41   28    6      0.81      0.00
  -38   28    6      2.79      0.00
  -35   28    6     -1.87      0.00
  -32   28    6      1.59      0.00
  -29   28    6      2.78      0.00
  -26   28    6     -5.82      0.00
  -23   28    6     -7.33      0.00
  -20   28    6      0.98      0.00
  -17   28    6     -1.11      0.00
  -14   28    6     -5.55      0.00
  -11   28    6     -3.88      0.00
   -8   28    6     -3.89      0.00
   -5   28    6     -1.81      0.00
   -2   28    6      8.40      0.00
    1   28    6      1.94      0.00
    4   28    6     -4.25      0.00
    7   28    6     -1.90      0.00
   10   28    6      3.60      0.00
  -40   29    6     -2.73      0.00
  -37   29    6     -5.49      0.00
  -34   29    6      2.61      0.00
  -31   29    6      1.68      0.00
  -28   29    6     -0.04      0.00
  -25   29    6     -3.16      0.00
  -22   29    6      0.74      0.00
  -19   29    6      3.66      0.00
  -16   29    6      8.65      0.00
  -13   29    6      7.32      0.00
  -10   29    6     -5.60      0.00
   -7   29    6      1.76      0.00
   -4   29    6      4.94      0.00
   -1   29    6     -1.61      0.00
    2   29    6     -2.88      0.00
    5   29    6      3.28      0.00
    8   29    6      2.60      0.00
   11   29    6     -1.27      0.00
  -42   30    6     -2.53      0.00
  -39   30    6      4.75      0.00
  -36   30    6      4.75      0.00
  -33   30    6     -3.18      0.00
  -30   30    6     -1.74      0.00
  -27   30    6      3.14      0.00
  -24   30    6      9.01      0.00
  -21   30    6      0.05      0.00
  -18   30    6     -3.34      0.00
  -15   30    6     -1.38      0.00
  -12   30    6      1.63      0.00
   -9   30    6      5.71      0.00
   -6   30    6     -7.22      0.00
   -3   30    6     -8.08      0.00
    0   30    6     -0.50      0.00
    3   30    6      2.55      0.00
    6   30    6     -0.92      0.00
    9   30    6     -2.41      0.00
   12   30    6      3.19      0.00
  -41   31    6      1.11      0.00
  -38   31    6     -2.63      0.00
  -35   31    6     -2.07      0.00
  -32   31    6     -0.08      0.00
  -29   31    6      0.22      0.00
  -26   31    6     -2.14      0.00
  -23   31    6      3.35      0.00
  -20   31    6     -0.77      0.00
  -17   31    6     -4.90      0.00
  -14   31    6      1.56      0.00
  -11   31    6      3.48      0.00
   -8   31    6      2.31      0.00
   -5   31    6      1.92      0.00
   -2   31    6      5.16      0.00
    1   31    6      1.94      0.00
    4   31    6     -1.37      0.00
    7   31    6     -2.08      0.00
   10   31    6     -1.84      0.00
  -40   32    6     -2.07      0.00
  -37   32    6     -1.62      0.00
  -34   32    6      4.98      0.00
  -31   32    6      3.72      0.00
  -28   32    6     -3.01      0.00
  -25   32    6      0.52      0.00
  -22   32    6      1.85      0.00
  -19   32    6      8.14      0.00
  -16   32    6     10.03      0.00
  -13   32    6     -4.96      0.00
  -10   32    6     -0.18      0.00
   -7   32    6      3.95      0.00
   -4   32    6      2.74      0.00
   -1   32    6     -2.49      0.00
    2   32    6     -0.80      0.00
    5   32    6      3.13      0.00
    8   32    6     -1.96      0.00
  -39   33    6      2.80      0.00
  -36   33    6      1.24      0.00
  -33   33    6     -2.64      0.00
  -30   33    6      1.31      0.00
  -27   33    6      2.74      0.00
  -24   33    6     -3.75      0.00
  -21   33    6     -2.43      0.00
  -18   33    6      0.92      0.00
  -15   33    6     -4.36      0.00
  -12   33    6      1.54      0.00
   -9   33    6      0.65      0.00
   -6   33    6     -3.76      0.00
   -3   33    6     -2.76      0.00
    0   33    6      3.47      0.00
    3   33    6      2.67      0.00
    6   33    6     -3.22      0.00
  -38   34    6     -2.51      0.00
  -35   34    6     -3.19      0.00
  -32   34    6     -2.07      0.00
  -29   34    6      1.24      0.00
  -26   34    6      0.98      0.00
  -23   34    6      0.02      0.00
  -20   34    6     -4.44      0.00
  -17   34    6      2.08      0.00
  -14   34    6      7.67      0.00
  -11   34    6      4.42      0.00
   -8   34    6     -5.79      0.00
   -5   34    6      0.70      0.00
   -2   34    6      2.38      0.00
    1   34    6      1.57      0.00
    4   34    6      2.13      0.00
  -37   35    6      2.75      0.00
  -34   35    6      1.84      0.00
  -31   35    6     -1.53      0.00
  -28   35    6     -2.40      0.00
  -25   35    6     -2.28      0.00
  -22   35    6      1.70      0.00
  -19   35    6      4.93      0.00
  -16   35    6      0.05      0.00
  -13   35    6     -1.05      0.00
  -10   35    6     -0.45      0.00
   -7   35    6      3.68      0.00
   -4   35    6     -2.08      0.00
   -1   35    6     -4.88      0.00
    2   35    6      0.31      0.00
  -39   36    6      0.42      0.00
  -36   36    6      0.26      0.00
  -33   36    6     -0.67      0.00
  -30   36    6      1.75      0.00
  -27   36    6     -1.05      0.00
  -24   36    6     -1.09      0.00
  -21   36    6      2.07      0.00
  -18   36    6     -1.20      0.00
  -15   36    6     -6.12      0.00
  -12   36    6      1.55      0.00
   -9   36    6     -0.41      0.00
   -6   36    6      1.03      0.00
   -3   36    6      0.92      0.00
    0   36    6      0.73      0.00
    3   36    6     -0.68      0.00
  -38   37    6      0.03      0.00
  -35   37    6     -1.34      0.00
  -32   37    6     -0.32      0.00
  -29   37    6      3.17      0.00
  -26   37    6      4.81      0.00
  -23   37    6     -2.10      0.00
  -20   37    6     -0.32      0.00
  -17   37    6      5.83      0.00
  -14   37    6      6.16      0.00
  -11   37    6     -2.59      0.00
   -8   37    6     -3.19      0.00
   -5   37    6      1.16      0.00
   -2   37    6      3.05      0.00
    1   37    6     -0.35      0.00
  -37   38    6      1.82      0.00
  -34   38    6      1.59      0.00
  -31   38    6     -3.32      0.00
  -28   38    6      0.71      0.00
  -25   38    6     -2.64      0.00
  -22   38    6     -1.31      0.00
  -19   38    6      2.99      0.00
  -16   38    6     -0.69      0.00
  -13   38    6      0.26      0.00
  -10   38    6      1.38      0.00
   -7   38    6      1.92      0.00
   -4   38    6     -1.89      0.00
   -1   38    6     -1.51      0.00
  -36   39    6      3.83      0.00
  -33   39    6      2.54      0.00
  -30   39    6     -1.29      0.00
  -27   39    6     -0.66      0.00
  -24   39    6     -1.85      0.00
  -21   39    6      3.56      0.00
  -18   39    6     -2.19      0.00
  -15   39    6      0.23      0.00
  -12   39    6      2.22      0.00
   -9   39    6      3.05      0.00
   -6   39    6     -2.56      0.00
   -3   39    6      1.62      0.00
  -32   40    6     -1.37      0.00
  -29   40    6     -0.26      0.00
  -26   40    6     -0.65      0.00
  -23   40    6      0.23      0.00
  -20   40    6      0.44      0.00
  -17   40    6      4.67      0.00
  -14   40    6      1.23      0.00
  -11   40    6     -1.39      0.00
   -8   40    6     -1.61      0.00
  -28   41    6      0.35      0.00
  -25   41    6     -1.49      0.00
  -22   41    6      1.59      0.00
  -19   41    6      0.70      0.00
  -16   41    6      0.14      0.00
  -13   41    6     -4.33      0.00
  -10   41    6      3.27      0.00
  -30   42    6     -1.48      0.00
  -27   42    6      1.08      0.00
  -24   42    6      3.62      0.00
  -21   42    6     -0.12      0.00
  -18   42    6      1.89      0.00
  -15   42    6      1.83      0.00
  -12   42    6      2.42      0.00
  -26   43    6      1.99      0.00
  -23   43    6     -0.95      0.00
  -20   43    6     -2.77      0.00
  -17   43    6      1.26      0.00
   -1    1    7     -0.45      0.00
   -3    2    7      6.56      0.00
    0    2    7     -2.19      0.00
   -5    3    7     -1.68      0.00
   -2    3    7     -1.57      0.00
    1    3    7     -7.58      0.00
   -7    4    7      8.39      0.00
   -4    4    7     -1.91      0.00
   -1    4    7    -14.05      0.00
    2    4    7      3.73      0.00
   -9    5    7     -5.26      0.00
   -6    5    7     -4.08      0.00
   -3    5    7      1.75      0.00
    0    5    7     -5.43      0.00
    3    5    7    -14.42      0.00
  -11    6    7     -5.49      0.00
   -8    6    7     -4.09      0.00
   -5    6    7      7.81      0.00
   -2    6    7     -2.07      0.00
    1    6    7      2.89      0.00
    4    6    7      9.97      0.00
  -13    7    7      8.21      0.00
  -10    7    7     15.77      0.00
   -7    7    7      0.64      0.00
   -4    7    7     -9.16      0.00
   -1    7    7      0.91      0.00
    2    7    7      5.82      0.00
    5    7    7     -7.28      0.00
  -15    8    7     -3.05      0.00
  -12    8    7     -8.09      0.00
   -9    8    7    -15.11      0.00
   -6    8    7    -10.27      0.00
   -3    8    7      4.30      0.00
    0    8    7      3.18      0.00
    3    8    7    -12.65      0.00
    6    8    7      5.06      0.00
  -17    9    7     10.94      0.00
  -14    9    7      0.42      0.00
  -11    9    7     -1.73      0.00
   -8    9    7     13.71      0.00
   -5    9    7     12.00      0.00
   -2    9    7    -11.24      0.00
    1    9    7     -4.09      0.00
    4    9    7      4.85      0.00
    7    9    7      1.45      0.00
  -16   10    7     -1.21      0.00
  -13   10    7     -0.54      0.00
  -10   10    7      6.68      0.00
   -7   10    7     -2.57      0.00
   -4   10    7    -11.60      0.00
   -1   10    7      3.51      0.00
    2   10    7      3.74      0.00
    5   10    7     -8.92      0.00
    8   10    7    -10.64      0.00
  -21   11    7      2.31      0.00
  -18   11    7      1.09      0.00
  -15   11    7      9.55      0.00
  -12   11    7      4.27      0.00
   -9   11    7     -9.98      0.00
   -6   11    7      0.23      0.00
   -3   11    7     13.39      0.00
    0   11    7      3.32      0.00
    3   11    7     -0.94      0.00
    6   11    7      1.32      0.00
    9   11    7     -0.40      0.00
  -23   12    7     -7.32      0.00
  -20   12    7      2.42      0.00
  -17   12    7     -0.75      0.00
  -14   12    7     -6.81      0.00
  -11   12    7      1.53      0.00
   -8   12    7     17.60      0.00
   -5   12    7      6.03      0.00
   -2   12    7    -17.29      0.00
    1   12    7     -0.58      0.00
    4   12    7      4.57      0.00
    7   12    7     -0.53      0.00
   10   12    7     -2.39      0.00
  -25   13    7      0.26      0.00
  -22   13    7      9.71      0.00
  -19   13    7     -2.23      0.00
  -16   13    7     -7.15      0.00
  -13   13    7      0.16      0.00
  -10   13    7     -0.07      0.00
   -7   13    7     -9.87      0.00
   -4   13    7     -3.25      0.00
   -1   13    7      4.38      0.00
    2   13    7      1.20      0.00
    5   13    7     -4.20      0.00
    8   13    7      2.52      0.00
   11   13    7      1.51      0.00
  -27   14    7      2.63      0.00
  -24   14    7     -1.66      0.00
  -21   14    7     -2.57      0.00
  -18   14    7      4.43      0.00
  -15   14    7     10.24      0.00
  -12   14    7     -1.73      0.00
   -9   14    7    -10.59      0.00
   -6   14    7      6.48      0.00
   -3   14    7      9.74      0.00
    0   14    7     -0.39      0.00
    3   14    7     -5.95      0.00
    6   14    7      1.82      0.00
    9   14    7     -6.48      0.00
   12   14    7      1.28      0.00
  -29   15    7      5.99      0.00
  -26   15    7      0.18      0.00
  -23   15    7     -2.71      0.00
  -20   15    7     -1.19      0.00
  -17   15    7     -9.00      0.00
  -14   15    7    -14.98      0.00
  -11   15    7     -4.70      0.00
   -8   15    7      8.09      0.00
   -5   15    7    -10.48      0.00
   -2   15    7    -13.63      0.00
    1   15    7     -2.34      0.00
    4   15    7      5.21      0.00
    7   15    7     -3.09      0.00
   10   15    7      0.56      0.00
   13   15    7     -0.49      0.00
  -31   16    7     -5.54      0.00
  -28   16    7     -4.85      0.00
  -25   16    7      2.67      0.00
  -22   16    7      8.53      0.00
  -19   16    7      2.44      0.00
  -16   16    7     -5.55      0.00
  -13   16    7      3.72      0.00
  -10   16    7     11.57      0.00
   -7   16    7     -5.30      0.00
   -4   16    7      0.62      0.00
   -1   16    7      1.53      0.00
    2   16    7      0.23      0.00
    5   16    7      0.04      0.00
    8   16    7      4.64      0.00
   11   16    7     -0.46      0.00
   14   16    7     -2.80      0.00
  -33   17    7      0.69      0.00
  -30   17    7     -1.44      0.00
  -27   17    7      3.74      0.00
  -24   17    7     -4.67      0.00
  -21   17    7     -4.23      0.00
  -18   17    7      3.49      0.00
  -15   17    7      7.10      0.00
  -12   17    7     -5.73      0.00
   -9   17    7      2.20      0.00
   -6   17    7      6.33      0.00
   -3   17    7      9.62      0.00
    0   17    7     -3.99      0.00
    3   17    7     -1.14      0.00
    6   17    7     -4.04      0.00
    9   17    7     -1.64      0.00
   12   17    7      2.84      0.00
   15   17    7      2.48      0.00
  -35   18    7     -1.45      0.00
  -32   18    7     -1.74      0.00
  -29   18    7      1.37      0.00
  -26   18    7     -0.35      0.00
  -23   18    7      3.79      0.00
  -20   18    7      4.31      0.00
  -17   18    7     -4.70      0.00
  -14   18    7    -11.23      0.00
  -11   18    7      3.06      0.00
   -8   18    7     -3.85      0.00
   -2   18    7     -6.86      0.00
    1   18    7      4.78      0.00
    4   18    7     -3.22      0.00
    7   18    7      1.38      0.00
   10   18    7      2.44      0.00
   13   18    7     -3.83      0.00
   16   18    7     -3.25      0.00
  -37   19    7      0.16      0.00
  -34   19    7      3.00      0.00
  -31   19    7     -6.05      0.00
  -28   19    7     -4.82      0.00
  -25   19    7      1.06      0.00
  -22   19    7      1.90      0.00
  -19   19    7     -4.93      0.00
  -16   19    7     -4.18      0.00
  -13   19    7      1.88      0.00
  -10   19    7      5.14      0.00
   -7   19    7     -0.89      0.00
   -4   19    7      0.62      0.00
   -1   19    7     -2.16      0.00
    2   19    7     -0.32      0.00
    5   19    7      5.19      0.00
    8   19    7      1.44      0.00
   11   19    7     -5.13      0.00
   14   19    7     -0.31      0.00
   17   19    7      1.73      0.00
  -39   20    7     -4.20      0.00
  -36   20    7     -0.82      0.00
  -33   20    7     -0.64      0.00
  -30   20    7      6.14      0.00
  -27   20    7      2.95      0.00
  -24   20    7     -1.70      0.00
  -21   20    7     -5.68      0.00
  -18   20    7      2.37      0.00
  -15   20    7     -1.24      0.00
  -12   20    7    -11.35      0.00
   -9   20    7     -8.23      0.00
   -6   20    7      0.65      0.00
   -3   20    7     -1.98      0.00
    0   20    7      1.19      0.00
    3   20    7      4.00      0.00
    6   20    7     -0.98      0.00
    9   20    7     -1.08      0.00
   12   20    7      1.76      0.00
   15   20    7      0.60      0.00
   18   20    7      0.87      0.00
  -38   21    7      0.74      0.00
  -35   21    7     -1.15      0.00
  -32   21    7     -0.09      0.00
  -29   21    7      2.22      0.00
  -26   21    7      0.53      0.00
  -23   21    7      2.77      0.00
  -20   21    7      6.64      0.00
  -17   21    7     -2.87      0.00
  -14   21    7     -2.52      0.00
  -11   21    7     -2.18      0.00
   -8   21    7     -3.50      0.00
   -5   21    7     -6.83      0.00
   -2   21    7      1.82      0.00
    1   21    7      1.41      0.00
    4   21    7     -3.02      0.00
    7   21    7      4.34      0.00
   10   21    7      3.28      0.00
   13   21    7     -3.81      0.00
   16   21    7     -0.95      0.00
   19   21    7     -0.13      0.00
  -40   22    7     -0.72      0.00
  -37   22    7      5.79      0.00
  -34   22    7      3.07      0.00
  -31   22    7     -1.78      0.00
  -28   22    7     -5.75      0.00
  -25   22    7      3.85      0.00
  -22   22    7     -4.23      0.00
  -19   22    7    -10.91      0.00
  -16   22    7     -3.56      0.00
  -13   22    7      3.48      0.00
  -10   22    7      7.16      0.00
   -7   22    7      1.28      0.00
   -4   22    7      1.15      0.00
   -1   22    7     -4.78      0.00
    2   22    7     -0.56      0.00
    5   22    7      1.37      0.00
    8   22    7     -1.83      0.00
   14   22    7      2.05      0.00
   17   22    7      1.16      0.00
  -39   23    7     -0.13      0.00
  -36   23    7     -2.27      0.00
  -33   23    7     -2.69      0.00
  -30   23    7      0.96      0.00
  -27   23    7      2.40      0.00
  -24   23    7      0.59      0.00
  -21   23    7      4.96      0.00
  -18   23    7      3.63      0.00
  -15   23    7      2.32      0.00
  -12   23    7     -2.47      0.00
   -9   23    7     -0.69      0.00
   -6   23    7     -0.42      0.00
   -3   23    7      0.46      0.00
    0   23    7      4.49      0.00
    3   23    7      0.36      0.00
    6   23    7     -2.58      0.00
    9   23    7     -1.82      0.00
   12   23    7      0.86      0.00
   15   23    7      1.70      0.00
  -38   24    7      2.28      0.00
  -35   24    7      0.61      0.00
  -32   24    7      4.17      0.00
  -29   24    7     -1.32      0.00
  -26   24    7     -0.78      0.00
  -23   24    7      0.65      0.00
  -20   24    7      5.14      0.00
  -17   24    7      3.99      0.00
  -14   24    7     -0.18      0.00
  -11   24    7     -3.10      0.00
   -8   24    7     -1.71      0.00
   -5   24    7      6.39      0.00
   -2   24    7      4.31      0.00
    1   24    7     -3.31      0.00
    4   24    7     -1.17      0.00
    7   24    7      4.33      0.00
   10   24    7      0.94      0.00
   13   24    7     -3.28      0.00
   16   24    7     -0.96      0.00
  -40   25    7     -0.13      0.00
  -37   25    7     -0.62      0.00
  -34   25    7      0.47      0.00
  -31   25    7     -0.88      0.00
  -28   25    7      2.60      0.00
  -25   25    7      6.79      0.00
  -22   25    7     -4.32      0.00
  -19   25    7     -5.97      0.00
  -16   25    7     -0.65      0.00
  -13   25    7      1.26      0.00
  -10   25    7     -2.48      0.00
   -7   25    7      3.39      0.00
   -4   25    7     -3.55      0.00
   -1   25    7     -5.21      0.00
    2   25    7      2.54      0.00
    5   25    7      4.54      0.00
    8   25    7     -1.05      0.00
   11   25    7      0.04      0.00
   14   25    7     -1.79      0.00
  -39   26    7      0.74      0.00
  -36   26    7     -4.36      0.00
  -33   26    7     -8.04      0.00
  -30   26    7     -1.06      0.00
  -27   26    7      4.27      0.00
  -24   26    7      0.61      0.00
  -21   26    7      3.65      0.00
  -18   26    7     -1.92      0.00
  -15   26    7     -0.83      0.00
  -12   26    7      0.06      0.00
   -9   26    7      2.05      0.00
   -6   26    7     -6.47      0.00
   -3   26    7     -0.93      0.00
    0   26    7      3.92      0.00
    3   26    7     -2.14      0.00
    6   26    7     -5.00      0.00
    9   26    7      2.96      0.00
   12   26    7      1.97      0.00
  -38   27    7     -0.04      0.00
  -35   27    7      2.55      0.00
  -32   27    7      3.68      0.00
  -29   27    7     -4.70      0.00
  -26   27    7     -1.72      0.00
  -23   27    7      0.31      0.00
  -20   27    7      1.80      0.00
  -17   27    7     -2.76      0.00
  -14   27    7     -1.90      0.00
  -11   27    7     -3.62      0.00
   -8   27    7      2.61      0.00
   -5   27    7      8.01      0.00
   -2   27    7      2.68      0.00
    1   27    7     -3.48      0.00
    4   27    7     -2.87      0.00
    7   27    7     -1.84      0.00
   10   27    7     -0.77      0.00
   13   27    7     -2.28      0.00
  -37   28    7      1.06      0.00
  -34   28    7     -0.60      0.00
  -31   28    7     -1.57      0.00
  -28   28    7      3.86      0.00
  -25   28    7      1.13      0.00
  -22   28    7     -0.15      0.00
  -19   28    7     -1.37      0.00
  -16   28    7      1.60      0.00
  -13   28    7     -4.96      0.00
  -10   28    7     -0.65      0.00
   -7   28    7      2.93      0.00
   -4   28    7     -0.99      0.00
   -1   28    7     -1.93      0.00
    2   28    7      3.07      0.00
    5   28    7      3.30      0.00
    8   28    7     -3.43      0.00
   11   28    7     -4.82      0.00
  -39   29    7      1.49      0.00
  -36   29    7     -3.63      0.00
  -33   29    7     -3.89      0.00
  -30   29    7     -1.14      0.00
  -27   29    7      2.26      0.00
  -24   29    7     -1.89      0.00
  -21   29    7     -2.15      0.00
  -18   29    7      1.00      0.00
  -15   29    7      5.85      0.00
  -12   29    7      6.89      0.00
   -9   29    7     -3.93      0.00
   -6   29    7     -2.72      0.00
   -3   29    7      2.97      0.00
    0   29    7      2.59      0.00
    3   29    7      0.04      0.00
    6   29    7     -1.15      0.00
    9   29    7     -0.91      0.00
  -38   30    7     -2.68      0.00
  -35   30    7      2.87      0.00
  -32   30    7     -0.45      0.00
  -29   30    7     -0.46      0.00
  -26   30    7      2.48      0.00
  -23   30    7      3.58      0.00
  -20   30    7      2.12      0.00
  -17   30    7      5.83      0.00
  -14   30    7      5.42      0.00
  -11   30    7     -2.82      0.00
   -8   30    7      2.97      0.00
   -5   30    7      4.24      0.00
   -2   30    7      1.55      0.00
    1   30    7     -0.54      0.00
    4   30    7      4.90      0.00
    7   30    7     -0.67      0.00
  -37   31    7      3.16      0.00
  -34   31    7     -0.80      0.00
  -31   31    7     -5.74      0.00
  -28   31    7      0.89      0.00
  -25   31    7     -2.31      0.00
  -22   31    7     -2.48      0.00
  -19   31    7     -0.94      0.00
  -16   31    7     -4.38      0.00
  -13   31    7     -3.65      0.00
  -10   31    7      3.76      0.00
   -7   31    7      2.35      0.00
   -4   31    7     -3.36      0.00
   -1   31    7     -2.87      0.00
    2   31    7      2.79      0.00
    5   31    7      1.28      0.00
  -36   32    7     -0.88      0.00
  -33   32    7      0.16      0.00
  -30   32    7      1.37      0.00
  -27   32    7     -4.21      0.00
  -24   32    7     -5.11      0.00
  -21   32    7     -3.98      0.00
  -18   32    7     -2.50      0.00
  -15   32    7      1.47      0.00
  -12   32    7      2.52      0.00
   -9   32    7      0.63      0.00
   -6   32    7     -0.98      0.00
   -3   32    7      2.86      0.00
    0   32    7      1.92      0.00
    3   32    7     -0.46      0.00
  -35   33    7      4.39      0.00
  -32   33    7     -0.51      0.00
  -29   33    7      0.14      0.00
  -26   33    7     -0.53      0.00
  -23   33    7      0.79      0.00
  -20   33    7      0.75      0.00
  -17   33    7      8.02      0.00
  -14   33    7     -2.00      0.00
  -11   33    7     -4.36      0.00
   -8   33    7      0.84      0.00
   -5   33    7      1.45      0.00
   -2   33    7     -0.97      0.00
    1   33    7      2.04      0.00
    4   33    7      0.88      0.00
  -34   34    7     -0.16      0.00
  -31   34    7     -5.67      0.00
  -25   34    7     -1.91      0.00
  -22   34    7     -3.15      0.00
  -19   34    7     -3.06      0.00
  -16   34    7     -5.41      0.00
  -13   34    7      1.57      0.00
  -10   34    7      3.89      0.00
   -7   34    7     -2.14      0.00
   -4   34    7     -3.73      0.00
   -1   34    7     -0.56      0.00
    2   34    7      0.65      0.00
  -33   35    7      2.93      0.00
  -30   35    7      0.68      0.00
  -27   35    7     -2.53      0.00
  -24   35    7      3.31      0.00
  -21   35    7      0.30      0.00
  -18   35    7      0.32      0.00
  -15   35    7      1.11      0.00
  -12   35    7      3.33      0.00
   -9   35    7     -0.05      0.00
   -6   35    7     -0.44      0.00
   -3   35    7      1.58      0.00
    0   35    7      4.38      0.00
  -32   36    7      0.75      0.00
  -29   36    7     -0.31      0.00
  -26   36    7     -0.23      0.00
  -23   36    7      1.00      0.00
  -20   36    7      4.31      0.00
  -17   36    7      4.43      0.00
  -14   36    7     -3.03      0.00
  -11   36    7     -2.40      0.00
   -8   36    7     -1.76      0.00
   -5   36    7      2.17      0.00
   -2   36    7     -0.98      0.00
  -31   37    7      0.65      0.00
  -28   37    7     -3.52      0.00
  -25   37    7     -3.20      0.00
  -22   37    7     -1.27      0.00
  -19   37    7     -1.81      0.00
  -16   37    7     -1.60      0.00
  -13   37    7      2.51      0.00
  -10   37    7     -2.72      0.00
   -7   37    7     -0.16      0.00
   -4   37    7      0.41      0.00
  -30   38    7      5.38      0.00
  -27   38    7     -1.91      0.00
  -24   38    7      2.79      0.00
  -21   38    7     -2.78      0.00
  -18   38    7      1.77      0.00
  -15   38    7      3.23      0.00
  -12   38    7      1.64      0.00
   -9   38    7     -4.08      0.00
  -29   39    7     -3.49      0.00
  -26   39    7     -2.62      0.00
  -23   39    7     -3.76      0.00
  -20   39    7     -1.19      0.00
  -17   39    7     -2.02      0.00
  -14   39    7     -0.22      0.00
  -11   39    7      0.32      0.00
  -25   40    7     -0.73      0.00
  -22   40    7     -0.02      0.00
  -19   40    7     -1.29      0.00
  -16   40    7     -2.71      0.00
  -13   40    7      0.68      0.00
    0    1    8      0.70      0.00
   -2    2    8     -3.39      0.00
    1    2    8     -3.77      0.00
   -4    3    8      1.11      0.00
   -1    3    8     -3.90      0.00
    2    3    8     -3.97      0.00
   -6    4    8      0.30      0.00
   -3    4    8     -6.55      0.00
    0    4    8     -7.59      0.00
    3    4    8      2.75      0.00
   -8    5    8     -0.77      0.00
   -5    5    8     -3.48      0.00
   -2    5    8     -2.66      0.00
    1    5    8      1.03      0.00
    4    5    8     -1.62      0.00
  -10    6    8     -3.68      0.00
   -7    6    8     -4.03      0.00
   -4    6    8      5.12      0.00
   -1    6    8     -4.69      0.00
    2    6    8     -7.51      0.00
    5    6    8     -2.79      0.00
  -12    7    8     -1.76      0.00
   -9    7    8      0.61      0.00
   -6    7    8     -2.99      0.00
   -3    7    8      0.52      0.00
    0    7    8      0.08      0.00
    3    7    8     -2.59      0.00
    6    7    8      4.15      0.00
  -14    8    8      2.97      0.00
  -11    8    8      6.95      0.00
   -8    8    8     -1.23      0.00
   -5    8    8     -7.41      0.00
   -2    8    8      3.08      0.00
    1    8    8      2.59      0.00
    4    8    8     -2.76      0.00
    7    8    8     -1.26      0.00
  -16    9    8     -4.21      0.00
  -13    9    8     -4.95      0.00
  -10    9    8     -5.19      0.00
   -7    9    8     -7.29      0.00
   -4    9    8      3.29      0.00
   -1    9    8     -4.22      0.00
    2    9    8     -9.74      0.00
    5    9    8      2.07      0.00
    8    9    8     -1.03      0.00
  -18   10    8      5.10      0.00
  -15   10    8      2.41      0.00
  -12   10    8      0.53      0.00
   -9   10    8     10.95      0.00
   -6   10    8      1.96      0.00
   -3   10    8     -1.66      0.00
    0   10    8     -0.28      0.00
    3   10    8      6.30      0.00
    6   10    8     -1.92      0.00
    9   10    8     -2.98      0.00
  -20   11    8     -1.53      0.00
  -17   11    8     -5.07      0.00
  -14   11    8      1.85      0.00
  -11   11    8      6.53      0.00
   -8   11    8     -4.48      0.00
   -5   11    8     -4.56      0.00
   -2   11    8     -2.81      0.00
    1   11    8      5.90      0.00
    4   11    8     -5.45      0.00
    7   11    8     -1.63      0.00
   10   11    8      3.87      0.00
  -22   12    8     -0.74      0.00
  -19   12    8     -1.92      0.00
  -16   12    8      3.49      0.00
  -13   12    8     -8.35      0.00
  -10   12    8     -2.78      0.00
   -7   12    8      3.50      0.00
   -4   12    8      1.87      0.00
   -1   12    8     -1.28      0.00
    2   12    8     -0.35      0.00
    5   12    8     -0.68      0.00
    8   12    8      2.45      0.00
   11   12    8     -2.16      0.00
  -24   13    8     -4.13      0.00
  -21   13    8      3.75      0.00
  -18   13    8      5.30      0.00
  -15   13    8      0.13      0.00
  -12   13    8      0.53      0.00
   -9   13    8      7.09      0.00
   -6   13    8      0.14      0.00
   -3   13    8    -11.65      0.00
    0   13    8      7.28      0.00
    3   13    8     -1.50      0.00
    6   13    8     -0.09      0.00
    9   13    8      0.66      0.00
   12   13    8      2.70      0.00
  -26   14    8      2.98      0.00
  -23   14    8      0.73      0.00
  -20   14    8     -5.66      0.00
  -17   14    8     -2.74      0.00
  -14   14    8      0.02      0.00
  -11   14    8      0.87      0.00
   -8   14    8     -7.23      0.00
   -5   14    8     -7.76      0.00
   -2   14    8      2.21      0.00
    1   14    8     -2.46      0.00
    4   14    8     -4.90      0.00
    7   14    8      4.56      0.00
   10   14    8      2.06      0.00
   13   14    8     -0.13      0.00
  -28   15    8     -1.29      0.00
  -25   15    8     -0.59      0.00
  -22   15    8      0.54      0.00
  -19   15    8      3.71      0.00
  -16   15    8      5.38      0.00
  -13   15    8      0.34      0.00
  -10   15    8      1.98      0.00
   -4   15    8      1.24      0.00
   -1   15    8     -0.32      0.00
    2   15    8     -2.41      0.00
    5   15    8      3.14      0.00
    8   15    8     -1.92      0.00
   11   15    8      1.88      0.00
   14   15    8      4.26      0.00
  -30   16    8      1.00      0.00
  -27   16    8     -1.10      0.00
  -24   16    8     -2.36      0.00
  -21   16    8      2.68      0.00
  -18   16    8     -1.46      0.00
  -15   16    8     -4.68      0.00
  -12   16    8     -0.18      0.00
   -9   16    8      2.89      0.00
   -6   16    8     -6.88      0.00
   -3   16    8     -5.80      0.00
    0   16    8     -0.46      0.00
    3   16    8     -0.96      0.00
    6   16    8     -1.26      0.00
    9   16    8      1.67      0.00
   12   16    8      0.58      0.00
   15   16    8     -2.76      0.00
  -32   17    8     -3.31      0.00
  -29   17    8     -2.54      0.00
  -26   17    8      3.94      0.00
  -23   17    8      6.30      0.00
  -20   17    8     -0.72      0.00
  -17   17    8     -0.68      0.00
  -14   17    8      5.01      0.00
  -11   17    8      2.10      0.00
   -8   17    8     -0.87      0.00
   -5   17    8      3.45      0.00
   -2   17    8     -0.33      0.00
    1   17    8     -4.58      0.00
    4   17    8      2.13      0.00
    7   17    8      5.57      0.00
   10   17    8     -3.32      0.00
   13   17    8     -0.73      0.00
   16   17    8     -0.41      0.00
  -34   18    8     -2.42      0.00
  -31   18    8     -1.58      0.00
  -28   18    8     -2.76      0.00
  -25   18    8     -4.62      0.00
  -22   18    8     -0.28      0.00
  -19   18    8      1.41      0.00
  -16   18    8      2.39      0.00
  -13   18    8     -3.15      0.00
  -10   18    8      0.27      0.00
   -7   18    8      3.12      0.00
   -4   18    8      1.40      0.00
   -1   18    8     -2.76      0.00
    2   18    8     -0.81      0.00
    5   18    8     -2.04      0.00
    8   18    8     -2.11      0.00
   11   18    8      2.57      0.00
   14   18    8      3.37      0.00
   17   18    8     -2.08      0.00
  -36   19    8     -0.69      0.00
  -33   19    8      3.49      0.00
  -30   19    8      1.60      0.00
  -27   19    8     -3.46      0.00
  -24   19    8     -0.87      0.00
  -21   19    8      0.04      0.00
  -18   19    8     -4.82      0.00
  -15   19    8     -3.78      0.00
  -12   19    8     -2.30      0.00
   -9   19    8     -7.24      0.00
   -6   19    8     -4.64      0.00
   -3   19    8      2.34      0.00
    0   19    8      3.04      0.00
    3   19    8     -4.98      0.00
    6   19    8     -0.28      0.00
    9   19    8     -0.19      0.00
   12   19    8     -0.01      0.00
   15   19    8     -2.32      0.00
   18   19    8      2.82      0.00
  -35   20    8     -4.27      0.00
  -32   20    8     -1.92      0.00
  -29   20    8     -1.15      0.00
  -26   20    8      2.50      0.00
  -23   20    8      3.48      0.00
  -20   20    8      0.63      0.00
  -17   20    8     -0.35      0.00
  -14   20    8      5.72      0.00
  -11   20    8      3.58      0.00
   -8   20    8      3.40      0.00
   -5   20    8      4.67      0.00
   -2   20    8     -1.57      0.00
    1   20    8     -0.30      0.00
    4   20    8      7.04      0.00
    7   20    8      2.84      0.00
   10   20    8     -4.11      0.00
   13   20    8     -3.42      0.00
   16   20    8      1.73      0.00
  -37   21    8      1.53      0.00
  -34   21    8     -0.04      0.00
  -31   21    8      2.02      0.00
  -28   21    8      3.17      0.00
  -25   21    8     -2.62      0.00
  -22   21    8     -4.06      0.00
  -19   21    8     -2.00      0.00
  -16   21    8     -2.49      0.00
  -13   21    8     -2.11      0.00
  -10   21    8     -1.25      0.00
   -7   21    8     -0.59      0.00
   -4   21    8     -2.83      0.00
   -1   21    8      0.63      0.00
    2   21    8     -1.38      0.00
    5   21    8     -1.72      0.00
    8   21    8      1.30      0.00
   11   21    8      3.27      0.00
   14   21    8     -2.47      0.00
  -36   22    8     -3.50      0.00
  -33   22    8     -1.54      0.00
  -30   22    8     -0.21      0.00
  -27   22    8      0.24      0.00
  -24   22    8     -0.48      0.00
  -21   22    8      2.36      0.00
  -18   22    8     -3.78      0.00
  -15   22    8      5.17      0.00
  -12   22    8      1.16      0.00
   -9   22    8     -1.10      0.00
   -6   22    8     -1.69      0.00
   -3   22    8      7.27      0.00
    0   22    8     -0.30      0.00
    3   22    8     -4.72      0.00
    6   22    8     -0.54      0.00
    9   22    8      2.63      0.00
   12   22    8     -1.77      0.00
   15   22    8     -4.35      0.00
  -35   23    8     -2.31      0.00
  -32   23    8     -4.16      0.00
  -29   23    8     -1.11      0.00
  -26   23    8      1.31      0.00
  -23   23    8     -2.02      0.00
  -20   23    8     -1.52      0.00
  -17   23    8     -0.70      0.00
  -14   23    8      0.90      0.00
  -11   23    8      3.38      0.00
   -8   23    8      2.32      0.00
   -5   23    8     -1.73      0.00
   -2   23    8     -3.58      0.00
    1   23    8      3.66      0.00
    4   23    8      4.91      0.00
    7   23    8     -0.62      0.00
   10   23    8     -4.19      0.00
   13   23    8     -1.76      0.00
  -34   24    8      0.88      0.00
  -31   24    8      1.81      0.00
  -28   24    8      3.27      0.00
  -25   24    8     -0.02      0.00
  -22   24    8      0.23      0.00
  -19   24    8     -2.53      0.00
  -16   24    8     -1.61      0.00
  -13   24    8     -6.81      0.00
  -10   24    8      0.05      0.00
   -7   24    8     -7.29      0.00
   -4   24    8     -2.79      0.00
   -1   24    8      4.13      0.00
    2   24    8      3.92      0.00
    5   24    8     -1.88      0.00
    8   24    8     -3.32      0.00
   11   24    8      1.34      0.00
  -36   25    8     -1.31      0.00
  -33   25    8     -1.72      0.00
  -30   25    8     -4.57      0.00
  -27   25    8      0.42      0.00
  -24   25    8      0.55      0.00
  -21   25    8      1.45      0.00
  -18   25    8      2.67      0.00
  -15   25    8     -0.34      0.00
  -12   25    8     -2.48      0.00
   -9   25    8     -2.26      0.00
   -6   25    8      3.37      0.00
   -3   25    8      4.11      0.00
    0   25    8     -0.96      0.00
    3   25    8     -2.41      0.00
    6   25    8     -0.58      0.00
    9   25    8     -1.16      0.00
  -35   26    8      1.74      0.00
  -32   26    8     -9.16      0.00
  -29   26    8     -5.69      0.00
  -26   26    8      1.91      0.00
  -23   26    8     -2.10      0.00
  -20   26    8     -1.22      0.00
  -17   26    8      0.39      0.00
  -14   26    8     -3.60      0.00
  -11   26    8      2.24      0.00
   -8   26    8      2.47      0.00
   -5   26    8     -1.06      0.00
   -2   26    8     -1.54      0.00
    1   26    8      3.30      0.00
    4   26    8      2.34      0.00
    7   26    8     -4.00      0.00
   10   26    8      0.12      0.00
  -34   27    8     -1.81      0.00
  -31   27    8     -3.84      0.00
  -28   27    8     -0.24      0.00
  -25   27    8      1.47      0.00
  -22   27    8      2.81      0.00
  -19   27    8     -0.10      0.00
  -16   27    8     -0.33      0.00
  -13   27    8      1.66      0.00
  -10   27    8      3.34      0.00
   -7   27    8     -1.59      0.00
   -4   27    8      1.29      0.00
   -1   27    8      4.34      0.00
    2   27    8      2.84      0.00
    5   27    8     -2.80      0.00
    8   27    8     -5.89      0.00
  -33   28    8     -1.73      0.00
  -30   28    8     -1.61      0.00
  -27   28    8     -1.83      0.00
  -24   28    8     -1.82      0.00
  -21   28    8     -0.51      0.00
  -18   28    8      3.09      0.00
  -15   28    8     -1.42      0.00
  -12   28    8     -3.04      0.00
   -9   28    8     -0.62      0.00
   -6   28    8      7.25      0.00
   -3   28    8      3.12      0.00
    0   28    8      0.42      0.00
    3   28    8      1.92      0.00
    6   28    8      0.73      0.00
  -35   29    8     -1.92      0.00
  -32   29    8     -0.13      0.00
  -29   29    8      0.75      0.00
  -26   29    8      0.13      0.00
  -23   29    8     -0.22      0.00
  -20   29    8      0.63      0.00
  -17   29    8      0.65      0.00
  -14   29    8     -1.92      0.00
  -11   29    8     -0.18      0.00
   -8   29    8      2.09      0.00
   -5   29    8     -2.34      0.00
   -2   29    8     -0.19      0.00
    1   29    8      1.83      0.00
    4   29    8      5.45      0.00
  -34   30    8     -1.97      0.00
  -31   30    8      2.87      0.00
  -28   30    8      0.11      0.00
  -25   30    8      2.45      0.00
  -22   30    8     -0.59      0.00
  -19   30    8     -1.65      0.00
  -16   30    8     -1.36      0.00
  -13   30    8      3.25      0.00
  -10   30    8     -2.94      0.00
   -7   30    8     -4.07      0.00
   -4   30    8      0.53      0.00
   -1   30    8      1.64      0.00
    2   30    8     -1.79      0.00
  -33   31    8      4.29      0.00
  -30   31    8     -0.08      0.00
  -27   31    8     -0.62      0.00
  -24   31    8     -1.44      0.00
  -21   31    8     -0.05      0.00
  -18   31    8     -3.96      0.00
  -15   31    8     -4.10      0.00
  -12   31    8     -4.58      0.00
   -9   31    8     -0.51      0.00
   -6   31    8      0.87      0.00
   -3   31    8      4.92      0.00
    0   31    8     -3.45      0.00
  -32   32    8      2.23      0.00
  -29   32    8      1.64      0.00
  -26   32    8     -1.92      0.00
  -23   32    8      1.40      0.00
  -20   32    8      2.99      0.00
  -17   32    8     -2.04      0.00
  -11   32    8      2.69      0.00
   -8   32    8      3.55      0.00
   -5   32    8     -2.20      0.00
   -2   32    8     -2.49      0.00
  -31   33    8     -0.73      0.00
  -28   33    8     -0.91      0.00
  -25   33    8      0.37      0.00
  -22   33    8     -0.86      0.00
  -19   33    8     -0.07      0.00
  -16   33    8     -0.10      0.00
  -13   33    8      1.08      0.00
  -10   33    8     -2.23      0.00
   -7   33    8     -2.25      0.00
   -4   33    8      2.84      0.00
  -27   34    8     -2.21      0.00
  -24   34    8      0.56      0.00
  -21   34    8      0.41      0.00
  -18   34    8      0.60      0.00
  -15   34    8     -1.06      0.00
  -12   34    8     -0.93      0.00
   -9   34    8      3.26      0.00
   -6   34    8     -1.35      0.00
  -29   35    8     -3.78      0.00
  -26   35    8     -0.89      0.00
  -23   35    8     -3.62      0.00
  -20   35    8      4.19      0.00
  -17   35    8     -2.18      0.00
  -14   35    8     -0.34      0.00
  -11   35    8      3.47      0.00
   -8   35    8      3.08      0.00
  -25   36    8     -4.13      0.00
  -22   36    8     -0.01      0.00
  -19   36    8     -1.04      0.00
  -16   36    8      0.77      0.00
  -13   36    8     -3.21      0.00
  -10   36    8     -1.42      0.00
  -21   37    8      0.76      0.00
  -18   37    8      1.15      0.00
  -15   37    8      0.83      0.00
    0    0    9      7.17      0.00
    1    1    9     -2.31      0.00
   -1    2    9     -4.27      0.00
    2    2    9      0.79      0.00
   -3    3    9      0.73      0.00
    0    3    9      5.31      0.00
    3    3    9     -1.66      0.00
   -5    4    9     -3.23      0.00
   -2    4    9     -5.72      0.00
    1    4    9     -2.24      0.00
    4    4    9      2.01      0.00
   -7    5    9      0.81      0.00
   -4    5    9     -2.76      0.00
   -1    5    9    -12.00      0.00
    2    5    9      2.73      0.00
    5    5    9      5.37      0.00
   -9    6    9     -2.04      0.00
   -6    6    9     -0.52      0.00
   -3    6    9     -0.64      0.00
    0    6    9     -3.50      0.00
    3    6    9     -4.29      0.00
    6    6    9     -0.25      0.00
  -11    7    9      4.09      0.00
   -8    7    9     -2.32      0.00
   -5    7    9     10.35      0.00
   -2    7    9     -3.54      0.00
    1    7    9      2.42      0.00
    4    7    9     -5.58      0.00
    7    7    9      2.47      0.00
  -13    8    9      3.62      0.00
  -10    8    9      1.66      0.00
   -7    8    9      0.76      0.00
   -4    8    9     -5.20      0.00
   -1    8    9      2.06      0.00
    2    8    9     -2.85      0.00
    5    8    9      3.31      0.00
    8    8    9     -0.77      0.00
  -15    9    9     -2.88      0.00
  -12    9    9      2.81      0.00
   -9    9    9     -3.76      0.00
   -6    9    9     -1.80      0.00
   -3    9    9     -0.05      0.00
    0    9    9      3.18      0.00
    3    9    9     -3.05      0.00
    6    9    9      2.29      0.00
    9    9    9      2.21      0.00
  -17   10    9      0.85      0.00
  -14   10    9     -0.34      0.00
  -11   10    9     -0.34      0.00
   -8   10    9      1.80      0.00
   -5   10    9     -1.47      0.00
   -2   10    9      1.37      0.00
    1   10    9     -7.27      0.00
    4   10    9     -1.59      0.00
    7   10    9      0.02      0.00
   10   10    9      1.73      0.00
  -19   11    9      0.03      0.00
  -16   11    9     -6.82      0.00
  -13   11    9      0.64      0.00
  -10   11    9      5.49      0.00
   -7   11    9     -5.59      0.00
   -4   11    9     -1.47      0.00
   -1   11    9      0.66      0.00
    2   11    9     -4.53      0.00
    5   11    9     -0.60      0.00
    8   11    9     -0.84      0.00
   11   11    9      0.48      0.00
  -21   12    9      4.16      0.00
  -18   12    9     -1.06      0.00
  -15   12    9     -2.39      0.00
  -12   12    9      4.02      0.00
   -9   12    9     -2.93      0.00
   -6   12    9     -3.18      0.00
   -3   12    9      1.23      0.00
    0   12    9      1.13      0.00
    3   12    9     -0.40      0.00
    6   12    9      1.21      0.00
    9   12    9      1.10      0.00
   12   12    9      1.20      0.00
  -23   13    9      0.95      0.00
  -20   13    9      2.66      0.00
  -17   13    9      1.96      0.00
  -14   13    9     -0.47      0.00
  -11   13    9     -1.12      0.00
   -8   13    9      0.40      0.00
   -5   13    9      1.95      0.00
   -2   13    9      1.16      0.00
    1   13    9     -6.12      0.00
    4   13    9     -1.73      0.00
    7   13    9      0.60      0.00
   10   13    9     -0.84      0.00
   13   13    9     -0.08      0.00
  -25   14    9     -1.26      0.00
  -22   14    9     -0.54      0.00
  -19   14    9      0.61      0.00
  -16   14    9     -1.64      0.00
  -13   14    9      3.51      0.00
  -10   14    9      2.51      0.00
   -7   14    9      1.86      0.00
   -4   14    9      2.89      0.00
   -1   14    9      2.18      0.00
    2   14    9     -1.78      0.00
    5   14    9     -0.53      0.00
    8   14    9      1.01      0.00
   11   14    9      3.54      0.00
   14   14    9     -0.11      0.00
  -27   15    9      0.53      0.00
  -24   15    9     -0.76      0.00
  -21   15    9     -1.15      0.00
  -18   15    9     -0.35      0.00
  -15   15    9      4.11      0.00
  -12   15    9      0.53      0.00
   -9   15    9      3.39      0.00
   -6   15    9      1.08      0.00
   -3   15    9     -0.38      0.00
    0   15    9     -0.83      0.00
    3   15    9     -0.16      0.00
    6   15    9     -1.45      0.00
    9   15    9     -3.61      0.00
   12   15    9     -0.74      0.00
   15   15    9      0.82      0.00
  -29   16    9     -1.66      0.00
  -26   16    9     -1.74      0.00
  -23   16    9     -0.06      0.00
  -20   16    9      1.58      0.00
  -17   16    9      3.55      0.00
  -14   16    9     -3.10      0.00
  -11   16    9      1.63      0.00
   -8   16    9      5.73      0.00
   -5   16    9      1.39      0.00
   -2   16    9     -0.97      0.00
    1   16    9     -1.82      0.00
    4   16    9     -3.94      0.00
    7   16    9     -3.73      0.00
   10   16    9     -2.07      0.00
   13   16    9     -3.03      0.00
   16   16    9     -4.17      0.00
  -31   17    9      1.13      0.00
  -28   17    9     -3.89      0.00
  -25   17    9     -2.10      0.00
  -22   17    9     -0.35      0.00
  -19   17    9     -1.64      0.00
  -16   17    9     -0.64      0.00
  -13   17    9     -0.80      0.00
  -10   17    9      0.17      0.00
   -7   17    9     -1.65      0.00
   -4   17    9      0.93      0.00
   -1   17    9      1.11      0.00
    2   17    9     -5.53      0.00
    5   17    9     -0.92      0.00
    8   17    9      1.81      0.00
   11   17    9     -0.10      0.00
   14   17    9     -4.31      0.00
  -33   18    9      1.43      0.00
  -30   18    9      1.22      0.00
  -27   18    9     -0.54      0.00
  -24   18    9      1.92      0.00
  -21   18    9     -5.31      0.00
  -18   18    9     -0.03      0.00
  -15   18    9      4.78      0.00
  -12   18    9      1.92      0.00
   -9   18    9      0.32      0.00
   -6   18    9     -2.09      0.00
   -3   18    9      0.28      0.00
    0   18    9      0.14      0.00
    3   18    9      0.52      0.00
    6   18    9     -3.75      0.00
    9   18    9     -2.80      0.00
   12   18    9      0.26      0.00
   15   18    9     -1.44      0.00
  -32   19    9      2.19      0.00
  -29   19    9     -3.91      0.00
  -26   19    9      1.10      0.00
  -23   19    9     -0.87      0.00
  -20   19    9     -1.17      0.00
  -17   19    9     -3.92      0.00
  -14   19    9     -3.73      0.00
  -11   19    9      1.64      0.00
   -8   19    9     -0.95      0.00
   -5   19    9     -2.64      0.00
   -2   19    9      0.85      0.00
    1   19    9      5.47      0.00
    4   19    9      0.37      0.00
    7   19    9     -3.74      0.00
   10   19    9      0.77      0.00
   13   19    9      0.23      0.00
  -31   20    9      0.40      0.00
  -28   20    9     -2.89      0.00
  -25   20    9     -0.04      0.00
  -22   20    9      0.50      0.00
  -19   20    9     -4.09      0.00
  -16   20    9     -1.60      0.00
  -13   20    9     -4.58      0.00
  -10   20    9     -1.86      0.00
   -7   20    9     -1.39      0.00
   -4   20    9      1.63      0.00
   -1   20    9     -2.13      0.00
    2   20    9      0.48      0.00
    5   20    9      3.52      0.00
    8   20    9      2.14      0.00
   11   20    9     -1.00      0.00
  -30   21    9     -2.37      0.00
  -27   21    9      2.57      0.00
  -24   21    9     -0.70      0.00
  -21   21    9     -0.78      0.00
  -18   21    9      1.73      0.00
  -15   21    9      4.52      0.00
  -12   21    9      3.19      0.00
   -9   21    9      1.57      0.00
   -6   21    9      2.42      0.00
   -3   21    9     -3.69      0.00
    0   21    9      1.89      0.00
    3   21    9      1.02      0.00
    6   21    9     -2.37      0.00
    9   21    9      0.55      0.00
  -32   22    9     -1.78      0.00
  -29   22    9     -2.34      0.00
  -26   22    9     -4.25      0.00
  -23   22    9     -1.61      0.00
  -20   22    9     -2.61      0.00
  -17   22    9     -3.72      0.00
  -14   22    9     -3.89      0.00
  -11   22    9      2.89      0.00
   -8   22    9     -1.72      0.00
   -5   22    9     -4.30      0.00
   -2   22    9      2.17      0.00
    1   22    9      0.35      0.00
    4   22    9     -2.51      0.00
    7   22    9     -2.76      0.00
   10   22    9      3.69      0.00
  -31   23    9     -2.90      0.00
  -28   23    9     -2.31      0.00
  -25   23    9     -3.18      0.00
  -22   23    9      1.45      0.00
  -19   23    9     -1.37      0.00
  -16   23    9     -2.81      0.00
  -13   23    9     -1.63      0.00
  -10   23    9      0.62      0.00
   -7   23    9      2.92      0.00
   -4   23    9      1.04      0.00
   -1   23    9     -3.77      0.00
    2   23    9     -1.84      0.00
    5   23    9     -1.07      0.00
    8   23    9     -0.99      0.00
  -30   24    9      0.59      0.00
  -27   24    9      1.21      0.00
  -24   24    9     -1.63      0.00
  -21   24    9      2.85      0.00
  -18   24    9      3.29      0.00
  -15   24    9     -1.90      0.00
  -12   24    9     -1.13      0.00
   -9   24    9      5.10      0.00
   -6   24    9      2.20      0.00
   -3   24    9     -0.64      0.00
    0   24    9     -0.12      0.00
    3   24    9      3.23      0.00
    6   24    9     -3.11      0.00
  -29   25    9      0.77      0.00
  -26   25    9     -2.34      0.00
  -23   25    9     -2.17      0.00
  -20   25    9     -1.76      0.00
  -17   25    9     -0.03      0.00
  -14   25    9     -1.66      0.00
  -11   25    9     -1.66      0.00
   -8   25    9     -4.24      0.00
   -5   25    9      2.04      0.00
   -2   25    9      3.61      0.00
    1   25    9     -1.04      0.00
    4   25    9     -1.23      0.00
  -28   26    9      0.11      0.00
  -25   26    9     -0.41      0.00
  -22   26    9     -0.73      0.00
  -19   26    9     -0.70      0.00
  -16   26    9      4.13      0.00
  -13   26    9      0.66      0.00
  -10   26    9      0.74      0.00
   -7   26    9     -0.26      0.00
   -4   26    9      2.14      0.00
   -1   26    9     -1.62      0.00
    2   26    9      1.81      0.00
  -30   27    9      0.86      0.00
  -27   27    9      1.15      0.00
  -24   27    9      1.05      0.00
  -21   27    9      1.40      0.00
  -18   27    9      3.21      0.00
  -15   27    9     -2.83      0.00
  -12   27    9      2.22      0.00
   -9   27    9      4.20      0.00
   -6   27    9     -1.41      0.00
   -3   27    9     -1.68      0.00
    0   27    9      2.76      0.00
    3   27    9      5.35      0.00
  -29   28    9      0.69      0.00
  -26   28    9     -0.06      0.00
  -23   28    9      1.24      0.00
  -20   28    9      0.03      0.00
  -17   28    9      2.20      0.00
  -14   28    9      0.21      0.00
  -11   28    9      2.94      0.00
   -8   28    9     -0.23      0.00
   -5   28    9      0.64      0.00
   -2   28    9     -2.28      0.00
    1   28    9      1.37      0.00
  -28   29    9     -2.83      0.00
  -25   29    9      3.22      0.00
  -22   29    9      0.57      0.00
  -19   29    9      0.42      0.00
  -16   29    9     -0.53      0.00
  -13   29    9      0.06      0.00
  -10   29    9     -0.60      0.00
   -7   29    9      2.25      0.00
   -4   29    9      0.43      0.00
   -1   29    9     -0.78      0.00
  -27   30    9      0.52      0.00
  -24   30    9      6.28      0.00
  -21   30    9      2.01      0.00
  -18   30    9     -4.10      0.00
  -15   30    9      0.74      0.00
  -12   30    9      0.47      0.00
   -9   30    9     -0.59      0.00
   -6   30    9     -2.04      0.00
   -3   30    9     -1.64      0.00
  -23   31    9      4.19      0.00
  -20   31    9     -0.99      0.00
  -17   31    9      0.53      0.00
  -14   31    9      3.60      0.00
  -11   31    9      0.79      0.00
   -8   31    9      0.41      0.00
  -22   32    9      3.20      0.00
  -19   32    9     -2.82      0.00
  -16   32    9      1.84      0.00
  -13   32    9     -4.57      0.00
  -10   32    9     -3.43      0.00
  -18   33    9      1.17      0.00
  -15   33    9      1.69      0.00
   -1    1   10     -4.27      0.00
   -3    2   10      3.89      0.00
    0    2   10     -1.34      0.00
   -5    3   10     -3.09      0.00
   -2    3   10     -2.15      0.00
    1    3   10      2.39      0.00
   -7    4   10     -0.55      0.00
   -4    4   10     -1.02      0.00
   -1    4   10      3.82      0.00
    2    4   10     -1.24      0.00
   -9    5   10      3.31      0.00
   -6    5   10      0.29      0.00
   -3    5   10     -2.32      0.00
    0    5   10     -6.62      0.00
    3    5   10     -7.35      0.00
  -11    6   10     -0.81      0.00
   -8    6   10      5.58      0.00
   -5    6   10      1.31      0.00
   -2    6   10     -1.76      0.00
    1    6   10     -1.71      0.00
    4    6   10     -1.13      0.00
  -13    7   10     -4.03      0.00
  -10    7   10      3.00      0.00
   -7    7   10     -3.10      0.00
   -4    7   10      1.12      0.00
   -1    7   10      4.83      0.00
    2    7   10      1.32      0.00
    5    7   10     -3.24      0.00
  -15    8   10     -3.98      0.00
  -12    8   10     -2.66      0.00
   -9    8   10     -1.34      0.00
   -6    8   10     -1.14      0.00
   -3    8   10     -2.27      0.00
    0    8   10      2.93      0.00
    3    8   10      1.94      0.00
    6    8   10      2.32      0.00
  -17    9   10      3.09      0.00
  -14    9   10      0.22      0.00
  -11    9   10      0.41      0.00
   -8    9   10     -2.19      0.00
   -5    9   10     -2.57      0.00
   -2    9   10     -0.10      0.00
    1    9   10      1.70      0.00
    4    9   10      8.04      0.00
    7    9   10      0.04      0.00
  -19   10   10     -2.71      0.00
  -16   10   10     -2.42      0.00
  -13   10   10     -1.63      0.00
  -10   10   10     -4.11      0.00
   -7   10   10     -3.49      0.00
   -4   10   10     -1.14      0.00
   -1   10   10     -2.13      0.00
    2   10   10     -0.93      0.00
    5   10   10     -2.37      0.00
    8   10   10     -0.65      0.00
  -21   11   10      4.45      0.00
  -18   11   10      1.09      0.00
  -15   11   10      2.25      0.00
  -12   11   10      2.33      0.00
   -9   11   10      1.18      0.00
   -6   11   10      0.08      0.00
   -3   11   10      0.15      0.00
    0   11   10     -4.58      0.00
    3   11   10     -2.93      0.00
    6   11   10     -0.97      0.00
    9   11   10     -0.59      0.00
  -23   12   10      2.20      0.00
  -20   12   10      1.96      0.00
  -17   12   10      1.99      0.00
  -14   12   10     -1.14      0.00
  -11   12   10      0.67      0.00
   -8   12   10     -0.91      0.00
   -5   12   10      1.43      0.00
   -2   12   10     -3.89      0.00
    1   12   10     -2.35      0.00
    4   12   10      2.76      0.00
    7   12   10     -2.57      0.00
   10   12   10     -2.08      0.00
  -25   13   10     -1.45      0.00
  -22   13   10      0.30      0.00
  -19   13   10      0.25      0.00
  -16   13   10      0.22      0.00
  -13   13   10      1.93      0.00
  -10   13   10     -0.39      0.00
   -7   13   10      0.44      0.00
   -4   13   10     -1.00      0.00
   -1   13   10      0.68      0.00
    2   13   10     -0.28      0.00
    5   13   10     -0.41      0.00
    8   13   10      1.08      0.00
   11   13   10      3.90      0.00
  -27   14   10      0.55      0.00
  -24   14   10      1.42      0.00
  -21   14   10      0.14      0.00
  -18   14   10      2.25      0.00
  -15   14   10      0.83      0.00
  -12   14   10      2.27      0.00
   -9   14   10      2.31      0.00
   -6   14   10     -0.23      0.00
   -3   14   10      2.77      0.00
    0   14   10     -1.49      0.00
    3   14   10      0.14      0.00
    6   14   10     -2.04      0.00
    9   14   10      2.57      0.00
   12   14   10     -3.36      0.00
  -26   15   10      0.37      0.00
  -23   15   10     -3.27      0.00
  -20   15   10     -1.51      0.00
  -17   15   10     -3.64      0.00
  -14   15   10     -4.53      0.00
  -11   15   10     -4.61      0.00
   -8   15   10     -2.45      0.00
   -5   15   10     -0.25      0.00
   -2   15   10     -1.32      0.00
    1   15   10      0.02      0.00
    4   15   10     -1.49      0.00
    7   15   10      2.54      0.00
   10   15   10     -2.72      0.00
  -25   16   10     -0.13      0.00
  -22   16   10      0.56      0.00
  -19   16   10     -0.31      0.00
  -16   16   10      4.34      0.00
  -13   16   10     -0.97      0.00
  -10   16   10     -0.28      0.00
   -7   16   10     -4.04      0.00
   -4   16   10     -0.72      0.00
   -1   16   10      1.88      0.00
    2   16   10     -0.56      0.00
    5   16   10     -1.94      0.00
    8   16   10      1.34      0.00
   11   16   10     -6.02      0.00
  -27   17   10      1.18      0.00
  -24   17   10     -1.48      0.00
  -21   17   10     -4.37      0.00
  -18   17   10      1.48      0.00
  -15   17   10     -1.63      0.00
  -12   17   10      1.49      0.00
   -9   17   10     -0.75      0.00
   -6   17   10      1.50      0.00
   -3   17   10      0.24      0.00
    0   17   10     -1.71      0.00
    3   17   10     -3.47      0.00
    6   17   10      3.58      0.00
    9   17   10     -1.03      0.00
  -26   18   10      1.25      0.00
  -23   18   10     -0.17      0.00
  -20   18   10     -3.99      0.00
  -17   18   10     -0.60      0.00
  -14   18   10     -3.71      0.00
  -11   18   10     -0.40      0.00
   -8   18   10      2.14      0.00
   -5   18   10     -0.81      0.00
   -2   18   10     -2.29      0.00
    1   18   10     -2.08      0.00
    4   18   10      2.08      0.00
    7   18   10      2.05      0.00
  -25   19   10      3.32      0.00
  -22   19   10     -2.05      0.00
  -19   19   10      2.82      0.00
  -16   19   10      0.86      0.00
  -13   19   10      0.69      0.00
  -10   19   10      1.92      0.00
   -7   19   10     -0.59      0.00
   -4   19   10     -2.18      0.00
   -1   19   10     -0.89      0.00
    2   19   10      2.44      0.00
    5   19   10     -1.09      0.00
    8   19   10     -2.34      0.00
  -24   20   10     -3.30      0.00
  -21   20   10     -2.67      0.00
  -18   20   10     -0.43      0.00
  -15   20   10     -1.62      0.00
  -12   20   10      0.60      0.00
   -9   20   10      0.60      0.00
   -6   20   10      0.47      0.00
   -3   20   10     -2.39      0.00
    0   20   10     -0.07      0.00
    3   20   10     -2.90      0.00
    6   20   10      2.35      0.00
  -26   21   10     -1.63      0.00
  -23   21   10      0.08      0.00
  -20   21   10     -1.39      0.00
  -17   21   10      2.00      0.00
  -14   21   10      0.60      0.00
  -11   21   10      1.10      0.00
   -8   21   10      1.01      0.00
   -5   21   10     -0.68      0.00
   -2   21   10     -3.61      0.00
    1   21   10     -0.29      0.00
    4   21   10     -1.18      0.00
  -25   22   10     -1.50      0.00
  -22   22   10     -1.68      0.00
  -19   22   10      0.65      0.00
  -16   22   10     -0.43      0.00
  -13   22   10     -0.68      0.00
  -10   22   10     -1.79      0.00
   -7   22   10      0.93      0.00
   -4   22   10     -4.09      0.00
   -1   22   10      1.86      0.00
    2   22   10     -2.80      0.00
  -24   23   10     -0.52      0.00
  -21   23   10     -1.06      0.00
  -18   23   10     -0.97      0.00
  -15   23   10     -3.03      0.00
  -12   23   10      0.37      0.00
   -9   23   10      1.31      0.00
   -6   23   10      2.53      0.00
   -3   23   10      2.57      0.00
    0   23   10      0.07      0.00
  -23   24   10      0.55      0.00
  -20   24   10     -0.12      0.00
  -17   24   10      0.59      0.00
  -14   24   10      4.11      0.00
  -11   24   10     -1.62      0.00
   -8   24   10      2.82      0.00
   -5   24   10      3.41      0.00
   -2   24   10      1.20      0.00
  -22   25   10     -2.14      0.00
  -19   25   10     -2.42      0.00
  -16   25   10      1.60      0.00
  -13   25   10      2.91      0.00
  -10   25   10     -2.19      0.00
   -7   25   10     -2.55      0.00
   -4   25   10      1.15      0.00
  -21   26   10     -2.57      0.00
  -18   26   10     -4.05      0.00
  -15   26   10      5.34      0.00
  -12   26   10      3.75      0.00
   -9   26   10     -1.30      0.00
   -6   26   10      0.25      0.00
  -17   27   10      3.34      0.00
  -14   27   10      3.82      0.00
  -11   27   10      2.61      0.00
   -8   27   10      0.08      0.00
    0    1   11      0.86      0.00
   -2    2   11      4.19      0.00
    1    2   11      2.64      0.00
   -4    3   11      5.15      0.00
   -1    3   11     -2.33      0.00
    2    3   11      0.64      0.00
   -6    4   11      2.48      0.00
   -3    4   11     -0.99      0.00
    0    4   11     -7.71      0.00
    3    4   11     -2.15      0.00
   -8    5   11      0.17      0.00
   -5    5   11      4.88      0.00
   -2    5   11     -2.12      0.00
    1    5   11     -1.09      0.00
    4    5   11      0.82      0.00
  -10    6   11     -2.69      0.00
   -7    6   11     -3.88      0.00
   -4    6   11      0.01      0.00
   -1    6   11     -4.87      0.00
    2    6   11     -0.06      0.00
    5    6   11      0.36      0.00
  -12    7   11      1.39      0.00
   -9    7   11     -1.86      0.00
   -6    7   11     -1.50      0.00
   -3    7   11     -3.93      0.00
    0    7   11      2.56      0.00
    3    7   11      2.46      0.00
    6    7   11      4.76      0.00
  -14    8   11      2.78      0.00
  -11    8   11     -1.18      0.00
   -8    8   11     -2.32      0.00
   -5    8   11      1.17      0.00
   -2    8   11      2.53      0.00
    1    8   11      5.06      0.00
    4    8   11      4.01      0.00
    7    8   11      2.39      0.00
  -16    9   11     -2.66      0.00
  -13    9   11      0.20      0.00
  -10    9   11     -1.97      0.00
   -7    9   11     -3.30      0.00
   -4    9   11     -3.03      0.00
   -1    9   11     -0.89      0.00
    2    9   11     -4.10      0.00
    5    9   11      1.11      0.00
    8    9   11      3.31      0.00
  -18   10   11     -0.97      0.00
  -15   10   11      0.13      0.00
  -12   10   11      0.99      0.00
   -9   10   11      0.88      0.00
   -6   10   11      0.43      0.00
   -3   10   11     -1.12      0.00
    0   10   11     -2.98      0.00
    3   10   11     -1.24      0.00
    6   10   11     -2.92      0.00
    9   10   11     -1.46      0.00
  -20   11   11      1.82      0.00
  -17   11   11     -1.60      0.00
  -14   11   11     -0.23      0.00
  -11   11   11      1.73      0.00
   -8   11   11     -1.97      0.00
   -5   11   11     -2.37      0.00
   -2   11   11     -2.19      0.00
    4   11   11     -4.56      0.00
    7   11   11     -0.39      0.00
  -19   12   11      0.87      0.00
  -16   12   11      0.64      0.00
  -13   12   11      2.26      0.00
  -10   12   11      0.32      0.00
   -7   12   11     -0.92      0.00
   -4   12   11     -3.31      0.00
   -1   12   11     -2.05      0.00
    5   12   11      2.11      0.00
  -18   13   11      1.45      0.00
  -15   13   11     -1.87      0.00
  -12   13   11      0.72      0.00
   -9   13   11      2.81      0.00
   -6   13   11      2.20      0.00
   -3   13   11     -1.34      0.00
    0   13   11      2.80      0.00
    3   13   11      2.93      0.00
    6   13   11      2.84      0.00
  -17   14   11     -1.72      0.00
  -14   14   11     -2.48      0.00
  -11   14   11     -1.82      0.00
   -8   14   11     -0.60      0.00
   -5   14   11     -3.42      0.00
   -2   14   11      2.41      0.00
    1   14   11      0.23      0.00
    4   14   11     -0.32      0.00
  -19   15   11      3.15      0.00
  -16   15   11      1.63      0.00
  -13   15   11      0.69      0.00
  -10   15   11     -2.30      0.00
   -7   15   11     -2.06      0.00
   -4   15   11      2.08      0.00
   -1   15   11     -0.54      0.00
    2   15   11      1.07      0.00
  -18   16   11     -2.55      0.00
  -15   16   11     -1.61      0.00
  -12   16   11     -0.47      0.00
   -9   16   11      2.75      0.00
   -6   16   11      1.40      0.00
   -3   16   11     -3.15      0.00
    0   16   11     -0.97      0.00
  -17   17   11      0.50      0.00
  -14   17   11      0.18      0.00
  -11   17   11      0.43      0.00
   -8   17   11      0.20      0.00
   -5   17   11      0.70      0.00
   -2   17   11      0.18      0.00
  -16   18   11      1.82      0.00
  -13   18   11      0.86      0.00
  -10   18   11     -1.90      0.00
   -7   18   11     -0.62      0.00
   -4   18   11      2.01      0.00
  -15   19   11     -1.56      0.00
  -12   19   11      3.21      0.00
   -9   19   11      2.92      0.00
   -6   19   11     -4.83      0.00
  -11   20   11      3.38      0.00
   -1    2    0    121.55      0.00
    0    3    0    101.52      0.00
   -2    4    0   -197.53      0.00
   -4    5    0   -182.06      0.00
   -1    5    0      7.27      0.00
   -3    6    0    -11.68      0.00
    0    6    0      8.67      0.00
   -4    8    0     24.60      0.00
  -42   45    0     -0.30      0.00
   -3   45    0      1.97      0.00
  -41   46    0     -0.26      0.00
   -5   46    0      0.69      0.00
  -35   49    0      0.99      0.00
  -14   49    0      0.93      0.00
  -31   50    0     -1.38      0.00
  -19   50    0      0.23      0.00
   -1    1    1    116.91      0.00
   -3    2    1    -58.37      0.00
    0    2    1    -93.71      0.00
   -2    3    1     14.62      0.00
    1    3    1    -53.36      0.00
   -7    4    1    -28.85      0.00
   -4    4    1    214.30      0.00
   -1    4    1    328.19      0.00
  -13    7    1     80.39      0.00
   -1   10    1    -17.02      0.00
   -5   12    1     29.74      0.00
    3   14    1    -31.28      0.00
   21   29    1     -1.20      0.00
  -50   30    1      1.49      0.00
  -49   34    1     -1.37      0.00
   11   37    1      1.47      0.00
  -47   39    1      1.85      0.00
  -39   47    1      0.07      0.00
  -11   48    1     -0.54      0.00
  -34   49    1      0.68      0.00
  -30   50    1     -1.63      0.00
  -21   50    1      3.88      0.00
   18   31    2     -1.74      0.00
  -49   33    2      3.58      0.00
   13   35    2      1.58      0.00
  -47   38    2      0.34      0.00
  -46   39    2      0.69      0.00
    4   41    2     -0.52      0.00
    2   42    2     -2.44      0.00
    0   43    2      2.02      0.00
   -2   44    2      1.04      0.00
   -4   45    2      1.15      0.00
  -39   46    2      2.23      0.00
  -38   47    2      0.29      0.00
  -13   48    2      2.54      0.00
  -33   49    2     -0.64      0.00
  -18   49    2     -2.98      0.00
  -49   26    3     -0.02      0.00
   23   26    3     -0.15      0.00
  -48   30    3     -2.33      0.00
  -21   36    3     -5.38      0.00
  -45   39    3      0.50      0.00
  -24   39    3      0.99      0.00
    6   39    3     -1.92      0.00
  -25   41    3     -4.45      0.00
  -39   45    3      1.54      0.00
   -6   45    3      3.52      0.00
  -26   49    3     -1.61      0.00
  -23   49    3      0.62      0.00
    3    8    4    -13.85      0.00
   18   29    4      2.47      0.00
  -47   30    4     -0.83      0.00
  -41   30    4     -3.71      0.00
   13   33    4     -0.65      0.00
  -46   34    4      2.84      0.00
    6   38    4     -0.43      0.00
    4   39    4     -2.92      0.00
   -4   43    4      2.99      0.00
   -6   44    4      1.25      0.00
  -34   46    4      0.34      0.00
  -13   46    4      1.48      0.00
  -30   47    4     -2.06      0.00
  -18   47    4     -0.36      0.00
   -8   20    5      7.96      0.00
  -46   24    5      0.91      0.00
   21   25    5     -1.58      0.00
  -45   31    5      1.70      0.00
   12   31    5      0.43      0.00
  -44   32    5     -2.65      0.00
   11   33    5      1.75      0.00
  -43   36    5     -1.68      0.00
  -42   37    5     -4.14      0.00
  -41   38    5      2.37      0.00
    1   38    5      2.26      0.00
  -38   41    5      0.40      0.00
  -37   42    5     -0.12      0.00
  -36   43    5     -2.31      0.00
  -32   44    5      3.20      0.00
  -11   44    5      0.53      0.00
  -31   45    5     -1.82      0.00
  -24   46    5      1.14      0.00
  -21   46    5      0.82      0.00
   22   22    6      2.31      0.00
   12   27    6      1.74      0.00
   13   28    6      1.74      0.00
  -43   29    6      0.59      0.00
   14   29    6     -1.05      0.00
  -41   34    6      2.36      0.00
    7   34    6     -0.84      0.00
  -40   35    6     -1.35      0.00
    5   35    6      1.77      0.00
  -35   40    6      0.61      0.00
   -5   40    6     -1.26      0.00
  -34   41    6     -0.86      0.00
  -31   41    6     -3.72      0.00
   -7   41    6     -3.02      0.00
  -29   43    6      0.59      0.00
  -14   43    6     -1.16      0.00
  -22   44    6      0.38      0.00
  -19   10    7     -0.98      0.00
   -5   18    7     -5.62      0.00
  -41   21    7      1.23      0.00
   11   22    7     -1.70      0.00
   18   23    7      0.82      0.00
  -41   24    7      3.13      0.00
  -40   28    7     -1.10      0.00
    8   31    7     -1.42      0.00
    6   32    7     -2.37      0.00
  -38   33    7     -0.48      0.00
  -37   34    7      2.82      0.00
  -28   34    7     -7.49      0.00
  -36   35    7      2.00      0.00
  -35   36    7      2.72      0.00
  -34   37    7     -1.58      0.00
  -33   38    7      2.33      0.00
   -6   38    7      2.54      0.00
   -8   39    7      0.54      0.00
  -28   40    7     -5.81      0.00
  -24   41    7     -1.86      0.00
  -21   41    7      0.19      0.00
  -18   41    7      2.92      0.00
   -7   15    8      7.74      0.00
  -37   24    8     -1.33      0.00
   12   25    8      1.18      0.00
  -36   28    8      3.50      0.00
    5   30    8      0.05      0.00
    3   31    8      0.02      0.00
  -14   32    8     -3.44      0.00
    1   32    8     -2.51      0.00
   -1   33    8      0.68      0.00
  -30   34    8      0.82      0.00
   -3   34    8      3.25      0.00
   -5   35    8     -2.57      0.00
  -28   36    8     -3.05      0.00
  -24   37    8     -4.70      0.00
  -12   37    8     -2.79      0.00
  -33   21    9     -0.33      0.00
   12   21    9      0.38      0.00
  -32   25    9     -0.86      0.00
    7   25    9      0.25      0.00
  -31   26    9     -3.14      0.00
    5   26    9     -2.12      0.00
  -26   31    9      5.08      0.00
   -5   31    9     -0.14      0.00
  -25   32    9      1.45      0.00
   -7   32    9      2.54      0.00
  -21   33    9     -0.21      0.00
  -12   33    9     -1.28      0.00
   13   15   10     -4.21      0.00
  -28   16   10      1.79      0.00
   10   18   10     -2.93      0.00
  -27   20   10     -0.88      0.00
    3   23   10     -2.46      0.00
    1   24   10      0.92      0.00
   -1   25   10      4.63      0.00
   -3   26   10      1.46      0.00
  -20   27   10     -1.63      0.00
  -16   28   10     -0.57      0.00
  -13   28   10      1.44      0.00
  -10   28   10      0.82      0.00
    1   11   11     -0.39      0.00
   10   11   11     -1.68      0.00
    2   12   11     -0.67      0.00
    8   12   11      1.78      0.00
  -20   14   11      3.28      0.00
    5   15   11      1.42      0.00
    3   16   11      1.47      0.00
    1   17   11     -3.37      0.00
   -1   18   11      0.95      0.00
   -3   19   11      0.72      0.00
  -14   20   11      1.92      0.00
   -8   20   11     -3.00      0.00
   -5   20   11      1.62      0.00
  -10   21   11     -0.74      0.00
    0    0    0      0.00      0.00
# SQUEEZE RESULTS
# Note: Data are Listed for all Voids in the P1 Unit Cell
# i.e. Centre of Gravity, Solvent Accessible Volume,
# Recovered number of Electrons in the Void and
# Details about the Squeezed Material
loop_
  _platon_squeeze_void_nr
  _platon_squeeze_void_average_x
  _platon_squeeze_void_average_y
  _platon_squeeze_void_average_z
  _platon_squeeze_void_volume
  _platon_squeeze_void_count_electrons
  _platon_squeeze_void_content
   1 -0.008 -0.003 -0.004      9633      1087 ' '
# Missing Reflections Below sin(th)/lambda= 0.25
loop_
  _platon_missing_refln_index_h
  _platon_missing_refln_index_k
  _platon_missing_refln_index_l
  _platon_missing_refln_theta
   -1    2    0     2.117
    0    3    0     3.668
   -2    4    0     4.237
   -4    5    0     5.608
   -1    5    0     5.608
   -3    6    0     6.362
    0    6    0     7.351
   -4    8    0     8.497
   -1    1    1     4.606
   -3    2    1     5.497
    0    2    1     5.071
   -2    3    1     5.497
    1    3    1     6.264
   -7    4    1     8.689
   -4    4    1     6.615
   -1    4    1     6.264
  -13    7    1    14.625
   -1   10    1    12.572
   -5   12    1    13.634
    3   14    1    20.120
    3    8    4    21.972
_platon_squeeze_void_probe_radius                  1.20
_platon_squeeze_details
)
TITL 1         R -3         R = 0.11
CELL   41.7400   41.7400    9.9584     90.00     90.00    120.00
SPGR R-3
# Solvent Accessible Volume =    9720.3
# Electrons Found in S.A.V. =    1056.3
# Note: Atoms in Void as Cxxx and Qxxx all others
C101 0.007 0.412 0.345 !       3.81 eA-3
C102 0.335 0.257 0.380 !       3.80 eA-3
C103 0.357 0.266 0.379 !       2.60 eA-3
C104 0.578 0.984 0.407 !       1.90 eA-3
C105 0.422 0.016 0.593 !       1.90 eA-3
C106 0.283 0.056 0.051 !       1.57 eA-3
C107 0.726 0.055 0.024 !       1.35 eA-3
C108 0.110 0.913 0.243 !       1.23 eA-3
C109 0.155 0.982 0.164 !       1.20 eA-3
C110 0.033 0.767 0.064 !       1.05 eA-3
C111 0.899 0.366 0.291 !       0.94 eA-3
C112 0.712 0.640 0.442 !       0.85 eA-3
C113 0.241 0.038 0.064 !       0.83 eA-3
C114 0.962 0.612 0.161 !       0.78 eA-3
C115 0.903 0.836 0.363 !       0.76 eA-3
C116 0.898 0.838 0.281 !       0.76 eA-3
C117 0.395 0.563 0.389 !       0.74 eA-3
C118 0.718 0.154 0.433 !       0.72 eA-3
C119 1.001 0.139 0.251 !       0.64 eA-3
C120 0.359 0.036 0.217 !       0.61 eA-3
C121 0.140 0.024 0.314 !       0.61 eA-3
C122 0.974 0.666 0.096 !       0.60 eA-3
C123 0.453 0.840 0.460 !       0.59 eA-3
C124 0.148 0.104 0.305 !       0.55 eA-3
C125 0.432 0.616 0.335 !       0.55 eA-3
Q126 0.572 0.078 0.368 !       0.55 eA-3
C127 0.728 1.000 0.102 !       0.53 eA-3
C128 0.241 0.499 0.143 !       0.52 eA-3
Q129 0.118 0.345 0.278 !       0.50 eA-3
)
;
_shelx_shelxl_version_number     2014/7
_olex2_submission_special_instructions 'No special instructions were received'
loop_
_space_group_symop_operation_xyz
'x, y, z'
'-y, x-y, z'
'-x+y, -x, z'
'x+2/3, y+1/3, z+1/3'
'-y+2/3, x-y+1/3, z+1/3'
'-x+y+2/3, -x+1/3, z+1/3'
'x+1/3, y+2/3, z+2/3'
'-y+1/3, x-y+2/3, z+2/3'
'-x+y+1/3, -x+2/3, z+2/3'
'-x, -y, -z'
'y, -x+y, -z'
'x-y, x, -z'
'-x+2/3, -y+1/3, -z+1/3'
'y+2/3, -x+y+1/3, -z+1/3'
'x-y+2/3, x+1/3, -z+1/3'
'-x+1/3, -y+2/3, -z+2/3'
'y+1/3, -x+y+2/3, -z+2/3'
'x-y+1/3, x+2/3, -z+2/3'
loop_
_atom_site_label
_atom_site_type_symbol
_atom_site_fract_x
_atom_site_fract_y
_atom_site_fract_z
_atom_site_U_iso_or_equiv
_atom_site_adp_type
_atom_site_occupancy
_atom_site_site_symmetry_order
_atom_site_calc_flag
_atom_site_refinement_flags_posn
Zn1 Zn 0.02658(2) 0.49064(2) 0.06865(3) 0.03120(14) Uani 1 1 d .
N1 N 0.06094(5) 0.47613(5) 0.16855(18) 0.0358(4) Uani 1 1 d .
H1 H 0.0454 0.4561 0.2307 0.043 Uiso 1 1 calc R
O1 O -0.01061(5) 0.48492(5) 0.21255(16) 0.0491(4) Uani 1 1 d .
O2 O 0.05241(5) 0.54630(4) 0.09211(17) 0.0488(4) Uani 1 1 d .
O3 O -0.01255(5) 0.43956(4) -0.0005(2) 0.0608(5) Uani 1 1 d .
O4 O 0.04906(5) 0.49913(5) -0.11956(16) 0.0527(4) Uani 1 1 d .
C1 C -0.03620(6) 0.49214(6) 0.2184(2) 0.0381(5) Uani 1 1 d .
C8 C 0.04162(7) 0.56852(6) 0.0620(2) 0.0418(5) Uani 1 1 d .
C5 C -0.07866(6) 0.49176(7) 0.6108(2) 0.0413(5) Uani 1 1 d .
C3 C -0.04545(7) 0.47392(6) 0.4597(2) 0.0427(5) Uani 1 1 d .
H3 H -0.0315 0.4625 0.4459 0.051 Uiso 1 1 calc R
C2 C -0.05242(6) 0.49046(6) 0.3537(2) 0.0386(5) Uani 1 1 d .
C14 C 0.09308(7) 0.43956(7) 0.1273(2) 0.0447(6) Uani 1 1 d .
C9 C 0.06508(7) 0.60780(6) 0.1078(3) 0.0439(6) Uani 1 1 d .
C4 C -0.05879(7) 0.47388(7) 0.5869(2) 0.0440(5) Uani 1 1 d .
H4 H -0.0544 0.4618 0.6568 0.053 Uiso 1 1 calc R
C13 C 0.07535(7) 0.46022(7) 0.0669(2) 0.0459(6) Uani 1 1 d .
H13A H 0.0934 0.4801 0.0111 0.055 Uiso 1 1 calc R
H13B H 0.0551 0.4435 0.0093 0.055 Uiso 1 1 calc R
C11 C 0.09785(7) 0.61907(7) 0.1761(3) 0.0522(6) Uani 1 1 d .
H11 H 0.1063 0.6025 0.1894 0.063 Uiso 1 1 calc R
C15 C 0.13006(8) 0.45146(8) 0.1086(3) 0.0555(7) Uani 1 1 d .
H15 H 0.1449 0.4734 0.0627 0.067 Uiso 1 1 calc R
C12 C 0.09155(6) 0.50600(7) 0.2502(2) 0.0435(5) Uani 1 1 d .
H12A H 0.1006 0.5296 0.2052 0.052 Uiso 1 1 calc R
H12B H 0.1119 0.5011 0.2566 0.052 Uiso 1 1 calc R
C16 C 0.07183(8) 0.40729(9) 0.1972(4) 0.0671(9) Uani 1 1 d .
H16 H 0.0468 0.3989 0.2112 0.080 Uiso 1 1 calc R
C10 C 0.05378(8) 0.63306(7) 0.0862(4) 0.0688(9) Uani 1 1 d .
H10 H 0.0323 0.6262 0.0375 0.083 Uiso 1 1 calc R
C6 C -0.08619(9) 0.50781(9) 0.5038(3) 0.0645(8) Uani 1 1 d .
H6 H -0.1000 0.5194 0.5176 0.077 Uiso 1 1 calc R
C7 C -0.07354(9) 0.50707(9) 0.3764(3) 0.0643(8) Uani 1 1 d .
H7 H -0.0792 0.5178 0.3053 0.077 Uiso 1 1 calc R
loop_
_atom_site_aniso_label
_atom_site_aniso_U_11
_atom_site_aniso_U_22
_atom_site_aniso_U_33
_atom_site_aniso_U_23
_atom_site_aniso_U_13
_atom_site_aniso_U_12
Zn1 0.03689(19) 0.02555(18) 0.0375(2) -0.00465(10) -0.00817(11) 0.02038(13)
N1 0.0441(10) 0.0399(10) 0.0358(10) -0.0009(8) -0.0042(8) 0.0303(9)
O1 0.0498(10) 0.0694(11) 0.0407(9) 0.0027(8) -0.0003(7) 0.0394(9)
O2 0.0652(11) 0.0254(8) 0.0548(10) -0.0075(7) -0.0168(8) 0.0219(8)
O3 0.0561(11) 0.0292(8) 0.0978(15) -0.0222(9) -0.0254(10) 0.0217(8)
O4 0.0794(12) 0.0712(12) 0.0332(9) 0.0035(8) -0.0015(8) 0.0569(11)
C1 0.0453(13) 0.0299(11) 0.0408(13) -0.0047(9) -0.0078(10) 0.0201(10)
C8 0.0485(14) 0.0282(11) 0.0446(13) -0.0069(9) -0.0021(11) 0.0161(10)
C5 0.0401(12) 0.0507(13) 0.0382(12) -0.0087(10) -0.0087(10) 0.0266(11)
C3 0.0504(13) 0.0469(13) 0.0441(13) -0.0019(10) -0.0046(10) 0.0344(11)
C2 0.0421(12) 0.0411(12) 0.0376(12) -0.0056(9) -0.0083(9) 0.0246(10)
C14 0.0568(14) 0.0509(14) 0.0440(13) -0.0001(11) 0.0000(11) 0.0401(12)
C9 0.0500(13) 0.0264(11) 0.0520(14) -0.0040(10) -0.0027(11) 0.0166(10)
C4 0.0557(14) 0.0515(14) 0.0371(13) 0.0012(10) -0.0039(11) 0.0360(12)
C13 0.0631(15) 0.0560(14) 0.0405(13) -0.0036(11) -0.0051(11) 0.0461(13)
C11 0.0584(16) 0.0327(12) 0.0634(17) -0.0078(11) -0.0142(13) 0.0212(11)
C15 0.0588(16) 0.0588(16) 0.0648(17) 0.0187(13) 0.0114(13) 0.0411(14)
C12 0.0412(12) 0.0574(14) 0.0391(13) -0.0067(10) -0.0058(10) 0.0299(11)
C16 0.0472(15) 0.0708(19) 0.103(2) 0.0267(17) 0.0116(15) 0.0440(15)
C10 0.0619(17) 0.0319(13) 0.111(3) -0.0169(14) -0.0341(17) 0.0223(13)
C6 0.094(2) 0.102(2) 0.0432(15) -0.0029(14) -0.0056(14) 0.083(2)
C7 0.099(2) 0.096(2) 0.0416(15) 0.0014(14) -0.0056(14) 0.081(2)
loop_
_atom_type_symbol
_atom_type_description
_atom_type_scat_dispersion_real
_atom_type_scat_dispersion_imag
_atom_type_scat_source
C C 0.0181 0.0091 'International Tables Vol C Tables 4.2.6.8 and 6.1.1.4'
H H 0.0000 0.0000 'International Tables Vol C Tables 4.2.6.8 and 6.1.1.4'
N N 0.0311 0.0180 'International Tables Vol C Tables 4.2.6.8 and 6.1.1.4'
O O 0.0492 0.0322 'International Tables Vol C Tables 4.2.6.8 and 6.1.1.4'
Zn Zn -1.5491 0.6778 'International Tables Vol C Tables 4.2.6.8 and 6.1.1.4'
loop_
_geom_angle_atom_site_label_1
_geom_angle_atom_site_label_2
_geom_angle_atom_site_label_3
_geom_angle
_geom_angle_site_symmetry_1
_geom_angle_site_symmetry_3
N1 Zn1 Zn1 177.28(6) . 10_565
O1 Zn1 Zn1 74.55(5) . 10_565
O1 Zn1 N1 103.10(7) . .
O1 Zn1 O3 87.15(8) . .
O1 Zn1 O4 157.11(7) . .
O2 Zn1 Zn1 78.14(5) . 10_565
O2 Zn1 N1 103.34(7) . .
O2 Zn1 O1 89.47(7) . .
O2 Zn1 O3 157.07(7) . .
O2 Zn1 O4 88.39(7) . .
O3 Zn1 Zn1 79.10(5) . 10_565
O3 Zn1 N1 99.51(7) . .
O4 Zn1 Zn1 82.71(5) . 10_565
O4 Zn1 N1 99.57(7) . .
O4 Zn1 O3 86.01(8) . .
C13 N1 Zn1 107.25(13) . .
C13 N1 C12 111.83(18) . .
C12 N1 Zn1 116.35(13) . .
C1 O1 Zn1 134.31(15) . .
C8 O2 Zn1 129.67(15) . .
C8 O3 Zn1 127.46(15) 10_565 .
C1 O4 Zn1 122.77(16) 10_565 .
O1 C1 O4 125.0(2) . 10_565
O1 C1 C2 116.94(19) . .
O4 C1 C2 118.0(2) 10_565 .
O2 C8 C9 117.1(2) . .
O3 C8 O2 125.4(2) 10_565 .
O3 C8 C9 117.4(2) 10_565 .
C4 C5 C12 121.4(2) . 10_566
C6 C5 C4 118.2(2) . .
C6 C5 C12 120.4(2) . 10_566
C2 C3 C4 121.3(2) . .
C3 C2 C1 120.9(2) . .
C3 C2 C7 118.3(2) . .
C7 C2 C1 120.7(2) . .
C15 C14 C13 121.3(2) . .
C16 C14 C13 120.0(2) . .
C16 C14 C15 118.6(2) . .
C11 C9 C8 121.1(2) . .
C10 C9 C8 120.4(2) . .
C10 C9 C11 118.5(2) . .
C3 C4 C5 120.4(2) . .
N1 C13 C14 113.87(19) . .
C15 C11 C9 120.5(2) 14_455 .
C14 C15 C11 120.8(2) . 15
N1 C12 C5 111.55(19) . 10_566
C14 C16 C10 120.5(3) . 15
C9 C10 C16 120.9(3) . 14_455
C5 C6 C7 121.2(2) . .
C6 C7 C2 120.5(2) . .
loop_
_geom_bond_atom_site_label_1
_geom_bond_atom_site_label_2
_geom_bond_distance
_geom_bond_site_symmetry_2
Zn1 Zn1 3.0229(6) 10_565
Zn1 N1 2.0693(17) .
Zn1 O1 2.0371(17) .
Zn1 O2 2.0273(15) .
Zn1 O3 2.0507(16) .
Zn1 O4 2.0461(17) .
N1 C13 1.492(3) .
N1 C12 1.501(3) .
O1 C1 1.248(3) .
O2 C8 1.253(3) .
O3 C8 1.246(3) 10_565
O4 C1 1.259(3) 10_565
C1 O4 1.259(3) 10_565
C1 C2 1.494(3) .
C8 O3 1.246(3) 10_565
C8 C9 1.500(3) .
C5 C4 1.386(3) .
C5 C12 1.505(3) 10_566
C5 C6 1.376(4) .
C3 C2 1.370(3) .
C3 C4 1.383(3) .
C2 C7 1.386(3) .
C14 C13 1.514(3) .
C14 C15 1.378(4) .
C14 C16 1.375(4) .
C9 C11 1.383(4) .
C9 C10 1.370(4) .
C11 C15 1.381(3) 14_455
C15 C11 1.381(3) 15
C12 C5 1.505(3) 10_566
C16 C10 1.387(4) 15
C10 C16 1.387(4) 14_455
C6 C7 1.381(4) .
