#------------------------------------------------------------------------------
#$Date: 2018-05-17 15:12:24 +0300 (Thu, 17 May 2018) $
#$Revision: 207823 $
#$URL: file:///home/coder/svn-repositories/cod/cif/7/23/06/7230657.cif $
#------------------------------------------------------------------------------
#
# This file is available in the Crystallography Open Database (COD),
# http://www.crystallography.net/
#
# All data on this site have been placed in the public domain by the
# contributors.
#
data_7230657
loop_
_publ_author_name
'Huang, Ning-Yu'
'Mo, Zong-Wen'
'Li, Lu-Jian'
'Xu, Wei-Jian'
'Zhou, Hao-Long'
'Zhou, Dong-Dong'
'Liao, Pei-Qin'
'Zhang, Jie-Peng'
'Chen, Xiao-Ming'
_publ_section_title
;
 Direct synthesis of an aliphatic amine functionalized metal-organic
 framework for efficient CO2 removal and CH4 purification
;
_journal_name_full               CrystEngComm
_journal_paper_doi               10.1039/C8CE00574E
_journal_year                    2018
_chemical_formula_moiety         '0.11(C432 H351 N27 O108 Zn27)'
_chemical_formula_sum            'C48 H39 N3 O12 Zn3'
_chemical_formula_weight         1045.93
_space_group_crystal_system      trigonal
_space_group_IT_number           148
_space_group_name_Hall           '-R 3'
_space_group_name_H-M_alt        'R -3'
_symmetry_space_group_name_Hall  '-R 3'
_symmetry_space_group_name_H-M   'R -3 :H'
_atom_sites_solution_hydrogens   geom
_audit_creation_date             2017-12-02
_audit_creation_method
;
Olex2 1.2
(compiled 2015.09.30 svn.r3233 for OlexSys, GUI svn.r5103)
;
_audit_update_record
;
2017-12-28 deposited with the CCDC.
2018-05-16 downloaded from the CCDC.
;
_cell_angle_alpha                90
_cell_angle_beta                 90
_cell_angle_gamma                120
_cell_formula_units_Z            9
_cell_length_a                   42.4897(8)
_cell_length_b                   42.4897(8)
_cell_length_c                   10.4000(4)
_cell_measurement_reflns_used    1786
_cell_measurement_temperature    203(2)
_cell_measurement_theta_max      40.4
_cell_measurement_theta_min      6.7
_cell_volume                     16260.4(8)
_computing_molecular_graphics    'Olex2 (Dolomanov et al., 2009)'
_computing_publication_material  'Olex2 (Dolomanov et al., 2009)'
_computing_structure_refinement  'ShelXL (Sheldrick, 2015)'
_computing_structure_solution    'SIR2004 (Burla et al., 2007)'
_diffrn_ambient_temperature      203
_diffrn_measured_fraction_theta_full 0.995
_diffrn_measured_fraction_theta_max 0.995
_diffrn_measurement_device_type  'Bruker P4'
_diffrn_measurement_method       '\w scans'
_diffrn_radiation_type           CuK\a
_diffrn_radiation_wavelength     1.54178
_diffrn_reflns_av_R_equivalents  0.0384
_diffrn_reflns_av_unetI/netI     0.0253
_diffrn_reflns_Laue_measured_fraction_full 0.995
_diffrn_reflns_Laue_measured_fraction_max 0.995
_diffrn_reflns_limit_h_max       50
_diffrn_reflns_limit_h_min       -44
_diffrn_reflns_limit_k_max       50
_diffrn_reflns_limit_k_min       -50
_diffrn_reflns_limit_l_max       8
_diffrn_reflns_limit_l_min       -12
_diffrn_reflns_number            29635
_diffrn_reflns_point_group_measured_fraction_full 0.995
_diffrn_reflns_point_group_measured_fraction_max 0.995
_diffrn_reflns_theta_full        67.482
_diffrn_reflns_theta_max         67.482
_diffrn_reflns_theta_min         2.079
_exptl_absorpt_coefficient_mu    1.515
_exptl_absorpt_correction_type   none
_exptl_crystal_colour            'clear light colourless'
_exptl_crystal_colour_lustre     clear
_exptl_crystal_colour_modifier   light
_exptl_crystal_colour_primary    colourless
_exptl_crystal_density_diffrn    0.961
_exptl_crystal_description       block
_exptl_crystal_F_000             4806
_exptl_crystal_size_max          0.2
_exptl_crystal_size_mid          0.2
_exptl_crystal_size_min          0.2
_refine_diff_density_max         0.537
_refine_diff_density_min         -0.549
_refine_diff_density_rms         0.085
_refine_ls_extinction_method     none
_refine_ls_goodness_of_fit_ref   1.090
_refine_ls_hydrogen_treatment    constr
_refine_ls_matrix_type           full
_refine_ls_number_parameters     274
_refine_ls_number_reflns         6487
_refine_ls_number_restraints     3
_refine_ls_restrained_S_all      1.093
_refine_ls_R_factor_all          0.0708
_refine_ls_R_factor_gt           0.0608
_refine_ls_shift/su_max          0.001
_refine_ls_shift/su_mean         0.000
_refine_ls_structure_factor_coef Fsqd
_refine_ls_weighting_details
'w=1/[\s^2^(Fo^2^)+(0.1567P)^2^] where P=(Fo^2^+2Fc^2^)/3'
_refine_ls_weighting_scheme      calc
_refine_ls_wR_factor_gt          0.2030
_refine_ls_wR_factor_ref         0.2140
_reflns_Friedel_coverage         0.000
_reflns_number_gt                5024
_reflns_number_total             6487
_reflns_threshold_expression     'I > 2\s(I)'
_cod_data_source_file            c8ce00574e2.cif
_cod_data_source_block           beta_Zn
_cod_original_cell_volume        16260.4(9)
_cod_database_code               7230657
_shelx_space_group_comment
;
The symmetry employed for this shelxl refinement is uniquely defined
by the following loop, which should always be used as a source of
symmetry information in preference to the above space-group names.
They are only intended as comments.
;
_olex2_refinement_description
;
1. Fixed Uiso
 At 1.2 times of:
  All C(H) groups, All C(H,H) groups, All N(H) groups
2. Restrained distances
 C24B-N2
 1.48 with sigma of 0.02
 C21B-C24B
 1.48 with sigma of 0.02
 C24A-C21A
 1.48 with sigma of 0.02
3. Uiso/Uaniso restraints and constraints
Uanis(C19A) = Uanis(C18A) = Uanis(C23A) = Uanis(C22A) = Uanis(C21A) =
Uanis(C20A) = Uanis(C24A) = Uanis(C19B) = Uanis(C18B) = Uanis(C23B) =
Uanis(C20B) = Uanis(C21B) = Uanis(C22B) = Uanis(C24B)
4. Others
 Fixed Sof: C17B(0.5) C19B(0.5) H19B(0.5) C18B(0.5) C23B(0.5) H23B(0.5)
 C22B(0.5) H22B(0.5) C21B(0.5) C20B(0.5) H20B(0.5) N2(0.5) H2(0.5) C19A(0.5)
 H19A(0.5) C18A(0.5) C23A(0.5) H23A(0.5) C22A(0.5) H22A(0.5) C21A(0.5)
 C20A(0.5) H20A(0.5) C24B(0.5) H24A(0.5) H24B(0.5) C24A(0.5) H24C(0.5)
 H24D(0.5) C17A(0.5)
5.a Ternary CH refined with riding coordinates:
 N1(H1)
5.b Secondary CH2 refined with riding coordinates:
 C9(H9A,H9B), C8(H8A,H8B), C24B(H24A,H24B), C24A(H24C,H24D)
5.c Aromatic/amide H refined with riding coordinates:
 C6(H6), C7(H7), C14(H14), C3(H3), C12(H12), C11(H11), C15(H15), C4(H4),
 C19B(H19B), C23B(H23B), C22B(H22B), C20B(H20B), N2(H2), C19A(H19A), C23A(H23A),
  C22A(H22A), C20A(H20A)
5.d Fitted hexagon refined as free rotating group:
 C19B(C18B,C23B,C22B,C21B,C20B), C19A(C18A,C23A,C22A,C21A,C20A)
;
_shelx_fab_checksum              39857
_shelx_fab_file
;
   -1    2    0    686.49      0.00
    0    3    0    114.01      0.00
   -2    4    0   -212.98      0.00
   -4    5    0    129.57      0.00
   -1    5    0    422.98      0.00
   -3    6    0   -222.70      0.00
    0    6    0    238.06      0.00
   -5    7    0    -92.37      0.00
   -2    7    0     74.30      0.00
   -7    8    0    -34.47      0.00
   -4    8    0    169.44      0.00
   -1    8    0    144.45      0.00
   -6    9    0     27.29      0.00
   -3    9    0    -81.56      0.00
    0    9    0    155.57      0.00
   -8   10    0   -148.80      0.00
   -5   10    0     11.09      0.00
   -2   10    0    -58.48      0.00
  -10   11    0   -147.95      0.00
   -7   11    0   -127.87      0.00
   -4   11    0   -180.82      0.00
   -1   11    0   -100.68      0.00
   -9   12    0     33.79      0.00
   -6   12    0   -124.89      0.00
   -3   12    0    -73.06      0.00
    0   12    0    -31.23      0.00
  -11   13    0    -69.09      0.00
   -8   13    0     31.31      0.00
   -5   13    0    140.52      0.00
   -2   13    0      5.25      0.00
  -13   14    0     34.31      0.00
  -10   14    0     80.94      0.00
   -7   14    0    -21.55      0.00
   -4   14    0     65.70      0.00
   -1   14    0    124.27      0.00
  -12   15    0    -44.89      0.00
   -9   15    0    -12.84      0.00
   -6   15    0      4.66      0.00
   -3   15    0    -25.74      0.00
    0   15    0     10.85      0.00
  -14   16    0     10.09      0.00
  -11   16    0    -74.80      0.00
   -8   16    0    -45.03      0.00
   -5   16    0    -33.35      0.00
   -2   16    0    -36.42      0.00
  -16   17    0    -33.02      0.00
  -13   17    0     18.23      0.00
  -10   17    0      4.15      0.00
   -7   17    0    -72.48      0.00
   -4   17    0      7.79      0.00
   -1   17    0    -14.44      0.00
  -15   18    0     26.06      0.00
  -12   18    0    -36.06      0.00
   -9   18    0     35.55      0.00
   -6   18    0     27.98      0.00
   -3   18    0    -12.05      0.00
    0   18    0     30.08      0.00
  -17   19    0    -20.95      0.00
  -14   19    0     20.41      0.00
  -11   19    0      5.63      0.00
   -8   19    0    -17.23      0.00
   -5   19    0     51.32      0.00
   -2   19    0     20.88      0.00
  -19   20    0     -3.64      0.00
  -16   20    0    -11.53      0.00
  -13   20    0     -5.96      0.00
  -10   20    0      1.28      0.00
   -7   20    0     -4.77      0.00
   -4   20    0     -1.84      0.00
   -1   20    0     12.12      0.00
  -18   21    0     14.71      0.00
  -15   21    0     -5.12      0.00
  -12   21    0     -8.80      0.00
   -9   21    0     14.26      0.00
   -6   21    0     -9.31      0.00
   -3   21    0     -7.90      0.00
    0   21    0     -0.21      0.00
  -20   22    0      2.75      0.00
  -17   22    0      4.40      0.00
  -14   22    0     34.23      0.00
  -11   22    0      2.33      0.00
   -8   22    0     -1.61      0.00
   -5   22    0     25.68      0.00
   -2   22    0    -10.68      0.00
  -22   23    0     -9.58      0.00
  -19   23    0     22.64      0.00
  -16   23    0     -5.77      0.00
  -13   23    0      4.85      0.00
  -10   23    0     32.88      0.00
   -7   23    0     -7.77      0.00
   -4   23    0      0.63      0.00
   -1   23    0     20.86      0.00
  -21   24    0    -12.91      0.00
  -18   24    0    -12.55      0.00
  -15   24    0      0.61      0.00
  -12   24    0    -12.57      0.00
   -9   24    0     -5.06      0.00
   -6   24    0     10.03      0.00
   -3   24    0     -5.89      0.00
    0   24    0     -9.03      0.00
  -23   25    0     -4.39      0.00
  -20   25    0    -12.31      0.00
  -17   25    0     -8.31      0.00
  -14   25    0     -7.82      0.00
  -11   25    0    -15.08      0.00
   -8   25    0     -7.95      0.00
   -5   25    0     -5.56      0.00
   -2   25    0     -8.20      0.00
  -25   26    0     -5.21      0.00
  -22   26    0     13.71      0.00
  -19   26    0      5.83      0.00
  -16   26    0     -4.69      0.00
  -13   26    0      3.81      0.00
  -10   26    0      7.69      0.00
   -7   26    0    -18.55      0.00
   -4   26    0      4.12      0.00
   -1   26    0     -0.22      0.00
  -24   27    0     14.31      0.00
  -21   27    0     -8.11      0.00
  -18   27    0     20.29      0.00
  -15   27    0     16.36      0.00
  -12   27    0     -8.27      0.00
   -9   27    0     15.46      0.00
   -6   27    0     10.91      0.00
   -3   27    0    -10.56      0.00
    0   27    0      6.21      0.00
  -26   28    0     -5.99      0.00
  -23   28    0      7.32      0.00
  -20   28    0      3.46      0.00
  -17   28    0     -4.99      0.00
  -14   28    0      6.51      0.00
  -11   28    0     12.10      0.00
   -8   28    0    -10.15      0.00
   -5   28    0      5.09      0.00
   -2   28    0      4.70      0.00
  -28   29    0     -1.19      0.00
  -25   29    0     -0.11      0.00
  -22   29    0     -3.71      0.00
  -19   29    0     -1.51      0.00
  -16   29    0     -3.38      0.00
  -13   29    0     -7.02      0.00
  -10   29    0     -2.21      0.00
   -7   29    0     -3.68      0.00
   -4   29    0     -8.26      0.00
   -1   29    0     -1.53      0.00
  -27   30    0      6.71      0.00
  -24   30    0     -0.52      0.00
  -21   30    0     -2.70      0.00
  -18   30    0      2.46      0.00
  -15   30    0     -3.70      0.00
  -12   30    0     -8.59      0.00
   -9   30    0      1.79      0.00
   -6   30    0     -7.00      0.00
   -3   30    0     -7.32      0.00
    0   30    0     -1.20      0.00
  -29   31    0     -1.86      0.00
  -26   31    0     -4.78      0.00
  -23   31    0     11.38      0.00
  -20   31    0     -4.09      0.00
  -17   31    0     -0.57      0.00
  -14   31    0      9.98      0.00
  -11   31    0     -4.50      0.00
   -8   31    0     -5.03      0.00
   -5   31    0      4.52      0.00
   -2   31    0      2.63      0.00
  -31   32    0     -2.00      0.00
  -28   32    0      4.16      0.00
  -25   32    0     -4.30      0.00
  -22   32    0     -5.04      0.00
  -19   32    0      8.21      0.00
  -16   32    0      2.17      0.00
  -13   32    0     -7.60      0.00
  -10   32    0      9.14      0.00
   -7   32    0     -0.93      0.00
   -4   32    0      1.87      0.00
   -1   32    0      5.39      0.00
  -30   33    0     -0.18      0.00
  -27   33    0     -0.08      0.00
  -24   33    0      3.19      0.00
  -21   33    0     -3.89      0.00
  -18   33    0     -3.41      0.00
  -15   33    0      2.11      0.00
  -12   33    0     -4.02      0.00
   -9   33    0     -0.46      0.00
   -6   33    0      2.48      0.00
   -3   33    0      2.09      0.00
    0   33    0      1.51      0.00
  -32   34    0      3.35      0.00
  -29   34    0      2.34      0.00
  -26   34    0      2.43      0.00
  -23   34    0      0.74      0.00
  -20   34    0     -1.21      0.00
  -17   34    0     -0.68      0.00
  -14   34    0     -3.48      0.00
  -11   34    0      0.06      0.00
   -8   34    0     -2.84      0.00
   -5   34    0      1.99      0.00
   -2   34    0     -1.63      0.00
  -34   35    0      0.56      0.00
  -31   35    0      1.08      0.00
  -28   35    0      5.02      0.00
  -25   35    0     -2.47      0.00
  -22   35    0      3.11      0.00
  -19   35    0      1.54      0.00
  -16   35    0     -3.28      0.00
  -13   35    0     -0.04      0.00
  -10   35    0      1.81      0.00
   -7   35    0     -0.30      0.00
   -4   35    0     -1.41      0.00
   -1   35    0      0.85      0.00
  -33   36    0      1.52      0.00
  -30   36    0     -2.46      0.00
  -27   36    0     -0.89      0.00
  -24   36    0      1.86      0.00
  -21   36    0     -1.77      0.00
  -18   36    0     -0.03      0.00
  -15   36    0      0.82      0.00
  -12   36    0     -0.94      0.00
   -9   36    0     -1.27      0.00
   -6   36    0      2.84      0.00
   -3   36    0     -1.25      0.00
    0   36    0      1.78      0.00
  -35   37    0     -0.08      0.00
  -32   37    0     -0.40      0.00
  -29   37    0      0.65      0.00
  -26   37    0     -4.80      0.00
  -23   37    0     -1.53      0.00
  -20   37    0      1.95      0.00
  -17   37    0     -3.52      0.00
  -14   37    0     -0.14      0.00
  -11   37    0     -3.63      0.00
   -8   37    0      1.14      0.00
   -5   37    0     -1.44      0.00
   -2   37    0     -0.54      0.00
  -37   38    0     -0.14      0.00
  -34   38    0      1.34      0.00
  -31   38    0     -1.32      0.00
  -28   38    0     -1.35      0.00
  -25   38    0     -1.17      0.00
  -22   38    0      0.28      0.00
  -19   38    0     -3.22      0.00
  -16   38    0     -1.04      0.00
  -13   38    0     -1.24      0.00
  -10   38    0     -2.02      0.00
   -7   38    0     -2.17      0.00
   -4   38    0     -1.70      0.00
   -1   38    0      0.96      0.00
  -36   39    0      0.16      0.00
  -33   39    0     -0.34      0.00
  -30   39    0     -0.09      0.00
  -27   39    0     -0.13      0.00
  -24   39    0     -1.82      0.00
  -21   39    0      0.71      0.00
  -18   39    0     -1.06      0.00
  -15   39    0      1.36      0.00
  -12   39    0     -2.07      0.00
   -9   39    0     -0.14      0.00
   -6   39    0     -1.68      0.00
   -3   39    0     -2.40      0.00
    0   39    0      2.02      0.00
  -38   40    0     -0.69      0.00
  -35   40    0      1.16      0.00
  -32   40    0     -0.48      0.00
  -29   40    0      1.48      0.00
  -26   40    0     -0.54      0.00
  -23   40    0      2.74      0.00
  -20   40    0     -0.70      0.00
  -17   40    0      1.76      0.00
  -14   40    0      0.27      0.00
  -11   40    0      0.51      0.00
   -8   40    0      0.03      0.00
   -5   40    0      0.06      0.00
   -2   40    0      0.20      0.00
  -40   41    0     -1.27      0.00
  -37   41    0      1.33      0.00
  -34   41    0      1.75      0.00
  -31   41    0      0.20      0.00
  -28   41    0      1.67      0.00
  -25   41    0      2.07      0.00
  -22   41    0      2.22      0.00
  -19   41    0      1.32      0.00
  -16   41    0      0.48      0.00
  -13   41    0      2.45      0.00
  -10   41    0     -2.69      0.00
   -7   41    0      1.57      0.00
   -4   41    0      0.25      0.00
   -1   41    0      0.29      0.00
  -39   42    0      2.57      0.00
  -36   42    0     -0.93      0.00
  -33   42    0      1.75      0.00
  -30   42    0      3.37      0.00
  -27   42    0     -1.04      0.00
  -24   42    0      1.89      0.00
  -21   42    0      2.83      0.00
  -18   42    0      1.39      0.00
  -15   42    0     -0.55      0.00
  -12   42    0     -1.18      0.00
   -9   42    0      2.61      0.00
   -6   42    0     -1.26      0.00
   -3   42    0     -0.90      0.00
    0   42    0     -2.44      0.00
  -41   43    0     -1.32      0.00
  -38   43    0     -1.35      0.00
  -35   43    0      1.49      0.00
  -32   43    0     -1.01      0.00
  -29   43    0      0.51      0.00
  -26   43    0      1.68      0.00
  -23   43    0      1.85      0.00
  -20   43    0      0.54      0.00
  -17   43    0     -1.16      0.00
  -14   43    0      2.62      0.00
  -11   43    0     -2.21      0.00
   -8   43    0      0.49      0.00
   -5   43    0      1.76      0.00
   -2   43    0     -0.22      0.00
  -43   44    0     -3.22      0.00
  -40   44    0      1.71      0.00
  -37   44    0     -3.59      0.00
  -34   44    0     -1.43      0.00
  -31   44    0      0.49      0.00
  -28   44    0     -1.19      0.00
  -25   44    0      0.83      0.00
  -22   44    0      1.40      0.00
  -19   44    0     -0.78      0.00
  -16   44    0      1.17      0.00
  -13   44    0     -0.54      0.00
  -10   44    0      1.66      0.00
   -7   44    0     -1.01      0.00
   -4   44    0      0.56      0.00
   -1   44    0      1.38      0.00
  -42   45    0     -0.41      0.00
  -39   45    0     -3.11      0.00
  -36   45    0     -1.60      0.00
  -33   45    0     -2.09      0.00
  -30   45    0     -0.35      0.00
  -27   45    0      1.05      0.00
  -24   45    0      1.08      0.00
  -21   45    0     -0.67      0.00
  -18   45    0     -1.85      0.00
  -15   45    0     -0.39      0.00
  -12   45    0      1.78      0.00
   -9   45    0      0.49      0.00
   -6   45    0      0.05      0.00
   -3   45    0     -0.45      0.00
    0   45    0     -2.39      0.00
  -44   46    0     -2.12      0.00
  -41   46    0     -1.60      0.00
  -38   46    0     -0.90      0.00
  -35   46    0     -2.90      0.00
  -32   46    0      0.02      0.00
  -29   46    0      1.58      0.00
  -26   46    0      1.26      0.00
  -23   46    0     -0.85      0.00
  -20   46    0     -0.28      0.00
  -17   46    0     -0.09      0.00
  -14   46    0     -0.88      0.00
  -11   46    0     -2.56      0.00
   -8   46    0      1.55      0.00
   -5   46    0      0.49      0.00
   -2   46    0     -1.28      0.00
  -46   47    0     -2.78      0.00
  -43   47    0     -1.30      0.00
  -40   47    0      0.42      0.00
  -37   47    0     -2.05      0.00
  -34   47    0      0.86      0.00
  -31   47    0      1.60      0.00
  -28   47    0      1.47      0.00
  -25   47    0     -0.57      0.00
  -22   47    0      1.66      0.00
  -19   47    0     -0.86      0.00
  -16   47    0     -1.41      0.00
  -13   47    0     -0.14      0.00
  -10   47    0      0.75      0.00
   -7   47    0     -0.86      0.00
   -4   47    0      0.52      0.00
   -1   47    0     -1.88      0.00
  -42   48    0      0.12      0.00
  -39   48    0     -0.32      0.00
  -36   48    0     -1.03      0.00
  -33   48    0      2.26      0.00
  -30   48    0      1.52      0.00
  -27   48    0      1.77      0.00
  -24   48    0     -0.07      0.00
  -21   48    0     -0.07      0.00
  -18   48    0     -0.75      0.00
  -15   48    0      0.15      0.00
  -12   48    0     -0.87      0.00
   -9   48    0      2.14      0.00
   -6   48    0      2.51      0.00
   -3   48    0     -0.77      0.00
  -41   49    0      2.29      0.00
  -38   49    0     -2.27      0.00
  -35   49    0     -0.12      0.00
  -32   49    0      0.87      0.00
  -29   49    0      0.99      0.00
  -26   49    0     -2.37      0.00
  -23   49    0      1.57      0.00
  -20   49    0     -1.77      0.00
  -17   49    0      0.84      0.00
  -14   49    0     -1.03      0.00
  -11   49    0      0.73      0.00
   -8   49    0      0.49      0.00
  -40   50    0     -1.35      0.00
  -37   50    0     -0.22      0.00
  -34   50    0     -0.75      0.00
  -31   50    0     -3.50      0.00
  -28   50    0      0.37      0.00
  -25   50    0     -0.08      0.00
  -22   50    0     -3.72      0.00
  -19   50    0     -1.89      0.00
  -16   50    0     -1.18      0.00
  -13   50    0      2.52      0.00
  -10   50    0     -1.17      0.00
  -39   51    0     -0.37      0.00
  -36   51    0     -0.99      0.00
  -33   51    0     -0.88      0.00
  -30   51    0     -1.29      0.00
  -27   51    0     -1.67      0.00
  -24   51    0     -0.44      0.00
  -21   51    0     -2.09      0.00
  -18   51    0     -0.45      0.00
  -15   51    0     -2.46      0.00
  -12   51    0     -1.38      0.00
  -35   52    0     -0.53      0.00
  -32   52    0     -1.06      0.00
  -29   52    0      0.82      0.00
  -26   52    0      0.06      0.00
  -23   52    0     -0.46      0.00
  -20   52    0      0.90      0.00
  -17   52    0     -2.19      0.00
  -34   53    0      1.24      0.00
  -31   53    0      0.03      0.00
  -28   53    0      1.94      0.00
  -25   53    0     -0.49      0.00
  -22   53    0      0.21      0.00
  -19   53    0      0.02      0.00
   -1    1    1   -525.63      0.00
   -3    2    1     -9.25      0.00
    0    2    1   -288.38      0.00
   -5    3    1    -54.55      0.00
   -2    3    1   -311.10      0.00
    1    3    1    237.41      0.00
   -7    4    1    -85.69      0.00
   -4    4    1    257.23      0.00
   -1    4    1    218.25      0.00
    2    4    1    -30.71      0.00
   -9    5    1    126.39      0.00
   -6    5    1    -48.31      0.00
   -3    5    1    207.56      0.00
    0    5    1    241.47      0.00
    3    5    1    183.10      0.00
  -11    6    1     51.69      0.00
   -8    6    1      8.64      0.00
   -5    6    1    -86.49      0.00
   -2    6    1    -13.56      0.00
    1    6    1     53.47      0.00
    4    6    1     35.67      0.00
  -13    7    1     69.43      0.00
  -10    7    1    -97.34      0.00
   -7    7    1   -169.72      0.00
   -4    7    1     60.11      0.00
   -1    7    1   -343.37      0.00
    2    7    1    -98.18      0.00
    5    7    1     -0.39      0.00
  -15    8    1    -52.46      0.00
  -12    8    1      5.83      0.00
   -9    8    1    138.88      0.00
   -6    8    1   -148.40      0.00
   -3    8    1   -184.37      0.00
    0    8    1      8.07      0.00
    3    8    1   -135.33      0.00
    6    8    1    -83.13      0.00
  -17    9    1      6.11      0.00
  -14    9    1     21.21      0.00
  -11    9    1     19.36      0.00
   -8    9    1     72.68      0.00
   -5    9    1    144.88      0.00
   -2    9    1    -35.51      0.00
    1    9    1     24.52      0.00
    4    9    1     25.56      0.00
    7    9    1    -23.96      0.00
  -19   10    1     -8.32      0.00
  -16   10    1     39.96      0.00
  -13   10    1     -4.49      0.00
  -10   10    1     21.56      0.00
   -7   10    1     83.34      0.00
   -4   10    1    115.05      0.00
   -1   10    1     94.02      0.00
    2   10    1    102.72      0.00
    5   10    1      5.69      0.00
    8   10    1     25.41      0.00
  -21   11    1      7.55      0.00
  -18   11    1     22.64      0.00
  -15   11    1    -75.54      0.00
  -12   11    1     41.05      0.00
   -9   11    1     38.37      0.00
   -6   11    1    -69.56      0.00
   -3   11    1     74.99      0.00
    0   11    1     67.26      0.00
    3   11    1     -4.71      0.00
    6   11    1     49.70      0.00
    9   11    1      4.37      0.00
  -23   12    1     -1.88      0.00
  -20   12    1    -39.34      0.00
  -17   12    1     16.82      0.00
  -14   12    1      7.47      0.00
  -11   12    1    -97.13      0.00
   -8   12    1     27.92      0.00
   -5   12    1     34.13      0.00
   -2   12    1   -121.69      0.00
    1   12    1     18.97      0.00
    4   12    1     -9.16      0.00
    7   12    1    -19.10      0.00
   10   12    1     15.43      0.00
  -25   13    1     -3.06      0.00
  -22   13    1      1.90      0.00
  -19   13    1     -2.51      0.00
  -16   13    1    -15.16      0.00
  -13   13    1     18.40      0.00
  -10   13    1     23.39      0.00
   -7   13    1    -48.86      0.00
   -4   13    1    -19.83      0.00
   -1   13    1    -17.19      0.00
    2   13    1    -48.47      0.00
    5   13    1      4.70      0.00
    8   13    1     -6.12      0.00
   11   13    1    -20.18      0.00
  -27   14    1      2.71      0.00
  -24   14    1      6.82      0.00
  -21   14    1     19.75      0.00
  -18   14    1     -3.35      0.00
  -15   14    1     10.01      0.00
  -12   14    1     27.53      0.00
   -9   14    1      6.94      0.00
   -6   14    1     -3.93      0.00
   -3   14    1    -22.92      0.00
    0   14    1    -19.32      0.00
    3   14    1      8.14      0.00
    6   14    1     -3.04      0.00
    9   14    1     11.64      0.00
   12   14    1      3.89      0.00
  -29   15    1     -9.52      0.00
  -26   15    1     13.25      0.00
  -23   15    1      3.70      0.00
  -20   15    1    -14.40      0.00
  -17   15    1     65.72      0.00
  -14   15    1    -36.08      0.00
  -11   15    1    -28.17      0.00
   -8   15    1     45.75      0.00
   -5   15    1    -39.00      0.00
   -2   15    1    -17.14      0.00
    1   15    1     24.50      0.00
    4   15    1    -10.86      0.00
    7   15    1     16.37      0.00
   10   15    1      9.35      0.00
   13   15    1      6.17      0.00
  -31   16    1      4.33      0.00
  -28   16    1    -11.17      0.00
  -25   16    1    -10.08      0.00
  -22   16    1     21.80      0.00
  -19   16    1    -15.09      0.00
  -16   16    1    -32.96      0.00
  -13   16    1     40.53      0.00
  -10   16    1    -39.72      0.00
   -7   16    1    -47.08      0.00
   -4   16    1     35.38      0.00
   -1   16    1    -25.93      0.00
    2   16    1     -2.53      0.00
    5   16    1     15.46      0.00
    8   16    1     -5.76      0.00
   11   16    1     -0.56      0.00
   14   16    1      5.20      0.00
  -33   17    1      2.47      0.00
  -30   17    1     -0.68      0.00
  -27   17    1      8.67      0.00
  -24   17    1     -3.36      0.00
  -21   17    1    -20.43      0.00
  -18   17    1     17.54      0.00
  -15   17    1    -27.19      0.00
  -12   17    1    -18.11      0.00
   -9   17    1     29.10      0.00
   -6   17    1     -4.16      0.00
   -3   17    1    -10.58      0.00
    0   17    1     22.35      0.00
    3   17    1    -20.44      0.00
    6   17    1     -7.85      0.00
    9   17    1      7.92      0.00
   12   17    1     -6.17      0.00
   15   17    1     -7.06      0.00
  -35   18    1      3.59      0.00
  -32   18    1      2.67      0.00
  -29   18    1      1.81      0.00
  -26   18    1      2.30      0.00
  -23   18    1     -2.41      0.00
  -20   18    1     -0.55      0.00
  -17   18    1      1.24      0.00
  -14   18    1      2.66      0.00
  -11   18    1     19.49      0.00
   -8   18    1     26.11      0.00
   -5   18    1     22.09      0.00
   -2   18    1     15.11      0.00
    1   18    1      0.46      0.00
    4   18    1      9.54      0.00
    7   18    1     -2.20      0.00
   10   18    1     -8.67      0.00
   13   18    1      5.64      0.00
   16   18    1     -0.82      0.00
  -37   19    1     -1.97      0.00
  -34   19    1      0.76      0.00
  -31   19    1      2.55      0.00
  -28   19    1    -11.98      0.00
  -25   19    1     -0.37      0.00
  -22   19    1     10.42      0.00
  -19   19    1    -27.10      0.00
  -16   19    1     18.61      0.00
  -13   19    1     35.37      0.00
  -10   19    1     -9.60      0.00
   -7   19    1     35.76      0.00
   -4   19    1     22.73      0.00
   -1   19    1      1.57      0.00
    2   19    1     19.83      0.00
    5   19    1      1.88      0.00
    8   19    1     10.87      0.00
   11   19    1      4.81      0.00
   14   19    1     -2.64      0.00
   17   19    1      1.17      0.00
  -39   20    1      2.06      0.00
  -36   20    1      1.18      0.00
  -33   20    1     -6.43      0.00
  -30   20    1     -1.40      0.00
  -27   20    1      1.73      0.00
  -24   20    1    -22.61      0.00
  -21   20    1     -3.68      0.00
  -18   20    1     20.60      0.00
  -15   20    1    -37.75      0.00
  -12   20    1     13.39      0.00
   -9   20    1     18.76      0.00
   -6   20    1    -28.91      0.00
   -3   20    1     13.29      0.00
    0   20    1      6.38      0.00
    3   20    1     -9.24      0.00
    6   20    1     12.96      0.00
    9   20    1      3.17      0.00
   12   20    1      2.57      0.00
   15   20    1     -0.41      0.00
   18   20    1     -1.67      0.00
  -41   21    1     -0.24      0.00
  -38   21    1     -0.22      0.00
  -35   21    1      1.35      0.00
  -32   21    1      4.45      0.00
  -29   21    1     -8.88      0.00
  -26   21    1     -1.35      0.00
  -23   21    1     12.49      0.00
  -20   21    1    -26.03      0.00
  -17   21    1     -2.23      0.00
  -14   21    1      2.95      0.00
  -11   21    1    -37.55      0.00
   -8   21    1     -6.29      0.00
   -5   21    1     -0.79      0.00
   -2   21    1    -38.10      0.00
    1   21    1      1.19      0.00
    4   21    1     -3.91      0.00
    7   21    1     -9.64      0.00
   10   21    1     -1.88      0.00
   13   21    1     -0.10      0.00
   16   21    1     -2.61      0.00
   19   21    1      1.89      0.00
  -43   22    1     -2.24      0.00
  -40   22    1     -0.98      0.00
  -37   22    1     -2.94      0.00
  -34   22    1      0.03      0.00
  -31   22    1      2.92      0.00
  -28   22    1      4.23      0.00
  -25   22    1      0.24      0.00
  -22   22    1      2.59      0.00
  -19   22    1      6.23      0.00
  -16   22    1    -14.35      0.00
  -13   22    1     -2.96      0.00
  -10   22    1     -7.32      0.00
   -7   22    1    -11.66      0.00
   -4   22    1     -7.71      0.00
   -1   22    1     -2.24      0.00
    2   22    1    -21.77      0.00
    5   22    1     -6.95      0.00
    8   22    1     -0.50      0.00
   11   22    1     -4.80      0.00
   14   22    1     -3.79      0.00
   17   22    1     -0.43      0.00
   20   22    1      0.01      0.00
  -45   23    1      1.09      0.00
  -42   23    1     -4.15      0.00
  -39   23    1     -2.53      0.00
  -36   23    1     -1.93      0.00
  -33   23    1     -3.16      0.00
  -30   23    1      2.49      0.00
  -27   23    1     -5.59      0.00
  -24   23    1     -2.37      0.00
  -21   23    1     12.61      0.00
  -18   23    1     -1.13      0.00
  -15   23    1     -5.22      0.00
  -12   23    1     17.74      0.00
   -9   23    1      0.72      0.00
   -6   23    1     12.93      0.00
   -3   23    1      5.77      0.00
    0   23    1     -1.53      0.00
    3   23    1      4.40      0.00
    6   23    1     -1.22      0.00
    9   23    1     -3.07      0.00
   12   23    1      1.50      0.00
   15   23    1     -1.52      0.00
   18   23    1     -1.22      0.00
   21   23    1     -0.22      0.00
  -47   24    1      0.83      0.00
  -44   24    1      2.10      0.00
  -41   24    1      1.05      0.00
  -38   24    1     -3.62      0.00
  -35   24    1      1.07      0.00
  -32   24    1     -3.50      0.00
  -29   24    1    -13.23      0.00
  -26   24    1      3.06      0.00
  -23   24    1     -5.05      0.00
  -20   24    1    -12.54      0.00
  -17   24    1     17.74      0.00
  -14   24    1      0.49      0.00
  -11   24    1      1.99      0.00
   -8   24    1     30.00      0.00
   -5   24    1      6.89      0.00
   -2   24    1      8.03      0.00
    1   24    1     13.58      0.00
    4   24    1      0.63      0.00
    7   24    1      4.15      0.00
   10   24    1      2.80      0.00
   13   24    1     -1.40      0.00
   16   24    1      1.55      0.00
   19   24    1     -0.01      0.00
   22   24    1     -0.15      0.00
  -49   25    1     -0.27      0.00
  -46   25    1      4.61      0.00
  -43   25    1      2.75      0.00
  -40   25    1      0.46      0.00
  -37   25    1      0.49      0.00
  -34   25    1     -3.91      0.00
  -31   25    1      3.77      0.00
  -28   25    1     -4.64      0.00
  -25   25    1    -13.84      0.00
  -22   25    1     11.34      0.00
  -19   25    1     -3.10      0.00
  -16   25    1    -12.00      0.00
  -13   25    1     26.96      0.00
  -10   25    1     -3.04      0.00
   -7   25    1     -1.80      0.00
   -4   25    1     19.29      0.00
   -1   25    1     -5.78      0.00
    2   25    1     -2.90      0.00
    5   25    1      5.78      0.00
    8   25    1     -0.02      0.00
   11   25    1      0.77      0.00
   14   25    1      0.13      0.00
   17   25    1      0.86      0.00
   20   25    1      1.35      0.00
   23   25    1      2.07      0.00
  -51   26    1     -0.37      0.00
  -48   26    1      1.96      0.00
  -45   26    1      1.73      0.00
  -42   26    1     -0.03      0.00
  -39   26    1     -0.66      0.00
  -36   26    1      1.56      0.00
  -33   26    1     -0.67      0.00
  -30   26    1     -4.07      0.00
  -27   26    1      7.09      0.00
  -24   26    1      1.52      0.00
  -21   26    1     -2.56      0.00
  -18   26    1     15.00      0.00
  -15   26    1     -1.59      0.00
  -12   26    1      5.33      0.00
   -9   26    1      9.03      0.00
   -6   26    1     -2.93      0.00
   -3   26    1    -17.53      0.00
    0   26    1     -0.09      0.00
    3   26    1     -3.63      0.00
    6   26    1     -4.78      0.00
    9   26    1      0.47      0.00
   12   26    1     -1.58      0.00
   15   26    1      1.31      0.00
   18   26    1      0.39      0.00
   21   26    1      1.04      0.00
   24   26    1     -1.41      0.00
  -53   27    1      2.44      0.00
  -50   27    1     -1.12      0.00
  -47   27    1      2.18      0.00
  -44   27    1      0.04      0.00
  -41   27    1     -4.60      0.00
  -38   27    1     -1.25      0.00
  -35   27    1     -0.99      0.00
  -32   27    1     -3.81      0.00
  -29   27    1      0.56      0.00
  -26   27    1      1.42      0.00
  -23   27    1      3.55      0.00
  -20   27    1      7.13      0.00
  -17   27    1      0.66      0.00
  -14   27    1     11.05      0.00
  -11   27    1      5.77      0.00
   -8   27    1     -3.28      0.00
   -5   27    1     -0.19      0.00
   -2   27    1     -4.24      0.00
    1   27    1     -9.00      0.00
    4   27    1     -1.27      0.00
    7   27    1      0.32      0.00
   10   27    1     -0.93      0.00
   13   27    1     -3.15      0.00
   16   27    1     -0.62      0.00
   19   27    1     -1.74      0.00
   22   27    1      0.20      0.00
   25   27    1     -0.19      0.00
  -52   28    1      1.83      0.00
  -49   28    1      3.51      0.00
  -46   28    1      1.89      0.00
  -43   28    1     -4.38      0.00
  -40   28    1     -2.31      0.00
  -37   28    1     -0.82      0.00
  -34   28    1     -2.72      0.00
  -31   28    1      1.70      0.00
  -28   28    1     -8.34      0.00
  -25   28    1     -2.64      0.00
  -22   28    1      4.55      0.00
  -19   28    1     -5.06      0.00
  -16   28    1      0.65      0.00
  -13   28    1      7.34      0.00
  -10   28    1     -6.44      0.00
   -7   28    1      5.84      0.00
   -4   28    1      0.05      0.00
   -1   28    1     -1.81      0.00
    2   28    1      4.08      0.00
    5   28    1     -0.34      0.00
    8   28    1      0.56      0.00
   11   28    1     -1.21      0.00
   14   28    1     -1.74      0.00
   17   28    1     -3.08      0.00
   20   28    1      0.25      0.00
   23   28    1     -2.62      0.00
  -51   29    1      2.02      0.00
  -48   29    1      4.67      0.00
  -45   29    1      0.92      0.00
  -42   29    1     -1.68      0.00
  -39   29    1      0.78      0.00
  -36   29    1      2.27      0.00
  -33   29    1     -3.21      0.00
  -30   29    1     -0.41      0.00
  -27   29    1      4.44      0.00
  -24   29    1    -12.05      0.00
  -21   29    1     -0.94      0.00
  -18   29    1      2.12      0.00
  -15   29    1    -14.08      0.00
  -12   29    1      2.15      0.00
   -9   29    1      1.66      0.00
   -6   29    1     -7.19      0.00
   -3   29    1      6.54      0.00
    0   29    1      2.06      0.00
    3   29    1     -0.48      0.00
    6   29    1      2.55      0.00
    9   29    1      1.59      0.00
   12   29    1     -0.74      0.00
   15   29    1     -0.36      0.00
   18   29    1      0.11      0.00
   21   29    1     -1.71      0.00
   24   29    1      0.43      0.00
  -53   30    1      1.62      0.00
  -50   30    1      1.36      0.00
  -47   30    1      5.17      0.00
  -44   30    1      0.75      0.00
  -41   30    1     -0.16      0.00
  -38   30    1      0.28      0.00
  -35   30    1     -0.03      0.00
  -32   30    1      6.24      0.00
  -29   30    1     -3.85      0.00
  -26   30    1      1.42      0.00
  -23   30    1      6.75      0.00
  -20   30    1     -9.75      0.00
  -17   30    1      1.36      0.00
  -14   30    1      2.18      0.00
  -11   30    1     -7.76      0.00
   -8   30    1     -3.37      0.00
   -5   30    1      5.97      0.00
   -2   30    1     -3.56      0.00
    1   30    1     -0.49      0.00
    4   30    1      1.24      0.00
    7   30    1      0.91      0.00
   10   30    1      1.31      0.00
   13   30    1      1.77      0.00
   16   30    1     -1.25      0.00
   19   30    1      1.53      0.00
   22   30    1     -1.06      0.00
  -52   31    1      1.52      0.00
  -49   31    1      0.79      0.00
  -46   31    1     -0.37      0.00
  -43   31    1     -0.12      0.00
  -40   31    1      1.03      0.00
  -37   31    1     -1.34      0.00
  -34   31    1     -0.63      0.00
  -31   31    1      0.77      0.00
  -28   31    1      1.31      0.00
  -25   31    1     -1.68      0.00
  -22   31    1      2.42      0.00
  -19   31    1      8.13      0.00
  -16   31    1     -4.44      0.00
  -13   31    1      4.02      0.00
  -10   31    1      3.23      0.00
   -7   31    1     -1.73      0.00
   -4   31    1     -1.53      0.00
   -1   31    1      0.58      0.00
    2   31    1      0.03      0.00
    5   31    1      1.15      0.00
    8   31    1     -0.34      0.00
   11   31    1     -0.17      0.00
   14   31    1     -0.67      0.00
   17   31    1      1.60      0.00
   20   31    1     -1.17      0.00
  -51   32    1     -1.47      0.00
  -48   32    1      0.70      0.00
  -45   32    1     -0.18      0.00
  -42   32    1     -1.32      0.00
  -39   32    1     -1.14      0.00
  -36   32    1     -0.46      0.00
  -33   32    1     -2.92      0.00
  -30   32    1     -0.49      0.00
  -27   32    1     -1.22      0.00
  -24   32    1     -0.40      0.00
  -21   32    1      1.20      0.00
  -18   32    1      0.48      0.00
  -15   32    1      0.20      0.00
  -12   32    1      7.02      0.00
   -9   32    1     -3.74      0.00
   -6   32    1      3.27      0.00
   -3   32    1      1.85      0.00
    0   32    1     -1.60      0.00
    3   32    1      2.53      0.00
    6   32    1      1.62      0.00
    9   32    1     -1.44      0.00
   12   32    1     -1.16      0.00
   15   32    1     -2.82      0.00
   18   32    1      1.21      0.00
   21   32    1      1.04      0.00
  -53   33    1      2.22      0.00
  -50   33    1     -0.62      0.00
  -47   33    1      2.18      0.00
  -44   33    1     -1.01      0.00
  -41   33    1     -2.10      0.00
  -38   33    1     -0.56      0.00
  -35   33    1      3.10      0.00
  -32   33    1      2.61      0.00
  -29   33    1     -5.36      0.00
  -26   33    1      2.74      0.00
  -23   33    1     -0.76      0.00
  -20   33    1     -3.08      0.00
  -17   33    1      2.04      0.00
  -14   33    1     -2.46      0.00
  -11   33    1     -5.47      0.00
   -8   33    1      3.88      0.00
   -5   33    1     -3.64      0.00
   -2   33    1      2.31      0.00
    1   33    1      3.03      0.00
    4   33    1      1.50      0.00
    7   33    1     -0.30      0.00
   10   33    1     -0.41      0.00
   13   33    1     -1.16      0.00
   16   33    1     -1.26      0.00
   19   33    1      1.96      0.00
  -52   34    1      2.49      0.00
  -49   34    1      1.92      0.00
  -46   34    1     -0.05      0.00
  -43   34    1     -0.67      0.00
  -40   34    1      0.60      0.00
  -37   34    1      2.10      0.00
  -34   34    1      1.70      0.00
  -31   34    1      7.64      0.00
  -28   34    1      1.39      0.00
  -25   34    1     -3.27      0.00
  -22   34    1      4.87      0.00
  -19   34    1     -0.40      0.00
  -16   34    1     -4.87      0.00
  -13   34    1      0.61      0.00
  -10   34    1     -6.28      0.00
   -7   34    1     -2.98      0.00
   -4   34    1      1.13      0.00
   -1   34    1     -0.17      0.00
    2   34    1     -0.33      0.00
    5   34    1      2.78      0.00
    8   34    1      0.11      0.00
   11   34    1     -0.79      0.00
   14   34    1     -0.34      0.00
   17   34    1      0.61      0.00
  -51   35    1      0.10      0.00
  -48   35    1      4.01      0.00
  -45   35    1      1.50      0.00
  -42   35    1     -3.14      0.00
  -39   35    1      2.03      0.00
  -36   35    1      2.72      0.00
  -33   35    1      3.37      0.00
  -30   35    1      2.04      0.00
  -27   35    1      1.98      0.00
  -24   35    1      2.37      0.00
  -21   35    1     -3.15      0.00
  -18   35    1      4.13      0.00
  -15   35    1     -0.06      0.00
  -12   35    1     -5.16      0.00
   -9   35    1     -0.64      0.00
   -6   35    1     -2.88      0.00
   -3   35    1      2.06      0.00
    0   35    1     -0.53      0.00
    3   35    1     -0.90      0.00
    6   35    1     -1.25      0.00
    9   35    1      0.33      0.00
   12   35    1      1.77      0.00
   15   35    1     -2.22      0.00
  -50   36    1      1.59      0.00
  -47   36    1      0.92      0.00
  -44   36    1      0.06      0.00
  -41   36    1      2.03      0.00
  -38   36    1      0.28      0.00
  -35   36    1      1.75      0.00
  -32   36    1      0.92      0.00
  -29   36    1     -3.07      0.00
  -26   36    1     -0.24      0.00
  -23   36    1     -1.67      0.00
  -20   36    1      1.94      0.00
  -17   36    1      1.19      0.00
  -14   36    1     -2.47      0.00
  -11   36    1      0.09      0.00
   -8   36    1      1.24      0.00
   -5   36    1     -0.57      0.00
   -2   36    1      2.65      0.00
    1   36    1     -1.15      0.00
    4   36    1     -0.61      0.00
    7   36    1     -1.01      0.00
   10   36    1     -1.92      0.00
   13   36    1      1.53      0.00
   16   36    1     -0.86      0.00
  -52   37    1      1.69      0.00
  -49   37    1      1.15      0.00
  -46   37    1      1.37      0.00
  -43   37    1      0.01      0.00
  -40   37    1      3.20      0.00
  -37   37    1     -1.37      0.00
  -34   37    1     -0.74      0.00
  -31   37    1      0.97      0.00
  -28   37    1     -5.61      0.00
  -25   37    1      1.19      0.00
  -22   37    1     -0.68      0.00
  -19   37    1     -2.24      0.00
  -16   37    1      0.85      0.00
  -13   37    1      2.27      0.00
  -10   37    1     -0.67      0.00
   -7   37    1      2.89      0.00
   -4   37    1      4.36      0.00
   -1   37    1     -1.33      0.00
    2   37    1      0.52      0.00
    5   37    1      0.20      0.00
    8   37    1     -0.25      0.00
   11   37    1      0.98      0.00
   14   37    1     -2.18      0.00
  -51   38    1     -0.26      0.00
  -48   38    1      2.03      0.00
  -45   38    1     -0.34      0.00
  -42   38    1     -1.38      0.00
  -39   38    1      0.80      0.00
  -36   38    1      1.35      0.00
  -33   38    1     -1.53      0.00
  -30   38    1     -2.33      0.00
  -27   38    1      2.77      0.00
  -24   38    1     -3.26      0.00
  -21   38    1      1.96      0.00
  -18   38    1      3.40      0.00
  -15   38    1     -0.22      0.00
  -12   38    1      1.33      0.00
   -9   38    1      2.97      0.00
   -6   38    1      1.37      0.00
   -3   38    1      3.16      0.00
    0   38    1      2.98      0.00
    3   38    1     -1.38      0.00
    6   38    1      0.88      0.00
    9   38    1     -0.24      0.00
   12   38    1      1.13      0.00
  -50   39    1     -0.26      0.00
  -47   39    1     -1.62      0.00
  -44   39    1     -0.48      0.00
  -41   39    1     -0.03      0.00
  -38   39    1     -3.42      0.00
  -35   39    1      0.88      0.00
  -32   39    1      0.73      0.00
  -29   39    1     -1.70      0.00
  -26   39    1      1.91      0.00
  -23   39    1      1.55      0.00
  -20   39    1      1.14      0.00
  -17   39    1      2.43      0.00
  -14   39    1      2.77      0.00
  -11   39    1      0.74      0.00
   -8   39    1      2.50      0.00
   -5   39    1      1.56      0.00
   -2   39    1      0.69      0.00
    1   39    1      0.52      0.00
    4   39    1      1.35      0.00
    7   39    1     -1.39      0.00
   10   39    1     -0.65      0.00
  -49   40    1      0.65      0.00
  -46   40    1      0.99      0.00
  -43   40    1     -3.73      0.00
  -40   40    1     -0.12      0.00
  -37   40    1     -2.09      0.00
  -34   40    1     -1.06      0.00
  -31   40    1      1.17      0.00
  -28   40    1     -0.22      0.00
  -25   40    1      0.91      0.00
  -22   40    1      0.76      0.00
  -19   40    1     -0.57      0.00
  -16   40    1      2.14      0.00
  -13   40    1     -0.08      0.00
  -10   40    1     -0.12      0.00
   -7   40    1      1.71      0.00
   -4   40    1      0.22      0.00
   -1   40    1      0.23      0.00
    2   40    1     -1.99      0.00
    5   40    1     -1.97      0.00
    8   40    1     -2.00      0.00
  -48   41    1     -0.45      0.00
  -45   41    1     -1.15      0.00
  -42   41    1      0.11      0.00
  -39   41    1     -0.95      0.00
  -36   41    1      0.82      0.00
  -33   41    1     -0.71      0.00
  -30   41    1     -0.37      0.00
  -27   41    1      0.61      0.00
  -24   41    1     -1.77      0.00
  -21   41    1      1.71      0.00
  -18   41    1     -1.80      0.00
  -15   41    1     -3.05      0.00
  -12   41    1      1.34      0.00
   -9   41    1     -0.14      0.00
   -6   41    1     -3.64      0.00
   -3   41    1      1.17      0.00
    0   41    1     -1.47      0.00
    3   41    1     -1.34      0.00
    6   41    1     -3.76      0.00
    9   41    1     -0.58      0.00
  -47   42    1      1.09      0.00
  -44   42    1     -0.69      0.00
  -41   42    1     -0.31      0.00
  -38   42    1      0.05      0.00
  -35   42    1      1.13      0.00
  -32   42    1      1.11      0.00
  -29   42    1     -2.16      0.00
  -26   42    1      3.26      0.00
  -23   42    1     -0.53      0.00
  -20   42    1     -3.96      0.00
  -17   42    1     -0.44      0.00
  -14   42    1      0.16      0.00
  -11   42    1     -0.96      0.00
   -8   42    1      0.06      0.00
   -5   42    1     -0.26      0.00
   -2   42    1     -5.09      0.00
    1   42    1      0.97      0.00
    4   42    1     -0.93      0.00
    7   42    1     -0.36      0.00
  -46   43    1     -0.48      0.00
  -43   43    1     -0.75      0.00
  -40   43    1     -1.13      0.00
  -37   43    1      1.08      0.00
  -34   43    1      0.58      0.00
  -31   43    1     -1.20      0.00
  -28   43    1      0.53      0.00
  -25   43    1     -2.15      0.00
  -22   43    1      1.99      0.00
  -19   43    1     -0.25      0.00
  -16   43    1     -0.53      0.00
  -13   43    1      0.00      0.00
  -10   43    1     -0.24      0.00
   -7   43    1     -0.19      0.00
   -4   43    1      1.69      0.00
   -1   43    1     -0.57      0.00
    2   43    1     -1.09      0.00
    5   43    1     -1.01      0.00
  -48   44    1      0.05      0.00
  -45   44    1      1.15      0.00
  -42   44    1     -2.58      0.00
  -39   44    1     -0.01      0.00
  -36   44    1     -0.47      0.00
  -33   44    1     -1.09      0.00
  -30   44    1     -1.94      0.00
  -27   44    1     -0.26      0.00
  -24   44    1     -1.20      0.00
  -21   44    1     -1.01      0.00
  -18   44    1      1.10      0.00
  -15   44    1      1.42      0.00
  -12   44    1     -0.48      0.00
   -9   44    1     -0.80      0.00
   -6   44    1      2.39      0.00
   -3   44    1     -0.64      0.00
    0   44    1      2.51      0.00
    3   44    1     -1.32      0.00
  -47   45    1      1.94      0.00
  -44   45    1     -0.43      0.00
  -41   45    1     -2.34      0.00
  -38   45    1     -0.76      0.00
  -35   45    1     -0.40      0.00
  -32   45    1     -1.57      0.00
  -29   45    1     -0.17      0.00
  -26   45    1     -1.24      0.00
  -23   45    1     -1.03      0.00
  -20   45    1     -0.31      0.00
  -17   45    1      1.12      0.00
  -14   45    1     -1.88      0.00
  -11   45    1     -1.11      0.00
   -8   45    1      2.40      0.00
   -5   45    1     -0.10      0.00
   -2   45    1      0.30      0.00
    1   45    1     -0.09      0.00
  -46   46    1      0.71      0.00
  -43   46    1     -0.57      0.00
  -40   46    1     -0.23      0.00
  -37   46    1      0.44      0.00
  -34   46    1      0.06      0.00
  -31   46    1     -0.89      0.00
  -28   46    1     -0.91      0.00
  -25   46    1     -0.19      0.00
  -22   46    1      1.63      0.00
  -19   46    1     -0.29      0.00
  -16   46    1     -0.91      0.00
  -13   46    1      1.04      0.00
  -10   46    1     -1.57      0.00
   -7   46    1     -2.61      0.00
   -4   46    1      0.47      0.00
   -1   46    1      1.10      0.00
  -45   47    1     -0.59      0.00
  -42   47    1      0.14      0.00
  -39   47    1      0.54      0.00
  -36   47    1      1.52      0.00
  -33   47    1      0.95      0.00
  -30   47    1     -0.36      0.00
  -27   47    1      1.11      0.00
  -24   47    1     -0.11      0.00
  -21   47    1     -0.88      0.00
  -18   47    1      0.22      0.00
  -15   47    1      1.28      0.00
  -12   47    1      0.34      0.00
   -9   47    1      0.94      0.00
   -6   47    1     -4.57      0.00
   -3   47    1     -1.55      0.00
  -44   48    1      0.61      0.00
  -41   48    1     -2.32      0.00
  -38   48    1      2.50      0.00
  -35   48    1      2.07      0.00
  -32   48    1     -0.36      0.00
  -29   48    1      0.76      0.00
  -26   48    1     -1.94      0.00
  -23   48    1      2.90      0.00
  -20   48    1     -1.22      0.00
  -17   48    1     -2.57      0.00
  -14   48    1      0.53      0.00
  -11   48    1      1.16      0.00
   -8   48    1     -0.46      0.00
   -5   48    1     -0.48      0.00
  -40   49    1      0.62      0.00
  -37   49    1     -0.09      0.00
  -34   49    1     -0.02      0.00
  -31   49    1     -0.47      0.00
  -28   49    1     -0.56      0.00
  -25   49    1      0.35      0.00
  -22   49    1     -2.15      0.00
  -19   49    1     -0.51      0.00
  -16   49    1     -0.02      0.00
  -13   49    1     -2.14      0.00
  -10   49    1      1.34      0.00
   -7   49    1     -0.61      0.00
  -39   50    1     -0.32      0.00
  -36   50    1     -0.58      0.00
  -33   50    1     -2.07      0.00
  -30   50    1      0.94      0.00
  -27   50    1     -1.99      0.00
  -24   50    1      1.02      0.00
  -21   50    1     -0.25      0.00
  -18   50    1     -0.33      0.00
  -15   50    1     -2.36      0.00
  -12   50    1      0.97      0.00
   -9   50    1      1.49      0.00
  -38   51    1     -1.87      0.00
  -35   51    1     -2.22      0.00
  -32   51    1     -1.25      0.00
  -29   51    1     -0.58      0.00
  -26   51    1      2.68      0.00
  -23   51    1      1.14      0.00
  -20   51    1      2.25      0.00
  -17   51    1      0.14      0.00
  -14   51    1     -0.48      0.00
  -34   52    1     -1.82      0.00
  -31   52    1     -0.58      0.00
  -28   52    1      2.22      0.00
  -25   52    1      1.49      0.00
  -22   52    1      1.60      0.00
  -19   52    1      2.40      0.00
  -16   52    1     -0.12      0.00
  -33   53    1     -1.33      0.00
    0    1    2     13.11      0.00
   -2    2    2    -16.81      0.00
    1    2    2      5.41      0.00
   -4    3    2     -1.24      0.00
   -1    3    2   -129.82      0.00
    2    3    2   -128.98      0.00
   -6    4    2     23.92      0.00
   -3    4    2    -39.54      0.00
    0    4    2   -149.91      0.00
    3    4    2     -1.19      0.00
   -8    5    2     56.56      0.00
   -5    5    2    -25.21      0.00
   -2    5    2    -17.18      0.00
    1    5    2    -64.56      0.00
    4    5    2     -0.58      0.00
  -10    6    2    -41.37      0.00
   -7    6    2     61.41      0.00
   -4    6    2     41.40      0.00
   -1    6    2    -86.27      0.00
    2    6    2     42.28      0.00
    5    6    2     20.24      0.00
  -12    7    2     10.88      0.00
   -9    7    2      1.64      0.00
   -6    7    2    -43.93      0.00
   -3    7    2     41.76      0.00
    0    7    2     31.87      0.00
    3    7    2      9.18      0.00
    6    7    2     11.34      0.00
  -14    8    2    -15.58      0.00
  -11    8    2     11.02      0.00
   -8    8    2    -10.37      0.00
   -5    8    2     25.20      0.00
   -2    8    2     41.80      0.00
    1    8    2     -2.32      0.00
    4    8    2     21.30      0.00
    7    8    2     25.20      0.00
  -16    9    2     -1.55      0.00
  -13    9    2    -26.28      0.00
  -10    9    2    -35.32      0.00
   -7    9    2     66.09      0.00
   -4    9    2     13.14      0.00
   -1    9    2     19.53      0.00
    2    9    2     28.83      0.00
    5    9    2    -16.64      0.00
    8    9    2     -3.83      0.00
  -18   10    2    -16.27      0.00
  -15   10    2    -33.72      0.00
  -12   10    2     44.67      0.00
   -9   10    2    -15.76      0.00
   -6   10    2    -32.23      0.00
   -3   10    2     55.40      0.00
    0   10    2    -40.06      0.00
    3   10    2    -10.65      0.00
    6   10    2     18.48      0.00
    9   10    2    -20.73      0.00
  -20   11    2      8.86      0.00
  -17   11    2      3.70      0.00
  -14   11    2      1.36      0.00
  -11   11    2    -15.20      0.00
   -8   11    2     52.50      0.00
   -5   11    2    -43.81      0.00
   -2   11    2    -45.98      0.00
    1   11    2    -26.95      0.00
    4   11    2    -15.49      0.00
    7   11    2     -2.58      0.00
   10   11    2     11.17      0.00
  -22   12    2      6.76      0.00
  -19   12    2      9.73      0.00
  -16   12    2      3.90      0.00
  -13   12    2     -7.66      0.00
  -10   12    2     20.42      0.00
   -7   12    2     -9.16      0.00
   -4   12    2    -21.06      0.00
   -1   12    2    -14.89      0.00
    2   12    2    -19.00      0.00
    5   12    2    -21.96      0.00
    8   12    2     -3.18      0.00
   11   12    2      8.98      0.00
  -24   13    2      6.70      0.00
  -21   13    2      6.21      0.00
  -18   13    2    -26.68      0.00
  -15   13    2    -12.07      0.00
  -12   13    2     19.63      0.00
   -9   13    2    -21.72      0.00
   -6   13    2     14.63      0.00
   -3   13    2     36.67      0.00
    0   13    2    -37.27      0.00
    3   13    2     22.43      0.00
    6   13    2    -11.35      0.00
    9   13    2    -11.34      0.00
   12   13    2      8.01      0.00
  -26   14    2      4.15      0.00
  -23   14    2    -13.82      0.00
  -20   14    2      1.19      0.00
  -17   14    2      0.41      0.00
  -14   14    2    -61.35      0.00
  -11   14    2     -1.83      0.00
   -8   14    2     43.90      0.00
   -5   14    2    -14.84      0.00
   -2   14    2     35.59      0.00
    1   14    2     21.12      0.00
    4   14    2    -11.78      0.00
    7   14    2      8.25      0.00
   10   14    2     -7.35      0.00
   13   14    2     -3.45      0.00
  -28   15    2     -7.04      0.00
  -25   15    2     -3.92      0.00
  -22   15    2      1.77      0.00
  -19   15    2     -4.59      0.00
  -16   15    2    -20.32      0.00
  -13   15    2     15.20      0.00
  -10   15    2    -36.01      0.00
   -7   15    2      2.37      0.00
   -4   15    2     40.09      0.00
   -1   15    2    -18.18      0.00
    2   15    2     31.52      0.00
    5   15    2     11.38      0.00
    8   15    2     -1.67      0.00
   11   15    2      3.49      0.00
   14   15    2     -3.20      0.00
  -30   16    2      3.80      0.00
  -27   16    2      1.08      0.00
  -24   16    2     -0.74      0.00
  -21   16    2      1.30      0.00
  -18   16    2     -5.20      0.00
  -15   16    2      9.79      0.00
  -12   16    2    -13.52      0.00
   -9   16    2      8.01      0.00
   -6   16    2     -0.86      0.00
   -3   16    2    -20.14      0.00
    0   16    2      2.28      0.00
    3   16    2     12.08      0.00
    6   16    2     15.41      0.00
    9   16    2      9.49      0.00
   12   16    2      4.95      0.00
   15   16    2     -5.94      0.00
  -32   17    2      1.31      0.00
  -29   17    2     12.79      0.00
  -26   17    2      5.19      0.00
  -23   17    2     -7.10      0.00
  -20   17    2     21.75      0.00
  -17   17    2     -7.11      0.00
  -14   17    2    -12.89      0.00
  -11   17    2     28.04      0.00
   -8   17    2    -11.20      0.00
   -5   17    2    -23.61      0.00
   -2   17    2     -0.87      0.00
    1   17    2    -20.31      0.00
    4   17    2     10.08      0.00
    7   17    2      5.02      0.00
   10   17    2     -2.03      0.00
   13   17    2      5.95      0.00
   16   17    2      3.17      0.00
  -34   18    2      0.92      0.00
  -31   18    2      0.55      0.00
  -28   18    2     -2.23      0.00
  -25   18    2     12.98      0.00
  -22   18    2      2.55      0.00
  -19   18    2    -14.00      0.00
  -16   18    2     31.43      0.00
  -13   18    2     -7.25      0.00
  -10   18    2    -19.51      0.00
   -7   18    2     23.93      0.00
   -4   18    2    -26.89      0.00
   -1   18    2    -19.05      0.00
    2   18    2      0.64      0.00
    5   18    2    -12.60      0.00
    8   18    2      0.17      0.00
   11   18    2      0.48      0.00
   14   18    2     -7.19      0.00
   17   18    2      5.59      0.00
  -36   19    2     -3.22      0.00
  -33   19    2     -8.61      0.00
  -30   19    2     -3.27      0.00
  -27   19    2     -5.12      0.00
  -24   19    2     -8.33      0.00
  -21   19    2     19.77      0.00
  -18   19    2      8.73      0.00
  -15   19    2    -20.50      0.00
  -12   19    2     14.43      0.00
   -9   19    2      6.98      0.00
   -6   19    2    -22.00      0.00
   -3   19    2     21.76      0.00
    0   19    2    -17.22      0.00
    3   19    2     -2.93      0.00
    6   19    2     -5.15      0.00
    9   19    2     -7.31      0.00
   12   19    2      0.17      0.00
   15   19    2     -1.21      0.00
   18   19    2     -3.00      0.00
  -38   20    2      0.69      0.00
  -35   20    2     -0.58      0.00
  -32   20    2     -6.40      0.00
  -29   20    2     -8.64      0.00
  -26   20    2     -1.92      0.00
  -23   20    2      0.26      0.00
  -20   20    2     11.68      0.00
  -17   20    2      2.51      0.00
  -14   20    2      1.25      0.00
  -11   20    2     -6.92      0.00
   -8   20    2      6.09      0.00
   -5   20    2     12.90      0.00
   -2   20    2      6.11      0.00
    1   20    2      8.98      0.00
    4   20    2      4.13      0.00
    7   20    2     -7.49      0.00
   10   20    2     -5.24      0.00
   13   20    2      2.10      0.00
   16   20    2      1.15      0.00
   19   20    2     -3.73      0.00
  -40   21    2      1.71      0.00
  -37   21    2      3.73      0.00
  -34   21    2      6.25      0.00
  -31   21    2      0.21      0.00
  -28   21    2      0.57      0.00
  -25   21    2      5.96      0.00
  -22   21    2     -1.97      0.00
  -19   21    2      5.31      0.00
  -16   21    2     14.73      0.00
  -13   21    2    -20.33      0.00
  -10   21    2     18.66      0.00
   -7   21    2      3.07      0.00
   -4   21    2      4.48      0.00
   -1   21    2     20.41      0.00
    2   21    2     -0.26      0.00
    5   21    2     -1.60      0.00
    8   21    2      6.81      0.00
   11   21    2     -1.99      0.00
   14   21    2     -2.89      0.00
   17   21    2      2.08      0.00
   20   21    2      2.71      0.00
  -42   22    2     -0.02      0.00
  -39   22    2      1.20      0.00
  -36   22    2      1.12      0.00
  -33   22    2      3.90      0.00
  -30   22    2      7.45      0.00
  -27   22    2      0.03      0.00
  -24   22    2      1.49      0.00
  -21   22    2     17.16      0.00
  -18   22    2    -16.27      0.00
  -15   22    2      5.22      0.00
  -12   22    2     14.81      0.00
   -9   22    2     -9.87      0.00
   -6   22    2     10.80      0.00
   -3   22    2      0.68      0.00
    0   22    2     -6.24      0.00
    3   22    2     13.13      0.00
    6   22    2     -8.52      0.00
    9   22    2     -2.14      0.00
   12   22    2      7.58      0.00
   15   22    2     -0.70      0.00
   18   22    2     -2.41      0.00
   21   22    2      4.00      0.00
  -44   23    2      0.48      0.00
  -41   23    2     -2.54      0.00
  -38   23    2     -3.81      0.00
  -35   23    2      0.05      0.00
  -32   23    2     -7.89      0.00
  -29   23    2     -2.54      0.00
  -26   23    2      7.15      0.00
  -23   23    2     -8.08      0.00
  -20   23    2     -5.12      0.00
  -17   23    2     13.59      0.00
  -14   23    2    -16.36      0.00
  -11   23    2      9.44      0.00
   -8   23    2      8.61      0.00
   -5   23    2    -18.96      0.00
   -2   23    2      7.06      0.00
    1   23    2     -7.38      0.00
    4   23    2     -6.58      0.00
    7   23    2      6.26      0.00
   10   23    2     -3.46      0.00
   13   23    2     -0.19      0.00
   16   23    2      1.94      0.00
   19   23    2     -2.46      0.00
   22   23    2     -1.52      0.00
  -46   24    2      1.64      0.00
  -43   24    2     -0.31      0.00
  -40   24    2     -2.20      0.00
  -37   24    2     -3.19      0.00
  -34   24    2     -3.78      0.00
  -31   24    2     -4.62      0.00
  -28   24    2    -11.06      0.00
  -25   24    2     -4.88      0.00
  -22   24    2      2.01      0.00
  -19   24    2     -8.09      0.00
  -16   24    2     -3.56      0.00
  -13   24    2     -1.50      0.00
  -10   24    2     -2.48      0.00
   -7   24    2     -1.98      0.00
   -4   24    2     -2.98      0.00
   -1   24    2     -4.34      0.00
    2   24    2     -2.38      0.00
    5   24    2     -5.59      0.00
    8   24    2      2.52      0.00
   11   24    2      0.36      0.00
   14   24    2     -2.81      0.00
   17   24    2     -2.17      0.00
   20   24    2      1.18      0.00
   23   24    2     -0.97      0.00
  -48   25    2      2.43      0.00
  -45   25    2      2.35      0.00
  -42   25    2      2.91      0.00
  -39   25    2      1.50      0.00
  -36   25    2      0.45      0.00
  -33   25    2     -1.01      0.00
  -30   25    2     -2.16      0.00
  -27   25    2     -2.43      0.00
  -24   25    2      0.19      0.00
  -21   25    2      1.06      0.00
  -18   25    2     -3.02      0.00
  -15   25    2      2.21      0.00
  -12   25    2    -11.47      0.00
   -9   25    2      2.04      0.00
   -6   25    2     -1.42      0.00
   -3   25    2     -6.59      0.00
    0   25    2      2.53      0.00
    3   25    2      0.21      0.00
    6   25    2     -4.01      0.00
    9   25    2     -3.57      0.00
   12   25    2      4.79      0.00
   15   25    2     -1.34      0.00
   18   25    2     -2.37      0.00
   21   25    2      0.98      0.00
   24   25    2      5.70      0.00
  -50   26    2      0.36      0.00
  -47   26    2      0.71      0.00
  -44   26    2      0.91      0.00
  -41   26    2     -0.46      0.00
  -38   26    2      2.55      0.00
  -35   26    2      1.90      0.00
  -32   26    2      2.21      0.00
  -29   26    2      3.26      0.00
  -26   26    2      4.56      0.00
  -23   26    2      0.42      0.00
  -20   26    2      9.92      0.00
  -17   26    2      3.18      0.00
  -14   26    2     -4.24      0.00
  -11   26    2      7.85      0.00
   -8   26    2     -7.04      0.00
   -5   26    2      0.28      0.00
   -2   26    2     10.83      0.00
    1   26    2    -11.93      0.00
    4   26    2      0.97      0.00
    7   26    2      4.14      0.00
   10   26    2     -2.99      0.00
   13   26    2      1.04      0.00
   16   26    2      2.20      0.00
   19   26    2      0.25      0.00
   22   26    2      2.77      0.00
   25   26    2      1.26      0.00
  -52   27    2     -0.79      0.00
  -49   27    2      1.15      0.00
  -46   27    2     -4.83      0.00
  -43   27    2     -2.29      0.00
  -40   27    2     -1.68      0.00
  -37   27    2     -3.93      0.00
  -34   27    2      1.30      0.00
  -31   27    2     -1.47      0.00
  -28   27    2     -3.70      0.00
  -25   27    2      3.76      0.00
  -22   27    2      2.04      0.00
  -19   27    2     -1.23      0.00
  -16   27    2     13.61      0.00
  -13   27    2     -5.44      0.00
  -10   27    2      1.85      0.00
   -7   27    2     12.50      0.00
   -4   27    2     -6.47      0.00
   -1   27    2      4.86      0.00
    2   27    2      6.47      0.00
    5   27    2     -7.04      0.00
    8   27    2      0.59      0.00
   11   27    2      3.65      0.00
   14   27    2     -2.03      0.00
   17   27    2      1.69      0.00
   20   27    2      0.24      0.00
   23   27    2      2.01      0.00
   26   27    2     -2.43      0.00
  -51   28    2     -1.31      0.00
  -48   28    2     -2.34      0.00
  -45   28    2     -2.13      0.00
  -42   28    2     -2.31      0.00
  -39   28    2     -1.85      0.00
  -36   28    2     -4.63      0.00
  -33   28    2     -7.05      0.00
  -30   28    2     -5.48      0.00
  -27   28    2     -3.90      0.00
  -24   28    2     -9.94      0.00
  -21   28    2     -0.98      0.00
  -18   28    2     -3.97      0.00
  -15   28    2     -2.26      0.00
  -12   28    2      3.34      0.00
   -9   28    2     -1.08      0.00
   -6   28    2      3.14      0.00
   -3   28    2      7.46      0.00
    0   28    2     -4.09      0.00
    3   28    2      4.74      0.00
    6   28    2      1.23      0.00
    9   28    2     -3.95      0.00
   12   28    2      0.73      0.00
   15   28    2      0.69      0.00
   18   28    2     -2.15      0.00
   21   28    2      0.98      0.00
   24   28    2     -1.68      0.00
  -53   29    2     -1.65      0.00
  -50   29    2      3.33      0.00
  -47   29    2     -1.28      0.00
  -44   29    2      0.99      0.00
  -41   29    2     -0.35      0.00
  -38   29    2      0.57      0.00
  -35   29    2      1.51      0.00
  -32   29    2     -4.80      0.00
  -29   29    2     -5.22      0.00
  -26   29    2     -3.59      0.00
  -23   29    2     -7.17      0.00
  -20   29    2     -4.70      0.00
  -17   29    2     -7.10      0.00
  -14   29    2     -2.87      0.00
  -11   29    2     -6.36      0.00
   -8   29    2      0.90      0.00
   -5   29    2      0.59      0.00
   -2   29    2     -0.20      0.00
    1   29    2      0.71      0.00
    4   29    2     -2.20      0.00
    7   29    2      3.13      0.00
   10   29    2     -1.15      0.00
   13   29    2     -1.96      0.00
   16   29    2      1.36      0.00
   19   29    2     -0.48      0.00
   22   29    2      1.05      0.00
  -52   30    2      0.43      0.00
  -49   30    2      0.52      0.00
  -46   30    2      1.97      0.00
  -43   30    2      3.87      0.00
  -40   30    2      3.62      0.00
  -37   30    2      3.85      0.00
  -34   30    2      4.75      0.00
  -31   30    2      0.10      0.00
  -28   30    2      3.51      0.00
  -25   30    2     -1.33      0.00
  -22   30    2     -0.12      0.00
  -19   30    2      0.54      0.00
  -16   30    2     -0.11      0.00
  -13   30    2     -7.59      0.00
  -10   30    2      0.24      0.00
   -7   30    2     -1.19      0.00
   -4   30    2     -8.35      0.00
   -1   30    2      2.77      0.00
    2   30    2     -0.24      0.00
    5   30    2     -1.78      0.00
    8   30    2      1.22      0.00
   11   30    2      2.97      0.00
   14   30    2     -0.05      0.00
   17   30    2     -0.53      0.00
   20   30    2      0.81      0.00
   23   30    2      1.80      0.00
  -51   31    2      0.92      0.00
  -48   31    2      0.58      0.00
  -45   31    2      3.22      0.00
  -42   31    2      1.49      0.00
  -39   31    2      3.01      0.00
  -36   31    2      3.49      0.00
  -33   31    2      0.98      0.00
  -30   31    2      4.31      0.00
  -27   31    2      1.56      0.00
  -24   31    2      0.66      0.00
  -21   31    2      7.08      0.00
  -18   31    2     -2.38      0.00
  -15   31    2      9.77      0.00
  -12   31    2     -0.61      0.00
   -9   31    2     -4.63      0.00
   -6   31    2      3.40      0.00
   -3   31    2     -1.60      0.00
    0   31    2     -4.34      0.00
    3   31    2      2.86      0.00
    6   31    2      0.72      0.00
    9   31    2      0.30      0.00
   12   31    2      2.30      0.00
   15   31    2      0.80      0.00
   18   31    2     -1.40      0.00
   21   31    2     -1.01      0.00
  -50   32    2      1.93      0.00
  -47   32    2      0.37      0.00
  -44   32    2      0.66      0.00
  -41   32    2     -0.07      0.00
  -38   32    2     -0.12      0.00
  -35   32    2      0.39      0.00
  -32   32    2     -5.57      0.00
  -29   32    2     -0.73      0.00
  -26   32    2     -2.37      0.00
  -23   32    2     -2.00      0.00
  -20   32    2      3.95      0.00
  -17   32    2      2.90      0.00
  -14   32    2     -2.03      0.00
  -11   32    2      3.79      0.00
   -8   32    2      2.35      0.00
   -5   32    2     -4.00      0.00
   -2   32    2      6.69      0.00
    1   32    2     -0.82      0.00
    4   32    2     -1.50      0.00
    7   32    2      1.20      0.00
   10   32    2      0.43      0.00
   13   32    2     -0.59      0.00
   16   32    2     -0.31      0.00
   19   32    2     -3.05      0.00
  -52   33    2      0.72      0.00
  -49   33    2      0.45      0.00
  -46   33    2      0.24      0.00
  -43   33    2      1.85      0.00
  -40   33    2      0.26      0.00
  -37   33    2     -1.39      0.00
  -34   33    2     -2.59      0.00
  -31   33    2     -3.36      0.00
  -28   33    2     -5.88      0.00
  -25   33    2     -3.75      0.00
  -22   33    2      0.71      0.00
  -19   33    2     -2.56      0.00
  -16   33    2     -2.33      0.00
  -13   33    2     -2.83      0.00
  -10   33    2      0.69      0.00
   -7   33    2      0.38      0.00
   -4   33    2     -0.87      0.00
   -1   33    2     -1.02      0.00
    2   33    2      4.57      0.00
    5   33    2     -1.02      0.00
    8   33    2     -1.11      0.00
   11   33    2      0.38      0.00
   14   33    2     -0.58      0.00
   17   33    2     -1.54      0.00
  -51   34    2      2.63      0.00
  -48   34    2     -0.36      0.00
  -45   34    2      0.93      0.00
  -42   34    2      0.37      0.00
  -39   34    2      3.25      0.00
  -36   34    2      2.76      0.00
  -33   34    2     -0.59      0.00
  -30   34    2     -0.28      0.00
  -27   34    2     -1.13      0.00
  -24   34    2     -1.21      0.00
  -21   34    2      2.57      0.00
  -18   34    2     -2.58      0.00
  -15   34    2     -0.74      0.00
  -12   34    2     -3.40      0.00
   -9   34    2     -3.21      0.00
   -6   34    2      0.29      0.00
   -3   34    2     -1.94      0.00
    0   34    2     -1.98      0.00
    3   34    2      2.63      0.00
    6   34    2      0.65      0.00
    9   34    2      0.87      0.00
   12   34    2     -0.17      0.00
   15   34    2      1.03      0.00
   18   34    2     -2.54      0.00
  -50   35    2      1.02      0.00
  -47   35    2     -0.63      0.00
  -44   35    2      2.44      0.00
  -41   35    2      2.38      0.00
  -38   35    2      2.59      0.00
  -35   35    2      6.31      0.00
  -32   35    2      0.77      0.00
  -29   35    2      0.58      0.00
  -26   35    2      1.11      0.00
  -23   35    2      1.61      0.00
  -20   35    2      5.78      0.00
  -17   35    2     -1.57      0.00
  -14   35    2     -0.55      0.00
  -11   35    2      3.04      0.00
   -8   35    2     -4.82      0.00
   -5   35    2     -2.32      0.00
   -2   35    2     -0.15      0.00
    1   35    2      1.05      0.00
    4   35    2     -0.52      0.00
    7   35    2      1.34      0.00
   10   35    2      1.26      0.00
   13   35    2      0.82      0.00
   16   35    2      0.24      0.00
  -49   36    2     -1.00      0.00
  -46   36    2      2.32      0.00
  -43   36    2      1.71      0.00
  -40   36    2      0.85      0.00
  -37   36    2      2.09      0.00
  -34   36    2      2.91      0.00
  -31   36    2     -0.11      0.00
  -28   36    2      0.22      0.00
  -25   36    2     -3.01      0.00
  -22   36    2      1.42      0.00
  -19   36    2     -1.81      0.00
  -16   36    2      4.12      0.00
  -13   36    2     -0.03      0.00
  -10   36    2     -1.51      0.00
   -7   36    2      2.45      0.00
   -4   36    2     -3.23      0.00
   -1   36    2      0.80      0.00
    2   36    2      3.00      0.00
    5   36    2     -1.44      0.00
    8   36    2     -0.12      0.00
   11   36    2     -1.57      0.00
   14   36    2      2.25      0.00
  -51   37    2      2.18      0.00
  -48   37    2      0.01      0.00
  -45   37    2      1.22      0.00
  -42   37    2      0.54      0.00
  -39   37    2     -0.40      0.00
  -36   37    2      0.73      0.00
  -33   37    2     -2.10      0.00
  -30   37    2     -0.01      0.00
  -27   37    2     -3.54      0.00
  -24   37    2     -3.28      0.00
  -21   37    2     -2.04      0.00
  -18   37    2     -2.19      0.00
  -15   37    2     -1.44      0.00
  -12   37    2     -1.19      0.00
   -9   37    2     -2.16      0.00
   -6   37    2      2.67      0.00
   -3   37    2      2.54      0.00
    0   37    2      2.78      0.00
    3   37    2     -1.51      0.00
    6   37    2      0.27      0.00
    9   37    2     -1.26      0.00
   12   37    2     -1.29      0.00
  -50   38    2     -0.34      0.00
  -47   38    2      0.07      0.00
  -44   38    2      2.23      0.00
  -41   38    2     -2.41      0.00
  -38   38    2     -0.47      0.00
  -35   38    2      0.73      0.00
  -32   38    2     -1.98      0.00
  -29   38    2      0.48      0.00
  -26   38    2     -1.39      0.00
  -23   38    2      0.29      0.00
  -20   38    2     -1.47      0.00
  -17   38    2     -2.70      0.00
  -14   38    2     -3.27      0.00
  -11   38    2      0.93      0.00
   -8   38    2     -0.69      0.00
   -5   38    2     -0.23      0.00
   -2   38    2      3.38      0.00
    1   38    2      2.46      0.00
    4   38    2      1.18      0.00
    7   38    2     -0.57      0.00
   10   38    2     -2.40      0.00
   13   38    2      0.70      0.00
  -49   39    2     -0.49      0.00
  -46   39    2      0.22      0.00
  -43   39    2     -1.32      0.00
  -40   39    2     -0.53      0.00
  -37   39    2     -1.71      0.00
  -34   39    2      2.56      0.00
  -31   39    2      0.88      0.00
  -28   39    2      0.81      0.00
  -25   39    2      3.68      0.00
  -22   39    2      1.68      0.00
  -19   39    2      3.69      0.00
  -16   39    2     -0.32      0.00
  -13   39    2     -1.21      0.00
  -10   39    2     -0.14      0.00
   -7   39    2      2.76      0.00
   -4   39    2     -0.77      0.00
   -1   39    2      0.14      0.00
    2   39    2      0.02      0.00
    5   39    2      1.14      0.00
    8   39    2      0.55      0.00
   11   39    2     -1.82      0.00
  -48   40    2     -0.73      0.00
  -45   40    2      0.48      0.00
  -42   40    2     -0.99      0.00
  -39   40    2     -0.15      0.00
  -36   40    2      0.90      0.00
  -33   40    2     -0.95      0.00
  -30   40    2      0.09      0.00
  -27   40    2      1.98      0.00
  -24   40    2      2.39      0.00
  -21   40    2      5.50      0.00
  -18   40    2      1.95      0.00
  -15   40    2      0.56      0.00
  -12   40    2      1.15      0.00
   -9   40    2     -0.83      0.00
   -6   40    2      2.31      0.00
   -3   40    2     -0.90      0.00
    0   40    2     -1.39      0.00
    3   40    2     -3.30      0.00
    6   40    2      0.15      0.00
    9   40    2      0.10      0.00
  -47   41    2      0.96      0.00
  -44   41    2      0.03      0.00
  -41   41    2      0.99      0.00
  -38   41    2     -0.71      0.00
  -35   41    2      1.48      0.00
  -32   41    2     -3.21      0.00
  -29   41    2      1.30      0.00
  -26   41    2     -1.56      0.00
  -23   41    2     -1.47      0.00
  -20   41    2      0.85      0.00
  -17   41    2      1.43      0.00
  -14   41    2      1.41      0.00
  -11   41    2     -0.88      0.00
   -8   41    2      0.93      0.00
   -5   41    2     -0.84      0.00
   -2   41    2     -2.78      0.00
    1   41    2     -0.07      0.00
    4   41    2     -1.04      0.00
    7   41    2     -0.43      0.00
  -49   42    2      0.74      0.00
  -46   42    2     -0.60      0.00
  -43   42    2      2.05      0.00
  -40   42    2      0.90      0.00
  -37   42    2      1.11      0.00
  -34   42    2     -1.14      0.00
  -31   42    2     -1.21      0.00
  -28   42    2     -1.24      0.00
  -25   42    2     -2.51      0.00
  -22   42    2     -2.28      0.00
  -19   42    2     -0.16      0.00
  -16   42    2     -0.06      0.00
  -13   42    2     -1.89      0.00
  -10   42    2      0.56      0.00
   -7   42    2      1.63      0.00
   -4   42    2     -2.20      0.00
   -1   42    2      1.75      0.00
    2   42    2     -1.84      0.00
    5   42    2      2.77      0.00
  -48   43    2      0.10      0.00
  -45   43    2      0.04      0.00
  -42   43    2      1.54      0.00
  -39   43    2      2.09      0.00
  -36   43    2     -2.21      0.00
  -33   43    2     -0.97      0.00
  -30   43    2      1.65      0.00
  -27   43    2     -2.92      0.00
  -24   43    2     -0.73      0.00
  -21   43    2     -1.99      0.00
  -18   43    2      2.34      0.00
  -15   43    2     -0.41      0.00
  -12   43    2     -0.01      0.00
   -9   43    2      0.41      0.00
   -6   43    2     -0.42      0.00
   -3   43    2     -0.07      0.00
    0   43    2      2.46      0.00
    3   43    2      3.49      0.00
  -47   44    2     -0.35      0.00
  -44   44    2      0.19      0.00
  -41   44    2     -1.29      0.00
  -38   44    2     -1.91      0.00
  -35   44    2     -0.64      0.00
  -32   44    2      0.40      0.00
  -29   44    2     -0.30      0.00
  -26   44    2      0.09      0.00
  -23   44    2     -1.73      0.00
  -20   44    2      2.22      0.00
  -17   44    2     -0.69      0.00
  -14   44    2      1.93      0.00
  -11   44    2      2.05      0.00
   -8   44    2     -1.07      0.00
   -5   44    2     -0.34      0.00
   -2   44    2     -1.18      0.00
    1   44    2      2.64      0.00
  -46   45    2     -0.23      0.00
  -43   45    2     -1.45      0.00
  -40   45    2     -0.65      0.00
  -37   45    2     -4.32      0.00
  -34   45    2     -1.04      0.00
  -31   45    2     -0.43      0.00
  -28   45    2     -0.79      0.00
  -25   45    2      2.17      0.00
  -22   45    2      0.46      0.00
  -19   45    2      1.53      0.00
  -16   45    2     -1.63      0.00
  -13   45    2      0.42      0.00
  -10   45    2     -0.09      0.00
   -7   45    2      0.07      0.00
   -4   45    2     -0.34      0.00
   -1   45    2     -2.11      0.00
  -45   46    2     -0.69      0.00
  -42   46    2     -0.18      0.00
  -39   46    2     -3.36      0.00
  -36   46    2     -1.25      0.00
  -33   46    2     -0.39      0.00
  -30   46    2     -0.29      0.00
  -27   46    2      0.50      0.00
  -24   46    2      0.12      0.00
  -21   46    2      1.21      0.00
  -18   46    2      1.93      0.00
  -15   46    2      2.06      0.00
  -12   46    2     -1.77      0.00
   -9   46    2     -4.11      0.00
   -6   46    2      1.81      0.00
   -3   46    2     -4.87      0.00
  -44   47    2     -1.85      0.00
  -41   47    2     -0.99      0.00
  -38   47    2      1.57      0.00
  -35   47    2     -1.34      0.00
  -32   47    2     -0.61      0.00
  -29   47    2      0.18      0.00
  -26   47    2      1.92      0.00
  -23   47    2      1.49      0.00
  -20   47    2      1.43      0.00
  -17   47    2      2.43      0.00
  -14   47    2      2.47      0.00
  -11   47    2     -3.61      0.00
   -8   47    2     -0.15      0.00
   -5   47    2     -1.81      0.00
  -43   48    2      0.33      0.00
  -40   48    2     -0.99      0.00
  -37   48    2      0.05      0.00
  -34   48    2     -0.33      0.00
  -31   48    2     -1.24      0.00
  -28   48    2      0.17      0.00
  -25   48    2      2.09      0.00
  -22   48    2     -0.56      0.00
  -19   48    2      6.46      0.00
  -16   48    2     -0.51      0.00
  -13   48    2     -1.00      0.00
  -10   48    2     -1.64      0.00
  -42   49    2     -3.17      0.00
  -39   49    2     -0.92      0.00
  -36   49    2     -0.70      0.00
  -33   49    2     -0.44      0.00
  -30   49    2     -1.37      0.00
  -27   49    2     -0.46      0.00
  -24   49    2     -1.26      0.00
  -21   49    2      0.85      0.00
  -18   49    2      0.10      0.00
  -15   49    2      2.54      0.00
  -38   50    2     -1.65      0.00
  -35   50    2     -2.06      0.00
  -32   50    2     -1.01      0.00
  -29   50    2     -0.52      0.00
  -26   50    2     -0.35      0.00
  -23   50    2     -1.68      0.00
  -20   50    2      1.12      0.00
  -17   50    2     -2.84      0.00
  -14   50    2     -1.04      0.00
  -37   51    2     -0.32      0.00
  -34   51    2      0.16      0.00
  -31   51    2     -0.25      0.00
  -28   51    2     -0.64      0.00
  -25   51    2     -1.40      0.00
  -22   51    2      2.41      0.00
  -19   51    2      0.75      0.00
  -16   51    2      1.23      0.00
  -33   52    2      1.87      0.00
  -30   52    2      1.33      0.00
  -27   52    2     -0.19      0.00
  -24   52    2      2.22      0.00
  -21   52    2      0.26      0.00
  -26   53    2      1.48      0.00
    0    0    3    110.23      0.00
    1    1    3     25.02      0.00
   -1    2    3     31.68      0.00
    2    2    3    -18.15      0.00
   -3    3    3      0.65      0.00
    0    3    3     14.01      0.00
    3    3    3    -10.25      0.00
   -5    4    3     13.66      0.00
   -2    4    3    -14.92      0.00
    1    4    3     40.58      0.00
    4    4    3     -5.25      0.00
   -7    5    3    -41.83      0.00
   -4    5    3    -12.66      0.00
   -1    5    3     21.81      0.00
    2    5    3     -9.88      0.00
    5    5    3     12.97      0.00
   -9    6    3    -31.68      0.00
   -6    6    3     -9.16      0.00
   -3    6    3    -69.76      0.00
    0    6    3      1.73      0.00
    3    6    3     -1.49      0.00
    6    6    3    -12.87      0.00
  -11    7    3      2.57      0.00
   -8    7    3     -6.57      0.00
   -5    7    3    -22.26      0.00
   -2    7    3    -22.19      0.00
    1    7    3    -47.09      0.00
    4    7    3     -0.08      0.00
    7    7    3     17.23      0.00
  -13    8    3     28.71      0.00
  -10    8    3     20.77      0.00
   -7    8    3     34.06      0.00
   -4    8    3     14.83      0.00
   -1    8    3     -5.45      0.00
    2    8    3      2.21      0.00
    5    8    3     -9.84      0.00
    8    8    3      3.37      0.00
  -15    9    3     20.59      0.00
  -12    9    3    -10.89      0.00
   -9    9    3     47.40      0.00
   -6    9    3     24.42      0.00
   -3    9    3     30.56      0.00
    0    9    3     33.35      0.00
    3    9    3      9.53      0.00
    6    9    3    -13.96      0.00
    9    9    3      5.88      0.00
  -17   10    3    -12.45      0.00
  -14   10    3      5.66      0.00
  -11   10    3     -9.77      0.00
   -8   10    3    -16.51      0.00
   -5   10    3     40.45      0.00
   -2   10    3     -6.00      0.00
    1   10    3     11.75      0.00
    4   10    3     14.33      0.00
    7   10    3     -8.08      0.00
   10   10    3    -20.21      0.00
  -19   11    3     -0.82      0.00
  -16   11    3     -9.65      0.00
  -13   11    3    -29.61      0.00
  -10   11    3      7.01      0.00
   -7   11    3    -32.98      0.00
   -4   11    3    -20.70      0.00
   -1   11    3     14.94      0.00
    2   11    3    -12.26      0.00
    5   11    3    -17.00      0.00
    8   11    3     16.19      0.00
   11   11    3    -24.19      0.00
  -21   12    3     -6.55      0.00
  -18   12    3     -0.85      0.00
  -15   12    3      9.88      0.00
  -12   12    3      3.69      0.00
   -9   12    3    -27.60      0.00
   -6   12    3     12.54      0.00
   -3   12    3    -21.20      0.00
    0   12    3     -5.33      0.00
    3   12    3     -1.22      0.00
    6   12    3      3.79      0.00
    9   12    3      6.43      0.00
   12   12    3     -1.56      0.00
  -23   13    3      9.46      0.00
  -20   13    3      5.41      0.00
  -17   13    3     -4.38      0.00
  -14   13    3     11.20      0.00
  -11   13    3     16.30      0.00
   -8   13    3     12.26      0.00
   -5   13    3     11.76      0.00
   -2   13    3     -1.71      0.00
    1   13    3     -1.35      0.00
    4   13    3      8.61      0.00
    7   13    3      9.66      0.00
   10   13    3      3.47      0.00
   13   13    3     16.03      0.00
  -25   14    3      1.76      0.00
  -22   14    3      8.41      0.00
  -19   14    3     -2.76      0.00
  -16   14    3    -10.83      0.00
  -13   14    3      8.92      0.00
  -10   14    3     12.77      0.00
   -7   14    3      3.71      0.00
   -4   14    3      8.76      0.00
   -1   14    3     13.35      0.00
    2   14    3    -21.67      0.00
    5   14    3      5.36      0.00
    8   14    3     21.40      0.00
   11   14    3     -8.44      0.00
   14   14    3     10.83      0.00
  -27   15    3    -11.40      0.00
  -24   15    3      1.72      0.00
  -21   15    3    -14.95      0.00
  -18   15    3    -14.49      0.00
  -15   15    3     10.59      0.00
  -12   15    3    -21.01      0.00
   -9   15    3     -0.64      0.00
   -6   15    3      7.30      0.00
   -3   15    3    -31.12      0.00
    0   15    3     -0.77      0.00
    3   15    3     -1.64      0.00
    6   15    3    -21.59      0.00
    9   15    3     14.99      0.00
   12   15    3      1.25      0.00
   15   15    3     -9.19      0.00
  -29   16    3     -3.05      0.00
  -26   16    3     -7.36      0.00
  -23   16    3     -3.25      0.00
  -20   16    3     -2.62      0.00
  -17   16    3    -10.19      0.00
  -14   16    3    -10.88      0.00
  -11   16    3     11.13      0.00
   -8   16    3    -23.77      0.00
   -5   16    3     -3.75      0.00
   -2   16    3     -4.51      0.00
    1   16    3    -19.98      0.00
    4   16    3      0.79      0.00
    7   16    3     -9.69      0.00
   10   16    3    -12.63      0.00
   13   16    3      9.83      0.00
   16   16    3     -3.34      0.00
  -31   17    3      9.26      0.00
  -28   17    3      3.90      0.00
  -25   17    3      7.95      0.00
  -22   17    3      6.11      0.00
  -19   17    3     -0.13      0.00
  -16   17    3     10.59      0.00
  -13   17    3     -3.16      0.00
  -10   17    3     -3.15      0.00
   -7   17    3      8.68      0.00
   -4   17    3      1.98      0.00
   -1   17    3     12.51      0.00
    2   17    3     -2.38      0.00
    5   17    3     -8.80      0.00
    8   17    3      9.76      0.00
   11   17    3    -13.26      0.00
   14   17    3     -1.92      0.00
   17   17    3      7.18      0.00
  -33   18    3      7.44      0.00
  -30   18    3      5.07      0.00
  -27   18    3     10.29      0.00
  -24   18    3     10.68      0.00
  -21   18    3      2.82      0.00
  -18   18    3      8.78      0.00
  -15   18    3     -5.68      0.00
  -12   18    3      7.54      0.00
   -9   18    3      9.76      0.00
   -6   18    3     13.53      0.00
   -3   18    3      3.84      0.00
    0   18    3     24.36      0.00
    3   18    3     12.84      0.00
    6   18    3    -12.94      0.00
    9   18    3      9.33      0.00
   12   18    3      3.69      0.00
   15   18    3     -2.63      0.00
   18   18    3      2.99      0.00
  -35   19    3     -8.26      0.00
  -32   19    3     -6.51      0.00
  -29   19    3     -0.79      0.00
  -26   19    3     -3.07      0.00
  -23   19    3      6.96      0.00
  -20   19    3     -4.71      0.00
  -17   19    3    -16.46      0.00
  -14   19    3      3.40      0.00
  -11   19    3     -6.05      0.00
   -8   19    3     -5.52      0.00
   -5   19    3     19.39      0.00
   -2   19    3      1.32      0.00
    1   19    3      5.34      0.00
    4   19    3     19.31      0.00
    7   19    3     -3.68      0.00
   10   19    3     -5.98      0.00
   13   19    3     11.81      0.00
   16   19    3      0.94      0.00
   19   19    3     -2.07      0.00
  -37   20    3     -5.47      0.00
  -34   20    3     -5.51      0.00
  -31   20    3     -9.57      0.00
  -28   20    3     -8.03      0.00
  -25   20    3     -2.40      0.00
  -22   20    3     -8.91      0.00
  -19   20    3     -6.70      0.00
  -16   20    3    -12.52      0.00
  -13   20    3    -16.94      0.00
  -10   20    3     -1.69      0.00
   -7   20    3    -14.63      0.00
   -4   20    3     -7.82      0.00
   -1   20    3      9.39      0.00
    2   20    3     -7.36      0.00
    5   20    3      1.54      0.00
    8   20    3     11.66      0.00
   11   20    3     -9.73      0.00
   14   20    3     -2.28      0.00
   17   20    3      7.44      0.00
   20   20    3     -4.40      0.00
  -39   21    3      1.81      0.00
  -36   21    3      1.65      0.00
  -33   21    3      0.35      0.00
  -30   21    3      3.42      0.00
  -27   21    3      2.02      0.00
  -24   21    3      3.90      0.00
  -21   21    3     -0.49      0.00
  -18   21    3     -5.63      0.00
  -15   21    3     -3.75      0.00
  -12   21    3     -5.43      0.00
   -9   21    3     -7.79      0.00
   -6   21    3     -2.65      0.00
   -3   21    3    -22.28      0.00
    0   21    3      1.36      0.00
    3   21    3      6.08      0.00
    6   21    3    -14.42      0.00
    9   21    3      1.24      0.00
   12   21    3      4.38      0.00
   15   21    3     -5.50      0.00
   18   21    3     -0.09      0.00
   21   21    3      0.43      0.00
  -41   22    3      0.91      0.00
  -38   22    3      4.46      0.00
  -35   22    3      4.34      0.00
  -32   22    3      8.83      0.00
  -29   22    3      8.22      0.00
  -26   22    3     10.07      0.00
  -23   22    3     15.06      0.00
  -20   22    3      4.68      0.00
  -17   22    3      8.64      0.00
  -14   22    3     10.73      0.00
  -11   22    3      2.58      0.00
   -8   22    3     -4.82      0.00
   -5   22    3     11.10      0.00
   -2   22    3     -7.96      0.00
    1   22    3    -14.19      0.00
    4   22    3      9.03      0.00
    7   22    3     -3.93      0.00
   10   22    3     -5.64      0.00
   13   22    3      3.27      0.00
   16   22    3      2.12      0.00
   19   22    3     -3.78      0.00
   22   22    3      0.70      0.00
  -43   23    3     -2.63      0.00
  -40   23    3     -1.00      0.00
  -37   23    3      0.62      0.00
  -34   23    3      0.66      0.00
  -31   23    3     -2.43      0.00
  -28   23    3      3.70      0.00
  -25   23    3      4.65      0.00
  -22   23    3      4.52      0.00
  -19   23    3     16.49      0.00
  -16   23    3      3.71      0.00
  -13   23    3      9.18      0.00
  -10   23    3     15.96      0.00
   -7   23    3      0.02      0.00
   -4   23    3      6.09      0.00
   -1   23    3     10.96      0.00
    2   23    3     -9.98      0.00
    5   23    3     -2.00      0.00
    8   23    3      5.52      0.00
   11   23    3     -1.67      0.00
   14   23    3      1.41      0.00
   17   23    3      2.75      0.00
   20   23    3     -0.67      0.00
   23   23    3     -2.91      0.00
  -45   24    3     -3.83      0.00
  -42   24    3     -3.14      0.00
  -39   24    3     -0.87      0.00
  -36   24    3     -6.49      0.00
  -33   24    3     -8.09      0.00
  -30   24    3    -11.13      0.00
  -27   24    3     -6.51      0.00
  -24   24    3     -1.97      0.00
  -21   24    3     -6.65      0.00
  -18   24    3      0.56      0.00
  -15   24    3      4.59      0.00
  -12   24    3     -5.43      0.00
   -9   24    3      8.96      0.00
   -6   24    3     10.17      0.00
   -3   24    3     -2.60      0.00
    0   24    3     10.67      0.00
    3   24    3      5.27      0.00
    6   24    3    -12.23      0.00
    9   24    3      4.40      0.00
   12   24    3      5.01      0.00
   15   24    3     -2.73      0.00
   18   24    3      1.71      0.00
   21   24    3      1.23      0.00
   24   24    3     -1.79      0.00
  -47   25    3     -1.29      0.00
  -44   25    3      0.07      0.00
  -41   25    3      0.94      0.00
  -38   25    3     -0.08      0.00
  -35   25    3     -0.52      0.00
  -32   25    3     -8.28      0.00
  -29   25    3     -7.23      0.00
  -26   25    3     -4.55      0.00
  -23   25    3     -3.71      0.00
  -20   25    3     -7.39      0.00
  -17   25    3     -8.94      0.00
  -14   25    3     -2.24      0.00
  -11   25    3     -4.77      0.00
   -8   25    3    -11.03      0.00
   -5   25    3     15.13      0.00
   -2   25    3      0.05      0.00
    1   25    3     -9.20      0.00
    4   25    3      9.59      0.00
    7   25    3     -1.76      0.00
   10   25    3     -4.48      0.00
   13   25    3      2.85      0.00
   16   25    3     -0.04      0.00
   19   25    3     -2.28      0.00
   22   25    3      1.89      0.00
   25   25    3      0.08      0.00
  -49   26    3     -0.84      0.00
  -46   26    3      0.32      0.00
  -43   26    3      0.87      0.00
  -40   26    3      5.32      0.00
  -37   26    3      4.48      0.00
  -34   26    3      3.49      0.00
  -31   26    3      1.36      0.00
  -28   26    3      7.52      0.00
  -25   26    3     -0.89      0.00
  -22   26    3      2.62      0.00
  -19   26    3      3.23      0.00
  -16   26    3     -7.62      0.00
  -13   26    3     -5.35      0.00
  -10   26    3      7.77      0.00
   -7   26    3    -14.31      0.00
   -4   26    3     -5.89      0.00
   -1   26    3     11.46      0.00
    2   26    3     -8.70      0.00
    5   26    3     -5.03      0.00
    8   26    3      5.76      0.00
   11   26    3     -1.67      0.00
   14   26    3     -2.87      0.00
   17   26    3      0.45      0.00
   20   26    3     -0.61      0.00
   23   26    3     -1.25      0.00
   26   26    3      2.22      0.00
  -51   27    3     -0.90      0.00
  -48   27    3      0.38      0.00
  -45   27    3      1.11      0.00
  -42   27    3      1.55      0.00
  -39   27    3      0.30      0.00
  -36   27    3      2.90      0.00
  -33   27    3      3.74      0.00
  -30   27    3      5.09      0.00
  -27   27    3      5.40      0.00
  -24   27    3     10.85      0.00
  -21   27    3     -1.21      0.00
  -18   27    3      5.00      0.00
  -15   27    3      9.35      0.00
  -12   27    3     -4.00      0.00
   -9   27    3      0.44      0.00
   -6   27    3      3.32      0.00
   -3   27    3    -12.11      0.00
    0   27    3     -0.17      0.00
    3   27    3      5.04      0.00
    6   27    3     -6.71      0.00
    9   27    3      2.29      0.00
   12   27    3      1.80      0.00
   15   27    3     -3.67      0.00
   18   27    3     -1.77      0.00
   21   27    3      0.45      0.00
   24   27    3      0.08      0.00
  -50   28    3     -0.97      0.00
  -47   28    3      0.78      0.00
  -44   28    3     -2.50      0.00
  -41   28    3      0.31      0.00
  -38   28    3     -1.18      0.00
  -35   28    3     -3.90      0.00
  -32   28    3     -3.26      0.00
  -29   28    3      0.25      0.00
  -26   28    3     -3.04      0.00
  -23   28    3      5.30      0.00
  -20   28    3     -0.68      0.00
  -17   28    3     -1.11      0.00
  -14   28    3      5.11      0.00
  -11   28    3      4.02      0.00
   -8   28    3     -6.82      0.00
   -5   28    3      4.10      0.00
   -2   28    3     -0.18      0.00
    1   28    3     -8.30      0.00
    4   28    3      5.10      0.00
    7   28    3      1.58      0.00
   10   28    3     -2.65      0.00
   13   28    3      2.23      0.00
   16   28    3     -1.11      0.00
   19   28    3     -1.07      0.00
   22   28    3     -0.04      0.00
  -52   29    3      0.99      0.00
  -49   29    3      2.64      0.00
  -46   29    3     -0.39      0.00
  -43   29    3      1.30      0.00
  -40   29    3      0.43      0.00
  -37   29    3     -3.07      0.00
  -34   29    3     -5.16      0.00
  -31   29    3     -2.23      0.00
  -28   29    3     -7.56      0.00
  -25   29    3     -3.75      0.00
  -22   29    3     -1.49      0.00
  -19   29    3     -2.79      0.00
  -16   29    3     -5.89      0.00
  -13   29    3     -5.20      0.00
  -10   29    3      5.55      0.00
   -7   29    3     -8.12      0.00
   -4   29    3     -4.50      0.00
   -1   29    3      6.88      0.00
    2   29    3     -3.09      0.00
    5   29    3     -2.48      0.00
    8   29    3      5.21      0.00
   11   29    3     -1.75      0.00
   14   29    3     -1.72      0.00
   17   29    3      2.80      0.00
   20   29    3      0.19      0.00
  -51   30    3      0.60      0.00
  -48   30    3      1.95      0.00
  -45   30    3      1.51      0.00
  -42   30    3      2.26      0.00
  -39   30    3      3.43      0.00
  -36   30    3      1.29      0.00
  -33   30    3      0.24      0.00
  -30   30    3     -3.18      0.00
  -27   30    3      0.96      0.00
  -24   30    3      3.42      0.00
  -21   30    3     -8.69      0.00
  -18   30    3      4.70      0.00
  -15   30    3     -1.61      0.00
  -12   30    3    -10.78      0.00
   -9   30    3     -0.13      0.00
   -6   30    3      3.04      0.00
   -3   30    3     -9.59      0.00
    0   30    3      0.43      0.00
    3   30    3      5.65      0.00
    6   30    3     -1.64      0.00
    9   30    3      0.63      0.00
   12   30    3      0.62      0.00
   15   30    3     -1.42      0.00
   18   30    3      0.42      0.00
   21   30    3      3.43      0.00
  -50   31    3      0.30      0.00
  -47   31    3     -1.41      0.00
  -44   31    3     -0.27      0.00
  -41   31    3      3.59      0.00
  -38   31    3      2.10      0.00
  -35   31    3      1.18      0.00
  -32   31    3      6.34      0.00
  -29   31    3     -0.49      0.00
  -26   31    3      0.65      0.00
  -23   31    3      9.72      0.00
  -20   31    3      4.59      0.00
  -17   31    3     -1.55      0.00
  -14   31    3      6.14      0.00
  -11   31    3      1.96      0.00
   -8   31    3     -6.64      0.00
   -5   31    3      3.82      0.00
   -2   31    3      2.87      0.00
    1   31    3     -5.54      0.00
    4   31    3      5.63      0.00
    7   31    3      2.24      0.00
   10   31    3     -2.35      0.00
   13   31    3      0.23      0.00
   16   31    3      0.28      0.00
   19   31    3      0.79      0.00
  -49   32    3     -2.02      0.00
  -46   32    3      1.09      0.00
  -43   32    3     -2.92      0.00
  -40   32    3     -1.95      0.00
  -37   32    3     -0.28      0.00
  -34   32    3      0.69      0.00
  -31   32    3     -2.05      0.00
  -28   32    3      2.92      0.00
  -25   32    3      3.06      0.00
  -22   32    3     -1.64      0.00
  -19   32    3      9.26      0.00
  -16   32    3      3.35      0.00
  -13   32    3      0.37      0.00
  -10   32    3      7.50      0.00
   -7   32    3     -0.04      0.00
   -4   32    3     -1.36      0.00
   -1   32    3      5.67      0.00
    2   32    3      0.32      0.00
    5   32    3     -1.24      0.00
    8   32    3      3.73      0.00
   11   32    3     -1.86      0.00
   14   32    3     -1.59      0.00
   17   32    3      0.60      0.00
  -51   33    3     -2.80      0.00
  -48   33    3      0.01      0.00
  -45   33    3     -3.16      0.00
  -42   33    3     -1.06      0.00
  -39   33    3     -2.54      0.00
  -36   33    3     -3.17      0.00
  -33   33    3     -1.95      0.00
  -30   33    3     -2.96      0.00
  -27   33    3      0.54      0.00
  -24   33    3     -0.88      0.00
  -21   33    3     -4.04      0.00
  -18   33    3     -3.18      0.00
  -15   33    3      3.53      0.00
  -12   33    3     -4.26      0.00
   -9   33    3      0.56      0.00
   -6   33    3      5.28      0.00
   -3   33    3     -0.98      0.00
    0   33    3     -1.52      0.00
    3   33    3      2.73      0.00
    6   33    3     -2.85      0.00
    9   33    3      0.94      0.00
   12   33    3     -0.18      0.00
   15   33    3     -2.08      0.00
   18   33    3      1.10      0.00
  -50   34    3     -1.85      0.00
  -47   34    3      0.13      0.00
  -44   34    3     -0.74      0.00
  -41   34    3     -0.39      0.00
  -38   34    3     -0.79      0.00
  -35   34    3     -0.11      0.00
  -32   34    3     -0.53      0.00
  -29   34    3     -1.32      0.00
  -26   34    3     -0.21      0.00
  -23   34    3      0.96      0.00
  -20   34    3     -8.23      0.00
  -17   34    3     -6.47      0.00
  -14   34    3     -3.55      0.00
  -11   34    3     -3.12      0.00
   -8   34    3     -4.77      0.00
   -5   34    3      2.21      0.00
   -2   34    3      0.34      0.00
    1   34    3     -4.26      0.00
    4   34    3      0.50      0.00
    7   34    3      1.77      0.00
   10   34    3     -1.63      0.00
   13   34    3     -1.83      0.00
   16   34    3      0.41      0.00
  -49   35    3      0.79      0.00
  -46   35    3     -0.64      0.00
  -43   35    3     -0.10      0.00
  -40   35    3      2.88      0.00
  -37   35    3      3.57      0.00
  -34   35    3     -0.77      0.00
  -31   35    3      1.04      0.00
  -28   35    3      5.16      0.00
  -25   35    3     -0.89      0.00
  -22   35    3     -1.41      0.00
  -19   35    3      0.82      0.00
  -16   35    3     -5.81      0.00
  -13   35    3     -5.09      0.00
  -10   35    3      0.41      0.00
   -7   35    3     -2.43      0.00
   -4   35    3     -2.98      0.00
   -1   35    3      2.13      0.00
    2   35    3     -3.73      0.00
    5   35    3      1.05      0.00
    8   35    3      2.72      0.00
   11   35    3     -1.25      0.00
   14   35    3     -1.38      0.00
  -48   36    3     -1.05      0.00
  -45   36    3     -0.37      0.00
  -42   36    3      1.55      0.00
  -39   36    3      0.18      0.00
  -36   36    3      1.87      0.00
  -33   36    3      2.25      0.00
  -30   36    3     -2.24      0.00
  -27   36    3      0.15      0.00
  -24   36    3      7.06      0.00
  -21   36    3     -2.40      0.00
  -18   36    3      1.42      0.00
  -15   36    3      0.96      0.00
  -12   36    3     -3.13      0.00
   -9   36    3      2.78      0.00
   -6   36    3      2.01      0.00
   -3   36    3     -1.51      0.00
    0   36    3     -2.70      0.00
    3   36    3      1.99      0.00
    6   36    3     -0.85      0.00
    9   36    3      1.62      0.00
   12   36    3     -0.73      0.00
  -50   37    3     -0.42      0.00
  -47   37    3      0.77      0.00
  -44   37    3     -2.82      0.00
  -41   37    3      0.25      0.00
  -38   37    3      1.60      0.00
  -35   37    3     -2.93      0.00
  -32   37    3     -2.24      0.00
  -29   37    3     -0.14      0.00
  -26   37    3     -1.81      0.00
  -23   37    3     -0.72      0.00
  -20   37    3      3.09      0.00
  -17   37    3     -3.77      0.00
  -14   37    3      3.45      0.00
  -11   37    3      3.13      0.00
   -8   37    3     -1.50      0.00
   -5   37    3      1.27      0.00
   -2   37    3      2.18      0.00
    1   37    3     -5.56      0.00
    4   37    3      4.54      0.00
    7   37    3     -0.62      0.00
   10   37    3     -0.02      0.00
   13   37    3     -0.94      0.00
  -49   38    3      1.04      0.00
  -46   38    3     -2.67      0.00
  -43   38    3      0.85      0.00
  -40   38    3     -0.85      0.00
  -37   38    3      2.64      0.00
  -34   38    3     -1.09      0.00
  -31   38    3     -2.45      0.00
  -28   38    3     -1.95      0.00
  -25   38    3     -1.24      0.00
  -22   38    3     -1.60      0.00
  -19   38    3     -4.06      0.00
  -16   38    3     -0.26      0.00
  -13   38    3      0.12      0.00
  -10   38    3      3.28      0.00
   -7   38    3     -2.06      0.00
   -4   38    3     -0.47      0.00
   -1   38    3      0.09      0.00
    2   38    3      0.53      0.00
    5   38    3     -0.03      0.00
    8   38    3      2.65      0.00
   11   38    3      0.09      0.00
  -48   39    3     -0.27      0.00
  -45   39    3     -0.04      0.00
  -42   39    3      0.59      0.00
  -39   39    3      4.88      0.00
  -36   39    3      2.09      0.00
  -33   39    3      0.90      0.00
  -30   39    3     -0.11      0.00
  -27   39    3      0.13      0.00
  -24   39    3      0.40      0.00
  -21   39    3     -3.30      0.00
  -18   39    3     -1.83      0.00
  -15   39    3      0.01      0.00
  -12   39    3     -1.32      0.00
   -9   39    3      1.33      0.00
   -6   39    3      0.34      0.00
   -3   39    3     -1.26      0.00
    0   39    3     -1.57      0.00
    3   39    3      3.99      0.00
    6   39    3      0.29      0.00
    9   39    3      2.80      0.00
  -47   40    3     -2.27      0.00
  -44   40    3      2.68      0.00
  -41   40    3      2.77      0.00
  -38   40    3      6.34      0.00
  -35   40    3      0.62      0.00
  -32   40    3      3.11      0.00
  -29   40    3      0.55      0.00
  -26   40    3     -1.60      0.00
  -23   40    3      3.05      0.00
  -20   40    3     -0.84      0.00
  -17   40    3      0.25      0.00
  -14   40    3      3.02      0.00
  -11   40    3     -0.11      0.00
   -8   40    3     -2.64      0.00
   -5   40    3      1.63      0.00
   -2   40    3      1.32      0.00
    1   40    3     -2.14      0.00
    4   40    3      1.94      0.00
    7   40    3      0.16      0.00
  -46   41    3      2.78      0.00
  -43   41    3      0.07      0.00
  -40   41    3      2.89      0.00
  -37   41    3      2.70      0.00
  -34   41    3      1.43      0.00
  -31   41    3     -2.12      0.00
  -28   41    3     -0.78      0.00
  -25   41    3      2.84      0.00
  -22   41    3     -1.19      0.00
  -19   41    3      4.01      0.00
  -16   41    3     -0.37      0.00
  -13   41    3     -0.05      0.00
  -10   41    3      3.85      0.00
   -7   41    3     -1.07      0.00
   -4   41    3      0.21      0.00
   -1   41    3      1.06      0.00
    2   41    3     -2.30      0.00
    5   41    3     -1.88      0.00
  -48   42    3     -1.20      0.00
  -45   42    3      1.05      0.00
  -42   42    3      1.99      0.00
  -39   42    3     -0.69      0.00
  -36   42    3     -3.01      0.00
  -33   42    3      1.15      0.00
  -30   42    3     -4.35      0.00
  -27   42    3     -1.36      0.00
  -24   42    3      0.03      0.00
  -21   42    3      2.83      0.00
  -18   42    3     -1.05      0.00
  -15   42    3      2.20      0.00
  -12   42    3     -0.22      0.00
   -9   42    3      0.03      0.00
   -6   42    3      1.25      0.00
   -3   42    3      1.23      0.00
    0   42    3     -1.91      0.00
    3   42    3     -0.02      0.00
    6   42    3     -2.75      0.00
  -47   43    3     -0.85      0.00
  -44   43    3      0.09      0.00
  -41   43    3     -1.37      0.00
  -38   43    3      0.54      0.00
  -35   43    3     -0.27      0.00
  -32   43    3     -5.16      0.00
  -29   43    3     -2.25      0.00
  -26   43    3     -0.77      0.00
  -23   43    3     -0.03      0.00
  -20   43    3      0.38      0.00
  -17   43    3     -0.61      0.00
  -14   43    3      3.56      0.00
  -11   43    3      0.21      0.00
   -8   43    3     -2.89      0.00
   -5   43    3      1.56      0.00
   -2   43    3      1.55      0.00
    1   43    3     -1.13      0.00
    4   43    3     -0.23      0.00
  -46   44    3     -1.20      0.00
  -43   44    3      0.41      0.00
  -40   44    3     -0.64      0.00
  -37   44    3      0.35      0.00
  -34   44    3      0.23      0.00
  -31   44    3     -4.66      0.00
  -28   44    3      1.23      0.00
  -25   44    3     -0.32      0.00
  -22   44    3      1.69      0.00
  -19   44    3     -1.39      0.00
  -16   44    3     -0.47      0.00
  -13   44    3      0.79      0.00
  -10   44    3      3.91      0.00
   -7   44    3     -0.80      0.00
   -4   44    3     -0.61      0.00
   -1   44    3      0.37      0.00
    2   44    3     -0.66      0.00
  -45   45    3      1.21      0.00
  -42   45    3     -0.33      0.00
  -39   45    3     -0.13      0.00
  -36   45    3      2.43      0.00
  -33   45    3     -0.23      0.00
  -30   45    3     -0.79      0.00
  -27   45    3     -1.05      0.00
  -24   45    3      2.70      0.00
  -21   45    3      0.36      0.00
  -18   45    3     -0.54      0.00
  -15   45    3      1.56      0.00
  -12   45    3     -1.00      0.00
   -9   45    3      1.55      0.00
   -6   45    3      1.54      0.00
   -3   45    3     -0.37      0.00
    0   45    3     -0.66      0.00
  -44   46    3     -1.03      0.00
  -41   46    3      1.40      0.00
  -38   46    3      1.70      0.00
  -35   46    3     -0.73      0.00
  -32   46    3      0.06      0.00
  -29   46    3      1.86      0.00
  -26   46    3      0.30      0.00
  -23   46    3     -0.52      0.00
  -20   46    3      2.20      0.00
  -17   46    3     -1.50      0.00
  -14   46    3     -0.41      0.00
  -11   46    3      2.54      0.00
   -8   46    3     -1.15      0.00
   -5   46    3     -0.43      0.00
  -40   47    3     -1.66      0.00
  -37   47    3     -1.39      0.00
  -34   47    3      1.12      0.00
  -31   47    3     -0.67      0.00
  -28   47    3     -0.45      0.00
  -25   47    3      1.27      0.00
  -22   47    3      1.64      0.00
  -19   47    3     -0.32      0.00
  -16   47    3     -2.31      0.00
  -13   47    3     -0.51      0.00
  -10   47    3      1.48      0.00
   -7   47    3     -2.55      0.00
  -42   48    3      1.57      0.00
  -39   48    3     -0.56      0.00
  -36   48    3     -2.19      0.00
  -33   48    3      0.12      0.00
  -30   48    3     -1.28      0.00
  -27   48    3     -1.24      0.00
  -24   48    3     -1.50      0.00
  -21   48    3      2.11      0.00
  -18   48    3     -0.96      0.00
  -15   48    3     -0.02      0.00
  -12   48    3     -2.25      0.00
  -38   49    3     -2.08      0.00
  -35   49    3     -1.28      0.00
  -32   49    3     -0.18      0.00
  -29   49    3     -0.67      0.00
  -26   49    3     -1.37      0.00
  -23   49    3     -0.82      0.00
  -20   49    3     -2.19      0.00
  -17   49    3     -3.18      0.00
  -14   49    3      1.47      0.00
  -37   50    3      0.49      0.00
  -34   50    3      1.04      0.00
  -31   50    3     -1.91      0.00
  -28   50    3     -0.41      0.00
  -25   50    3      0.65      0.00
  -22   50    3     -1.78      0.00
  -33   51    3      1.83      0.00
  -30   51    3      1.00      0.00
  -27   51    3     -0.54      0.00
  -24   51    3     -0.16      0.00
  -21   51    3     -0.84      0.00
  -18   51    3     -2.21      0.00
  -29   52    3      1.11      0.00
  -26   52    3      2.88      0.00
  -23   52    3     -0.58      0.00
   -1    1    4     27.76      0.00
   -3    2    4      7.03      0.00
    0    2    4     -7.92      0.00
   -5    3    4    -39.44      0.00
   -2    3    4    -58.06      0.00
    1    3    4      4.10      0.00
   -7    4    4    -30.23      0.00
   -4    4    4     19.84      0.00
   -1    4    4      5.75      0.00
    2    4    4    -46.47      0.00
   -9    5    4     27.09      0.00
   -6    5    4     18.58      0.00
   -3    5    4     28.06      0.00
    0    5    4     40.74      0.00
    3    5    4      2.39      0.00
  -11    6    4     11.41      0.00
   -8    6    4     36.94      0.00
   -5    6    4     -1.21      0.00
   -2    6    4     37.46      0.00
    1    6    4     27.08      0.00
    4    6    4     -1.71      0.00
  -13    7    4      1.10      0.00
  -10    7    4     -2.53      0.00
   -7    7    4    -12.21      0.00
   -4    7    4     21.06      0.00
   -1    7    4    -25.39      0.00
    2    7    4     -0.22      0.00
    5    7    4      9.21      0.00
  -15    8    4    -29.97      0.00
  -12    8    4      4.79      0.00
   -9    8    4     15.62      0.00
   -6    8    4    -39.83      0.00
   -3    8    4     -8.90      0.00
    0    8    4     18.66      0.00
    3    8    4    -38.12      0.00
    6    8    4     -1.63      0.00
  -17    9    4      1.12      0.00
  -14    9    4      9.65      0.00
  -11    9    4     13.81      0.00
   -8    9    4      1.47      0.00
   -5    9    4      3.01      0.00
   -2    9    4     -5.25      0.00
    1    9    4     10.22      0.00
    4    9    4     21.31      0.00
    7    9    4     -9.78      0.00
  -19   10    4     -3.85      0.00
  -16   10    4     13.55      0.00
  -13   10    4     27.52      0.00
  -10   10    4     -5.05      0.00
   -7   10    4     14.78      0.00
   -4   10    4      2.62      0.00
   -1   10    4      9.32      0.00
    2   10    4     16.16      0.00
    5   10    4     34.55      0.00
    8   10    4      7.81      0.00
  -21   11    4      0.11      0.00
  -18   11    4     -5.04      0.00
  -15   11    4     -4.89      0.00
  -12   11    4     16.99      0.00
   -9   11    4      0.58      0.00
   -6   11    4    -36.38      0.00
   -3   11    4     22.63      0.00
    0   11    4     -5.21      0.00
    3   11    4     -2.19      0.00
    6   11    4     27.58      0.00
    9   11    4     18.97      0.00
  -23   12    4     -4.13      0.00
  -20   12    4    -28.31      0.00
  -17   12    4     10.26      0.00
  -14   12    4     -1.04      0.00
  -11   12    4    -25.17      0.00
   -8   12    4     19.15      0.00
   -5   12    4    -17.38      0.00
   -2   12    4    -36.44      0.00
    1   12    4     11.26      0.00
    4   12    4     -1.82      0.00
    7   12    4    -21.65      0.00
   10   12    4     12.61      0.00
  -25   13    4     12.94      0.00
  -22   13    4      2.46      0.00
  -19   13    4      2.92      0.00
  -16   13    4     -2.39      0.00
  -13   13    4      9.49      0.00
  -10   13    4      6.53      0.00
   -7   13    4     -9.20      0.00
   -4   13    4     23.27      0.00
   -1   13    4     -8.27      0.00
    2   13    4    -25.16      0.00
    5   13    4      4.49      0.00
    8   13    4     -9.80      0.00
   11   13    4    -22.89      0.00
  -27   14    4     10.33      0.00
  -24   14    4     10.52      0.00
  -21   14    4     10.43      0.00
  -18   14    4     10.49      0.00
  -15   14    4     -0.15      0.00
  -12   14    4     18.81      0.00
   -9   14    4     13.18      0.00
   -6   14    4      9.15      0.00
   -3   14    4     19.33      0.00
    0   14    4     20.75      0.00
    3   14    4    -10.08      0.00
    6   14    4    -10.34      0.00
    9   14    4      0.47      0.00
   12   14    4     -7.92      0.00
  -29   15    4     -7.32      0.00
  -26   15    4      6.28      0.00
  -23   15    4    -14.04      0.00
  -20   15    4     -5.76      0.00
  -17   15    4      9.32      0.00
  -14   15    4     -8.95      0.00
  -11   15    4     -0.78      0.00
   -8   15    4     22.98      0.00
   -5   15    4     -9.24      0.00
   -2   15    4      8.41      0.00
    1   15    4     27.27      0.00
    4   15    4      2.96      0.00
    7   15    4    -11.76      0.00
   10   15    4      1.18      0.00
   13   15    4      8.29      0.00
  -31   16    4     -6.33      0.00
  -28   16    4    -13.15      0.00
  -25   16    4    -17.35      0.00
  -22   16    4     -3.35      0.00
  -19   16    4    -22.78      0.00
  -16   16    4    -21.18      0.00
  -13   16    4     15.08      0.00
  -10   16    4    -34.13      0.00
   -7   16    4    -19.02      0.00
   -4   16    4     15.09      0.00
   -1   16    4    -13.57      0.00
    2   16    4     -9.33      0.00
    5   16    4     27.12      0.00
    8   16    4     -4.86      0.00
   11   16    4    -11.62      0.00
   14   16    4     10.13      0.00
  -33   17    4      1.81      0.00
  -30   17    4     -0.99      0.00
  -27   17    4      2.41      0.00
  -24   17    4     -3.44      0.00
  -21   17    4    -10.59      0.00
  -18   17    4     -1.66      0.00
  -15   17    4    -16.24      0.00
  -12   17    4    -15.27      0.00
   -9   17    4      4.62      0.00
   -6   17    4    -34.70      0.00
   -3   17    4    -16.69      0.00
    0   17    4     14.14      0.00
    3   17    4    -17.69      0.00
    6   17    4     -1.37      0.00
    9   17    4     17.35      0.00
   12   17    4     -9.21      0.00
   15   17    4     -3.39      0.00
  -35   18    4      2.67      0.00
  -32   18    4      6.32      0.00
  -29   18    4     14.91      0.00
  -26   18    4     13.48      0.00
  -23   18    4      9.52      0.00
  -20   18    4      4.72      0.00
  -17   18    4     -0.43      0.00
  -14   18    4      5.09      0.00
  -11   18    4     -5.34      0.00
   -8   18    4     -0.48      0.00
   -5   18    4     -0.28      0.00
   -2   18    4    -15.04      0.00
    1   18    4     -3.33      0.00
    4   18    4     13.16      0.00
    7   18    4     -8.24      0.00
   10   18    4      1.59      0.00
   13   18    4      6.53      0.00
   16   18    4     -7.36      0.00
  -37   19    4      0.42      0.00
  -34   19    4      1.41      0.00
  -31   19    4      6.06      0.00
  -28   19    4     -0.76      0.00
  -25   19    4     15.63      0.00
  -22   19    4      9.45      0.00
  -19   19    4     -7.64      0.00
  -16   19    4     13.56      0.00
  -13   19    4      8.50      0.00
  -10   19    4    -13.07      0.00
   -7   19    4      8.57      0.00
   -4   19    4     12.07      0.00
   -1   19    4     -3.98      0.00
    2   19    4     -6.34      0.00
    5   19    4     16.34      0.00
    8   19    4      5.85      0.00
   11   19    4    -11.73      0.00
   14   19    4      4.74      0.00
   17   19    4     -0.03      0.00
  -39   20    4     -0.82      0.00
  -36   20    4     -2.56      0.00
  -33   20    4     -7.03      0.00
  -30   20    4     -3.01      0.00
  -27   20    4     -1.92      0.00
  -24   20    4    -15.90      0.00
  -21   20    4     -2.38      0.00
  -18   20    4      3.38      0.00
  -15   20    4    -22.58      0.00
  -12   20    4      8.35      0.00
   -9   20    4      1.95      0.00
   -6   20    4    -20.97      0.00
   -3   20    4      8.75      0.00
    0   20    4     19.88      0.00
    3   20    4    -11.36      0.00
    6   20    4     -1.85      0.00
    9   20    4     11.19      0.00
   12   20    4     -5.53      0.00
   15   20    4     -4.63      0.00
   18   20    4      5.49      0.00
  -41   21    4     -0.93      0.00
  -38   21    4      2.94      0.00
  -35   21    4     -1.38      0.00
  -32   21    4     -0.56      0.00
  -29   21    4     -6.87      0.00
  -26   21    4     -5.00      0.00
  -23   21    4     -3.45      0.00
  -20   21    4    -24.30      0.00
  -17   21    4     -4.03      0.00
  -14   21    4      4.21      0.00
  -11   21    4    -32.24      0.00
   -8   21    4      3.23      0.00
   -5   21    4      7.56      0.00
   -2   21    4    -17.87      0.00
    1   21    4      6.73      0.00
    4   21    4     11.34      0.00
    7   21    4    -15.92      0.00
   10   21    4     -1.97      0.00
   13   21    4      3.40      0.00
   16   21    4     -1.77      0.00
   19   21    4     -0.51      0.00
  -43   22    4      2.48      0.00
  -40   22    4      4.95      0.00
  -37   22    4      5.79      0.00
  -34   22    4      5.33      0.00
  -31   22    4      3.44      0.00
  -28   22    4      7.16      0.00
  -25   22    4      4.83      0.00
  -22   22    4     -2.10      0.00
  -19   22    4      2.92      0.00
  -16   22    4     -9.17      0.00
  -13   22    4      5.47      0.00
  -10   22    4     -3.46      0.00
   -7   22    4     -8.95      0.00
   -4   22    4      8.61      0.00
   -1   22    4      6.45      0.00
    2   22    4    -13.36      0.00
    5   22    4      3.87      0.00
    8   22    4      1.12      0.00
   11   22    4    -10.31      0.00
   14   22    4      2.86      0.00
   17   22    4      3.12      0.00
   20   22    4     -2.83      0.00
  -45   23    4      1.00      0.00
  -42   23    4      3.17      0.00
  -39   23    4      4.74      0.00
  -36   23    4      0.66      0.00
  -33   23    4     -0.60      0.00
  -30   23    4     16.27      0.00
  -27   23    4      5.72      0.00
  -24   23    4      6.67      0.00
  -21   23    4     14.82      0.00
  -18   23    4      1.42      0.00
  -15   23    4      5.77      0.00
  -12   23    4     10.84      0.00
   -9   23    4      6.96      0.00
   -6   23    4     -0.67      0.00
   -3   23    4      6.80      0.00
    0   23    4     11.48      0.00
    3   23    4     -2.63      0.00
    6   23    4     -9.64      0.00
    9   23    4      5.67      0.00
   12   23    4     -2.11      0.00
   15   23    4     -0.54      0.00
   18   23    4      2.08      0.00
   21   23    4     -0.35      0.00
  -47   24    4      1.86      0.00
  -44   24    4     -0.45      0.00
  -41   24    4     -0.60      0.00
  -38   24    4     -2.85      0.00
  -35   24    4     -3.93      0.00
  -32   24    4     -4.30      0.00
  -29   24    4     -1.79      0.00
  -26   24    4     14.33      0.00
  -23   24    4      1.27      0.00
  -20   24    4     -5.52      0.00
  -17   24    4     15.47      0.00
  -14   24    4      3.70      0.00
  -11   24    4    -10.62      0.00
   -8   24    4     20.67      0.00
   -5   24    4      7.53      0.00
   -2   24    4     -9.31      0.00
    1   24    4      9.04      0.00
    4   24    4      8.23      0.00
    7   24    4     -8.03      0.00
   10   24    4     -2.34      0.00
   13   24    4      4.67      0.00
   16   24    4     -2.76      0.00
   19   24    4      0.11      0.00
   22   24    4      2.53      0.00
  -49   25    4      0.91      0.00
  -46   25    4      0.06      0.00
  -43   25    4      1.32      0.00
  -40   25    4     -1.31      0.00
  -37   25    4     -2.99      0.00
  -34   25    4    -10.21      0.00
  -31   25    4      3.20      0.00
  -28   25    4     -2.98      0.00
  -25   25    4    -11.11      0.00
  -22   25    4      9.72      0.00
  -19   25    4     -5.35      0.00
  -16   25    4    -17.53      0.00
  -13   25    4     10.54      0.00
  -10   25    4     -4.80      0.00
   -7   25    4    -16.29      0.00
   -4   25    4     15.90      0.00
   -1   25    4     -0.92      0.00
    2   25    4    -11.23      0.00
    5   25    4      4.90      0.00
    8   25    4      2.12      0.00
   11   25    4     -4.22      0.00
   17   25    4      1.60      0.00
   20   25    4     -2.38      0.00
   23   25    4     -0.18      0.00
  -48   26    4      2.85      0.00
  -45   26    4      1.55      0.00
  -42   26    4      0.84      0.00
  -39   26    4      3.58      0.00
  -36   26    4      0.09      0.00
  -33   26    4      3.18      0.00
  -30   26    4     -0.51      0.00
  -27   26    4      2.56      0.00
  -24   26    4      0.65      0.00
  -21   26    4    -11.89      0.00
  -18   26    4      4.91      0.00
  -15   26    4     -3.48      0.00
  -12   26    4    -18.25      0.00
   -9   26    4      7.64      0.00
   -6   26    4     -7.30      0.00
   -3   26    4    -12.98      0.00
    0   26    4      5.10      0.00
    3   26    4     -3.50      0.00
    6   26    4     -8.14      0.00
    9   26    4      5.32      0.00
   12   26    4     -0.06      0.00
   15   26    4     -1.82      0.00
   18   26    4      0.53      0.00
   21   26    4      0.39      0.00
   24   26    4     -2.10      0.00
  -50   27    4     -0.21      0.00
  -47   27    4      0.31      0.00
  -44   27    4      3.10      0.00
  -41   27    4      2.19      0.00
  -38   27    4      4.21      0.00
  -35   27    4      4.53      0.00
  -32   27    4      1.00      0.00
  -29   27    4      6.52      0.00
  -26   27    4      2.85      0.00
  -23   27    4      0.55      0.00
  -20   27    4      6.15      0.00
  -17   27    4      2.49      0.00
  -14   27    4      0.95      0.00
  -11   27    4      0.86      0.00
   -8   27    4     -2.45      0.00
   -5   27    4      4.27      0.00
   -2   27    4     -9.83      0.00
    1   27    4     -5.31      0.00
    4   27    4      3.68      0.00
    7   27    4     -1.32      0.00
   10   27    4     -0.72      0.00
   13   27    4      2.96      0.00
   16   27    4     -1.38      0.00
   19   27    4     -0.46      0.00
   22   27    4     -1.86      0.00
  -49   28    4     -4.54      0.00
  -46   28    4      0.81      0.00
  -43   28    4      0.11      0.00
  -40   28    4      2.42      0.00
  -37   28    4     -4.09      0.00
  -34   28    4     -0.67      0.00
  -31   28    4      3.35      0.00
  -28   28    4     -7.38      0.00
  -25   28    4      3.95      0.00
  -22   28    4      7.06      0.00
  -19   28    4      3.67      0.00
  -16   28    4      6.41      0.00
  -13   28    4     11.48      0.00
  -10   28    4      1.32      0.00
   -7   28    4     -2.02      0.00
   -4   28    4      8.95      0.00
   -1   28    4     -1.58      0.00
    2   28    4     -5.92      0.00
    5   28    4      1.95      0.00
    8   28    4      4.92      0.00
   11   28    4     -1.74      0.00
   14   28    4      2.98      0.00
   17   28    4     -1.38      0.00
   20   28    4     -0.18      0.00
  -48   29    4     -1.11      0.00
  -45   29    4      0.39      0.00
  -42   29    4      0.05      0.00
  -39   29    4     -4.31      0.00
  -36   29    4     -1.49      0.00
  -33   29    4    -11.37      0.00
  -30   29    4     -5.77      0.00
  -27   29    4      5.30      0.00
  -24   29    4    -11.06      0.00
  -21   29    4     -0.43      0.00
  -18   29    4     12.92      0.00
  -15   29    4     -5.43      0.00
  -12   29    4      2.31      0.00
   -9   29    4     12.40      0.00
   -6   29    4     -5.88      0.00
   -3   29    4     -2.31      0.00
    0   29    4      6.54      0.00
    3   29    4     -3.19      0.00
    6   29    4     -0.43      0.00
    9   29    4      3.40      0.00
   12   29    4      1.33      0.00
   15   29    4     -4.11      0.00
   18   29    4      1.29      0.00
   21   29    4      0.14      0.00
  -50   30    4     -5.96      0.00
  -47   30    4      0.59      0.00
  -44   30    4      1.03      0.00
  -41   30    4      1.52      0.00
  -38   30    4     -2.53      0.00
  -35   30    4     -5.83      0.00
  -32   30    4      0.85      0.00
  -29   30    4     -6.94      0.00
  -26   30    4     -5.21      0.00
  -23   30    4      5.16      0.00
  -20   30    4     -5.59      0.00
  -17   30    4     -8.41      0.00
  -14   30    4      8.83      0.00
  -11   30    4     -9.15      0.00
   -8   30    4     -4.08      0.00
   -5   30    4      7.10      0.00
   -2   30    4     -7.56      0.00
    1   30    4     -2.74      0.00
    4   30    4      3.18      0.00
    7   30    4     -2.59      0.00
   10   30    4     -0.03      0.00
   13   30    4      1.01      0.00
   16   30    4     -4.71      0.00
   19   30    4     -1.05      0.00
  -49   31    4      0.40      0.00
  -46   31    4     -3.04      0.00
  -43   31    4      0.49      0.00
  -40   31    4      1.65      0.00
  -37   31    4      3.23      0.00
  -34   31    4      1.37      0.00
  -31   31    4     -3.39      0.00
  -28   31    4      4.10      0.00
  -25   31    4     -0.42      0.00
  -22   31    4     -2.51      0.00
  -19   31    4      2.81      0.00
  -16   31    4     -2.46      0.00
  -13   31    4     -5.85      0.00
  -10   31    4      1.91      0.00
   -7   31    4     -8.82      0.00
   -4   31    4      0.17      0.00
   -1   31    4      1.89      0.00
    2   31    4     -5.33      0.00
    5   31    4     -1.03      0.00
    8   31    4      2.61      0.00
   11   31    4     -2.56      0.00
   14   31    4     -1.91      0.00
   17   31    4     -0.24      0.00
  -48   32    4     -1.48      0.00
  -45   32    4     -1.07      0.00
  -42   32    4      0.04      0.00
  -39   32    4      4.11      0.00
  -36   32    4      0.85      0.00
  -33   32    4     -0.33      0.00
  -30   32    4      5.76      0.00
  -27   32    4     -4.18      0.00
  -24   32    4      2.17      0.00
  -21   32    4      5.24      0.00
  -18   32    4     -1.22      0.00
  -15   32    4      0.82      0.00
  -12   32    4      0.87      0.00
   -9   32    4      0.64      0.00
   -6   32    4     -1.51      0.00
   -3   32    4     -2.17      0.00
    0   32    4      2.36      0.00
    3   32    4     -0.53      0.00
    6   32    4     -2.85      0.00
    9   32    4      2.72      0.00
   12   32    4      0.77      0.00
   15   32    4      0.47      0.00
  -50   33    4      1.62      0.00
  -47   33    4     -1.78      0.00
  -44   33    4     -0.06      0.00
  -41   33    4      3.14      0.00
  -38   33    4     -1.46      0.00
  -35   33    4      2.18      0.00
  -32   33    4     -2.20      0.00
  -29   33    4     -5.59      0.00
  -26   33    4      3.87      0.00
  -23   33    4     -0.66      0.00
  -20   33    4     -3.60      0.00
  -17   33    4      6.52      0.00
  -14   33    4      0.50      0.00
  -11   33    4     -2.96      0.00
   -8   33    4      3.33      0.00
   -5   33    4      1.88      0.00
   -2   33    4     -2.63      0.00
    1   33    4      2.43      0.00
    4   33    4      0.09      0.00
    7   33    4     -0.64      0.00
   10   33    4     -1.31      0.00
   13   33    4      4.20      0.00
   16   33    4      2.15      0.00
  -49   34    4      0.39      0.00
  -46   34    4      2.31      0.00
  -43   34    4      1.55      0.00
  -40   34    4      3.19      0.00
  -37   34    4      0.90      0.00
  -34   34    4     -7.04      0.00
  -31   34    4      1.24      0.00
  -28   34    4     -2.21      0.00
  -25   34    4     -6.50      0.00
  -22   34    4      1.48      0.00
  -19   34    4      0.61      0.00
  -16   34    4     -7.52      0.00
  -13   34    4      5.04      0.00
  -10   34    4      0.27      0.00
   -7   34    4     -6.63      0.00
   -4   34    4      2.53      0.00
   -1   34    4      0.94      0.00
    2   34    4     -1.44      0.00
    5   34    4      0.54      0.00
    8   34    4     -0.48      0.00
   11   34    4     -1.97      0.00
   14   34    4      1.37      0.00
  -48   35    4      0.95      0.00
  -45   35    4      2.33      0.00
  -42   35    4      5.00      0.00
  -39   35    4      0.21      0.00
  -36   35    4      0.47      0.00
  -33   35    4      0.20      0.00
  -30   35    4     -3.04      0.00
  -27   35    4     -0.29      0.00
  -24   35    4      1.64      0.00
  -21   35    4     -4.08      0.00
  -18   35    4     -1.18      0.00
  -15   35    4      0.37      0.00
  -12   35    4     -5.27      0.00
   -9   35    4      2.18      0.00
   -6   35    4     -1.64      0.00
   -3   35    4     -3.59      0.00
    0   35    4      4.07      0.00
    3   35    4     -0.97      0.00
    6   35    4     -3.17      0.00
    9   35    4      0.02      0.00
   12   35    4      1.49      0.00
  -47   36    4     -1.42      0.00
  -44   36    4      1.15      0.00
  -41   36    4      2.44      0.00
  -38   36    4      3.56      0.00
  -35   36    4      0.24      0.00
  -32   36    4     -1.78      0.00
  -29   36    4      3.88      0.00
  -26   36    4      0.74      0.00
  -23   36    4      0.65      0.00
  -20   36    4      3.50      0.00
  -17   36    4     -0.73      0.00
  -14   36    4     -0.54      0.00
  -11   36    4     -1.16      0.00
   -8   36    4     -2.00      0.00
   -5   36    4      3.52      0.00
   -2   36    4     -1.56      0.00
    1   36    4      1.58      0.00
    4   36    4      0.66      0.00
    7   36    4     -1.06      0.00
   10   36    4     -0.53      0.00
   13   36    4      2.23      0.00
  -46   37    4     -1.62      0.00
  -43   37    4      0.71      0.00
  -40   37    4      2.44      0.00
  -37   37    4      0.49      0.00
  -34   37    4      0.26      0.00
  -31   37    4      3.30      0.00
  -28   37    4     -2.27      0.00
  -25   37    4      3.48      0.00
  -22   37    4      3.99      0.00
  -19   37    4     -0.81      0.00
  -16   37    4      2.08      0.00
  -13   37    4      1.75      0.00
  -10   37    4     -1.81      0.00
   -7   37    4      0.96      0.00
   -4   37    4      1.81      0.00
   -1   37    4      0.78      0.00
    2   37    4     -1.84      0.00
    5   37    4     -0.51      0.00
    8   37    4      1.28      0.00
   11   37    4      3.39      0.00
  -48   38    4     -3.12      0.00
  -45   38    4      0.33      0.00
  -42   38    4      0.32      0.00
  -39   38    4      0.31      0.00
  -36   38    4      1.16      0.00
  -33   38    4     -1.45      0.00
  -30   38    4      0.27      0.00
  -27   38    4      2.98      0.00
  -24   38    4     -3.38      0.00
  -21   38    4      0.12      0.00
  -18   38    4      3.90      0.00
  -15   38    4     -2.97      0.00
  -12   38    4     -0.55      0.00
   -9   38    4      3.04      0.00
   -6   38    4     -0.90      0.00
   -3   38    4     -2.47      0.00
    0   38    4      2.72      0.00
    3   38    4     -2.46      0.00
    6   38    4     -0.74      0.00
    9   38    4      0.19      0.00
  -47   39    4     -0.40      0.00
  -44   39    4     -0.07      0.00
  -41   39    4      3.73      0.00
  -38   39    4     -2.51      0.00
  -35   39    4     -1.46      0.00
  -32   39    4      0.51      0.00
  -29   39    4     -0.51      0.00
  -26   39    4     -2.98      0.00
  -23   39    4      0.85      0.00
  -20   39    4     -2.26      0.00
  -17   39    4     -1.30      0.00
  -14   39    4      1.95      0.00
  -11   39    4     -2.76      0.00
   -8   39    4     -0.95      0.00
   -5   39    4      0.36      0.00
   -2   39    4     -2.56      0.00
    1   39    4      0.38      0.00
    4   39    4      2.20      0.00
    7   39    4     -0.62      0.00
  -46   40    4     -0.17      0.00
  -43   40    4      1.30      0.00
  -40   40    4      0.61      0.00
  -37   40    4      0.32      0.00
  -34   40    4     -0.62      0.00
  -31   40    4     -1.23      0.00
  -28   40    4      1.60      0.00
  -25   40    4     -2.69      0.00
  -22   40    4     -0.91      0.00
  -19   40    4     -1.45      0.00
  -16   40    4      0.12      0.00
  -13   40    4     -1.25      0.00
  -10   40    4      1.88      0.00
   -7   40    4     -2.53      0.00
   -4   40    4     -0.61      0.00
   -1   40    4      1.37      0.00
    2   40    4     -0.90      0.00
    5   40    4      2.26      0.00
  -45   41    4     -2.18      0.00
  -42   41    4      2.31      0.00
  -39   41    4     -3.22      0.00
  -36   41    4      3.14      0.00
  -33   41    4     -0.04      0.00
  -30   41    4      3.15      0.00
  -27   41    4     -2.31      0.00
  -24   41    4      1.22      0.00
  -21   41    4     -0.27      0.00
  -18   41    4     -0.24      0.00
  -15   41    4     -2.07      0.00
  -12   41    4      1.03      0.00
   -9   41    4      0.58      0.00
   -6   41    4      0.65      0.00
   -3   41    4     -0.96      0.00
    0   41    4      2.21      0.00
    3   41    4      0.84      0.00
    6   41    4      1.89      0.00
  -44   42    4     -0.94      0.00
  -41   42    4     -1.23      0.00
  -38   42    4      1.03      0.00
  -35   42    4     -1.78      0.00
  -32   42    4      3.26      0.00
  -29   42    4      2.35      0.00
  -26   42    4     -0.62      0.00
  -23   42    4      1.76      0.00
  -20   42    4     -2.41      0.00
  -17   42    4      2.82      0.00
  -14   42    4     -1.31      0.00
  -11   42    4     -1.75      0.00
   -8   42    4      1.73      0.00
   -5   42    4      2.24      0.00
   -2   42    4     -1.07      0.00
    1   42    4     -0.12      0.00
    4   42    4      0.82      0.00
  -43   43    4     -0.42      0.00
  -40   43    4     -2.67      0.00
  -37   43    4      1.24      0.00
  -34   43    4     -2.32      0.00
  -31   43    4      3.55      0.00
  -28   43    4      1.77      0.00
  -25   43    4      0.31      0.00
  -22   43    4     -0.03      0.00
  -19   43    4      0.78      0.00
  -16   43    4     -0.55      0.00
  -13   43    4     -0.07      0.00
  -10   43    4      0.91      0.00
   -7   43    4      0.07      0.00
   -4   43    4     -1.06      0.00
   -1   43    4      1.24      0.00
    2   43    4     -1.81      0.00
  -42   44    4      0.69      0.00
  -39   44    4      0.68      0.00
  -36   44    4     -2.99      0.00
  -33   44    4      1.21      0.00
  -30   44    4      0.99      0.00
  -27   44    4      1.29      0.00
  -24   44    4      2.39      0.00
  -21   44    4      0.80      0.00
  -18   44    4      1.36      0.00
  -15   44    4      0.74      0.00
  -12   44    4     -3.14      0.00
   -9   44    4      1.84      0.00
   -6   44    4     -0.59      0.00
   -3   44    4     -1.43      0.00
    0   44    4      0.30      0.00
  -41   45    4      3.50      0.00
  -38   45    4      3.39      0.00
  -35   45    4     -3.95      0.00
  -32   45    4      2.93      0.00
  -29   45    4      3.46      0.00
  -26   45    4     -0.18      0.00
  -23   45    4      3.33      0.00
  -20   45    4      0.15      0.00
  -17   45    4      3.52      0.00
  -14   45    4     -1.77      0.00
  -11   45    4      0.03      0.00
   -8   45    4      0.19      0.00
   -5   45    4     -1.00      0.00
   -2   45    4      0.28      0.00
  -40   46    4      1.08      0.00
  -37   46    4      3.60      0.00
  -34   46    4      2.28      0.00
  -31   46    4      1.17      0.00
  -28   46    4      4.50      0.00
  -25   46    4      2.39      0.00
  -22   46    4      1.14      0.00
  -19   46    4     -0.61      0.00
  -16   46    4      1.73      0.00
  -13   46    4     -0.42      0.00
  -39   47    4      1.91      0.00
  -36   47    4     -1.01      0.00
  -33   47    4      4.08      0.00
  -30   47    4      3.91      0.00
  -27   47    4      1.73      0.00
  -24   47    4      3.50      0.00
  -21   47    4     -1.15      0.00
  -18   47    4      0.17      0.00
  -15   47    4     -0.49      0.00
  -12   47    4      0.34      0.00
   -9   47    4      2.59      0.00
  -38   48    4     -0.45      0.00
  -35   48    4     -0.72      0.00
  -32   48    4      2.72      0.00
  -29   48    4      5.34      0.00
  -26   48    4      2.21      0.00
  -23   48    4     -0.68      0.00
  -17   48    4     -0.69      0.00
  -14   48    4     -0.79      0.00
  -34   49    4     -0.34      0.00
  -31   49    4      0.86      0.00
  -28   49    4      5.52      0.00
  -25   49    4      1.25      0.00
  -22   49    4     -0.85      0.00
  -33   50    4      1.85      0.00
  -30   50    4      0.92      0.00
  -27   50    4      1.57      0.00
  -24   50    4      0.91      0.00
  -21   50    4     -0.96      0.00
  -18   50    4     -1.13      0.00
  -26   51    4     -1.27      0.00
    0    1    5    -55.64      0.00
   -2    2    5     -0.37      0.00
    1    2    5     34.32      0.00
   -4    3    5     -2.45      0.00
   -1    3    5    -11.32      0.00
    2    3    5     24.57      0.00
   -6    4    5      7.85      0.00
   -3    4    5    -13.32      0.00
    0    4    5    -44.01      0.00
    3    4    5     12.89      0.00
   -8    5    5     -0.94      0.00
   -5    5    5    -37.27      0.00
   -2    5    5      1.05      0.00
    1    5    5     18.44      0.00
    4    5    5    -50.76      0.00
  -10    6    5    -14.02      0.00
   -7    6    5     35.02      0.00
   -4    6    5     12.57      0.00
   -1    6    5    -23.69      0.00
    2    6    5     32.22      0.00
    5    6    5     15.91      0.00
  -12    7    5      4.54      0.00
   -9    7    5     -2.24      0.00
   -6    7    5      7.97      0.00
   -3    7    5      7.07      0.00
    0    7    5     11.60      0.00
    3    7    5     -2.22      0.00
    6    7    5     25.86      0.00
  -14    8    5    -18.30      0.00
  -11    8    5     -3.20      0.00
   -8    8    5    -19.29      0.00
   -5    8    5    -28.22      0.00
   -2    8    5      9.85      0.00
    1    8    5    -14.80      0.00
    4    8    5     -9.20      0.00
    7    8    5     10.43      0.00
  -16    9    5     23.89      0.00
  -13    9    5    -30.70      0.00
  -10    9    5    -24.80      0.00
   -7    9    5     20.29      0.00
   -4    9    5    -29.25      0.00
   -1    9    5    -31.01      0.00
    2    9    5     17.96      0.00
    5    9    5    -22.71      0.00
    8    9    5    -17.57      0.00
  -18   10    5      9.01      0.00
  -15   10    5     -0.55      0.00
  -12   10    5     34.86      0.00
   -9   10    5    -11.57      0.00
   -6   10    5     -9.47      0.00
   -3   10    5     44.88      0.00
    0   10    5    -18.23      0.00
    3   10    5    -16.56      0.00
    6   10    5     22.25      0.00
    9   10    5    -11.83      0.00
  -20   11    5      6.50      0.00
  -17   11    5     16.34      0.00
  -14   11    5      7.10      0.00
  -11   11    5     13.82      0.00
   -8   11    5     25.58      0.00
   -5   11    5      0.47      0.00
   -2   11    5      5.36      0.00
    1   11    5     36.05      0.00
    4   11    5     -1.90      0.00
    7   11    5    -11.78      0.00
   10   11    5     25.67      0.00
  -22   12    5    -18.08      0.00
  -19   12    5     -3.81      0.00
  -16   12    5     -2.20      0.00
  -13   12    5     -4.67      0.00
  -10   12    5     -1.11      0.00
   -7   12    5      4.24      0.00
   -4   12    5     -2.55      0.00
   -1   12    5      0.27      0.00
    2   12    5      7.28      0.00
    5   12    5     10.32      0.00
    8   12    5     -6.68      0.00
   11   12    5     -3.50      0.00
  -24   13    5     -6.12      0.00
  -21   13    5      0.62      0.00
  -18   13    5    -30.68      0.00
  -15   13    5      7.32      0.00
  -12   13    5      2.95      0.00
   -9   13    5    -39.79      0.00
   -6   13    5      1.02      0.00
   -3   13    5      7.03      0.00
    0   13    5    -26.97      0.00
    3   13    5      0.63      0.00
    6   13    5     -4.16      0.00
    9   13    5     -7.64      0.00
   12   13    5     -8.13      0.00
  -26   14    5     10.44      0.00
  -23   14    5    -15.07      0.00
  -20   14    5     10.37      0.00
  -17   14    5     17.29      0.00
  -14   14    5    -22.34      0.00
  -11   14    5     12.85      0.00
   -8   14    5     16.72      0.00
   -5   14    5    -38.22      0.00
   -2   14    5     11.39      0.00
    1   14    5     13.20      0.00
    4   14    5    -23.86      0.00
    7   14    5     -7.47      0.00
   10   14    5      2.97      0.00
   13   14    5     -8.95      0.00
  -28   15    5     -1.81      0.00
  -25   15    5      0.46      0.00
  -22   15    5      9.54      0.00
  -19   15    5     -3.99      0.00
  -16   15    5     22.68      0.00
  -13   15    5     20.09      0.00
  -10   15    5    -15.85      0.00
   -7   15    5     19.09      0.00
   -4   15    5     23.32      0.00
   -1   15    5    -20.58      0.00
    2   15    5     11.31      0.00
    5   15    5     22.05      0.00
    8   15    5    -15.74      0.00
   11   15    5     -1.15      0.00
   14   15    5      7.52      0.00
  -30   16    5     -7.70      0.00
  -27   16    5     -8.06      0.00
  -24   16    5     -7.11      0.00
  -21   16    5     -4.10      0.00
  -18   16    5      4.59      0.00
  -15   16    5      3.69      0.00
  -12   16    5      5.23      0.00
   -9   16    5      8.36      0.00
   -6   16    5    -11.38      0.00
   -3   16    5     10.74      0.00
    0   16    5      9.29      0.00
    3   16    5     -6.37      0.00
    6   16    5      8.98      0.00
    9   16    5     15.44      0.00
   12   16    5     -6.51      0.00
   15   16    5     -0.20      0.00
  -32   17    5     -3.71      0.00
  -29   17    5     -0.19      0.00
  -26   17    5     -8.86      0.00
  -23   17    5    -16.10      0.00
  -20   17    5      3.23      0.00
  -17   17    5    -12.31      0.00
  -14   17    5    -14.87      0.00
  -11   17    5     13.75      0.00
   -8   17    5    -16.80      0.00
   -5   17    5    -14.65      0.00
   -2   17    5      3.37      0.00
    1   17    5     -9.29      0.00
    4   17    5     -1.17      0.00
    7   17    5     -3.38      0.00
   10   17    5      3.33      0.00
   13   17    5      2.78      0.00
   16   17    5     -2.53      0.00
  -34   18    5      9.65      0.00
  -31   18    5     -1.20      0.00
  -28   18    5     -2.45      0.00
  -25   18    5     13.08      0.00
  -22   18    5    -10.79      0.00
  -19   18    5    -18.89      0.00
  -16   18    5     16.54      0.00
  -13   18    5    -13.09      0.00
  -10   18    5    -20.09      0.00
   -7   18    5     15.34      0.00
   -4   18    5    -10.90      0.00
   -1   18    5    -22.28      0.00
    2   18    5      3.81      0.00
    5   18    5     -7.22      0.00
    8   18    5     -7.20      0.00
   11   18    5     -1.87      0.00
   14   18    5     -1.06      0.00
   17   18    5     -2.57      0.00
  -36   19    5      2.00      0.00
  -33   19    5      2.05      0.00
  -30   19    5      8.19      0.00
  -27   19    5      4.61      0.00
  -24   19    5     -6.61      0.00
  -21   19    5     11.97      0.00
  -18   19    5     -2.94      0.00
  -15   19    5    -14.40      0.00
  -12   19    5     28.49      0.00
   -9   19    5     -5.78      0.00
   -6   19    5    -17.04      0.00
   -3   19    5     24.35      0.00
    0   19    5     -2.07      0.00
    3   19    5    -19.44      0.00
    6   19    5      8.74      0.00
    9   19    5      0.72      0.00
   12   19    5     -5.47      0.00
   15   19    5     -0.65      0.00
   18   19    5     -1.08      0.00
  -38   20    5      0.07      0.00
  -35   20    5     -0.93      0.00
  -32   20    5     -2.68      0.00
  -29   20    5     -0.42      0.00
  -26   20    5      3.83      0.00
  -23   20    5     -3.05      0.00
  -20   20    5     -6.81      0.00
  -17   20    5      8.80      0.00
  -14   20    5      5.14      0.00
  -11   20    5     -6.09      0.00
   -8   20    5     16.72      0.00
   -5   20    5      4.14      0.00
   -2   20    5     -6.26      0.00
    1   20    5     19.41      0.00
    4   20    5      1.78      0.00
    7   20    5     -5.16      0.00
   10   20    5      7.48      0.00
   13   20    5      3.19      0.00
   16   20    5     -4.77      0.00
   19   20    5      2.16      0.00
  -40   21    5     -1.76      0.00
  -37   21    5     -1.74      0.00
  -34   21    5     -2.29      0.00
  -31   21    5     -6.05      0.00
  -28   21    5     -0.26      0.00
  -25   21    5      1.34      0.00
  -22   21    5    -11.53      0.00
  -19   21    5      1.90      0.00
  -16   21    5      0.68      0.00
  -13   21    5    -10.47      0.00
  -10   21    5      8.53      0.00
   -7   21    5     -1.80      0.00
   -4   21    5     -1.28      0.00
   -1   21    5      7.76      0.00
    2   21    5     -0.27      0.00
    5   21    5     10.31      0.00
    8   21    5      2.82      0.00
   11   21    5     -0.96      0.00
   14   21    5      2.84      0.00
   17   21    5     -0.38      0.00
   20   21    5      1.50      0.00
  -42   22    5      1.45      0.00
  -39   22    5      2.74      0.00
  -36   22    5     -4.81      0.00
  -33   22    5      3.24      0.00
  -30   22    5      6.10      0.00
  -27   22    5     -6.35      0.00
  -24   22    5      1.88      0.00
  -21   22    5      9.22      0.00
  -18   22    5    -18.41      0.00
  -15   22    5      0.16      0.00
  -12   22    5      7.22      0.00
   -9   22    5    -20.87      0.00
   -6   22    5      1.60      0.00
   -3   22    5      4.57      0.00
    0   22    5     -5.05      0.00
    3   22    5     -2.21      0.00
    6   22    5      5.39      0.00
    9   22    5      0.46      0.00
   12   22    5      0.17      0.00
   15   22    5     -1.39      0.00
   18   22    5      0.94      0.00
   21   22    5      1.84      0.00
  -44   23    5      3.57      0.00
  -41   23    5      0.03      0.00
  -38   23    5      1.42      0.00
  -35   23    5      6.08      0.00
  -32   23    5     -0.69      0.00
  -29   23    5      6.12      0.00
  -26   23    5     14.24      0.00
  -23   23    5     -8.51      0.00
  -20   23    5      1.88      0.00
  -17   23    5     13.73      0.00
  -14   23    5    -22.35      0.00
  -11   23    5      1.95      0.00
   -8   23    5     10.94      0.00
   -5   23    5    -17.80      0.00
   -2   23    5     -0.63      0.00
    1   23    5     10.65      0.00
    4   23    5     -7.71      0.00
    7   23    5     -2.56      0.00
   10   23    5      1.06      0.00
   13   23    5     -3.75      0.00
   16   23    5     -1.04      0.00
   19   23    5      2.58      0.00
   22   23    5     -1.36      0.00
  -46   24    5      0.43      0.00
  -43   24    5      1.48      0.00
  -40   24    5      1.13      0.00
  -37   24    5     -2.38      0.00
  -34   24    5      2.02      0.00
  -31   24    5      5.14      0.00
  -28   24    5     -1.09      0.00
  -25   24    5      0.99      0.00
  -22   24    5     11.75      0.00
  -19   24    5     -8.51      0.00
  -16   24    5     -5.28      0.00
  -13   24    5     12.77      0.00
  -10   24    5    -13.29      0.00
   -7   24    5      1.98      0.00
   -4   24    5     15.17      0.00
   -1   24    5     -7.71      0.00
    2   24    5     -1.69      0.00
    5   24    5      9.25      0.00
    8   24    5     -6.04      0.00
   11   24    5     -3.44      0.00
   14   24    5      1.42      0.00
   17   24    5     -0.97      0.00
   20   24    5     -1.63      0.00
   23   24    5     -1.05      0.00
  -48   25    5      0.23      0.00
  -45   25    5     -0.42      0.00
  -42   25    5      0.77      0.00
  -39   25    5     -1.78      0.00
  -36   25    5     -2.30      0.00
  -33   25    5     -1.81      0.00
  -30   25    5     -1.55      0.00
  -27   25    5     -1.34      0.00
  -24   25    5      1.02      0.00
  -21   25    5     -7.92      0.00
  -18   25    5     -3.07      0.00
  -15   25    5      1.23      0.00
  -12   25    5     -6.62      0.00
   -9   25    5      4.06      0.00
   -6   25    5      4.12      0.00
   -3   25    5      1.01      0.00
    0   25    5     10.04      0.00
    3   25    5     -5.20      0.00
    6   25    5      1.01      0.00
    9   25    5      2.90      0.00
   12   25    5     -2.92      0.00
   15   25    5      1.63      0.00
   18   25    5      1.22      0.00
   21   25    5     -4.07      0.00
   24   25    5      0.32      0.00
  -47   26    5     -0.72      0.00
  -44   26    5      2.67      0.00
  -41   26    5      0.10      0.00
  -38   26    5     -0.18      0.00
  -35   26    5     -2.17      0.00
  -32   26    5     -3.65      0.00
  -29   26    5      5.98      0.00
  -26   26    5     -2.57      0.00
  -23   26    5     -8.55      0.00
  -20   26    5      2.94      0.00
  -17   26    5    -10.27      0.00
  -14   26    5     -6.06      0.00
  -11   26    5      8.65      0.00
   -8   26    5     -3.51      0.00
   -5   26    5     -0.05      0.00
   -2   26    5      1.99      0.00
    1   26    5      1.90      0.00
    4   26    5      0.62      0.00
    7   26    5     -2.29      0.00
   10   26    5     -0.33      0.00
   13   26    5      2.65      0.00
   16   26    5     -0.88      0.00
   19   26    5     -0.20      0.00
   22   26    5     -1.18      0.00
  -49   27    5      4.01      0.00
  -46   27    5     -1.23      0.00
  -43   27    5      3.34      0.00
  -40   27    5      2.13      0.00
  -37   27    5     -1.36      0.00
  -34   27    5      5.04      0.00
  -31   27    5      3.03      0.00
  -28   27    5     -5.11      0.00
  -25   27    5     12.82      0.00
  -22   27    5      1.06      0.00
  -19   27    5    -14.83      0.00
  -16   27    5     12.63      0.00
  -13   27    5     -0.33      0.00
  -10   27    5    -12.45      0.00
   -7   27    5     13.07      0.00
   -4   27    5     -1.45      0.00
   -1   27    5     -7.32      0.00
    2   27    5     -0.52      0.00
    5   27    5      1.22      0.00
    8   27    5     -3.84      0.00
   11   27    5      1.63      0.00
   14   27    5      0.82      0.00
   17   27    5     -0.84      0.00
   20   27    5     -2.69      0.00
  -48   28    5      2.30      0.00
  -45   28    5      2.16      0.00
  -42   28    5      0.22      0.00
  -39   28    5      0.02      0.00
  -36   28    5      3.32      0.00
  -33   28    5     -3.14      0.00
  -30   28    5      7.48      0.00
  -27   28    5      7.13      0.00
  -24   28    5     -6.04      0.00
  -21   28    5     10.99      0.00
  -18   28    5      5.28      0.00
  -15   28    5     -6.46      0.00
  -12   28    5     11.96      0.00
   -9   28    5      2.48      0.00
   -6   28    5     -8.92      0.00
   -3   28    5      5.57      0.00
    0   28    5      1.67      0.00
    3   28    5     -8.19      0.00
    6   28    5      0.67      0.00
    9   28    5      0.22      0.00
   12   28    5     -0.22      0.00
   15   28    5      1.34      0.00
   18   28    5      1.53      0.00
  -47   29    5      1.16      0.00
  -44   29    5      1.23      0.00
  -41   29    5     -1.52      0.00
  -38   29    5     -3.23      0.00
  -35   29    5     -1.31      0.00
  -32   29    5      1.32      0.00
  -29   29    5     -3.37      0.00
  -26   29    5      3.13      0.00
  -23   29    5      6.47      0.00
  -20   29    5     -5.14      0.00
  -17   29    5      2.57      0.00
  -14   29    5      8.42      0.00
  -11   29    5     -5.29      0.00
   -8   29    5      7.33      0.00
   -5   29    5      3.45      0.00
   -2   29    5     -6.64      0.00
    1   29    5      2.89      0.00
    4   29    5      1.56      0.00
    7   29    5     -5.40      0.00
   10   29    5      4.21      0.00
   13   29    5      1.27      0.00
   16   29    5      2.27      0.00
  -49   30    5      4.02      0.00
  -46   30    5      0.21      0.00
  -43   30    5      0.19      0.00
  -40   30    5     -3.90      0.00
  -37   30    5     -0.46      0.00
  -34   30    5     -3.46      0.00
  -31   30    5     -6.31      0.00
  -28   30    5      3.29      0.00
  -25   30    5     -1.06      0.00
  -22   30    5     -6.77      0.00
  -19   30    5      0.57      0.00
  -16   30    5     -1.25      0.00
  -13   30    5     -7.37      0.00
  -10   30    5      4.59      0.00
   -7   30    5     -0.06      0.00
   -4   30    5      0.06      0.00
   -1   30    5      0.66      0.00
    2   30    5     -3.95      0.00
    5   30    5      2.93      0.00
    8   30    5     -0.92      0.00
   11   30    5     -1.17      0.00
   14   30    5      3.45      0.00
   17   30    5     -0.11      0.00
  -48   31    5      0.63      0.00
  -45   31    5      1.85      0.00
  -42   31    5     -0.64      0.00
  -39   31    5     -0.47      0.00
  -36   31    5     -4.20      0.00
  -33   31    5     -1.07      0.00
  -30   31    5      3.31      0.00
  -27   31    5     -5.98      0.00
  -24   31    5     -2.49      0.00
  -21   31    5      2.21      0.00
  -18   31    5    -11.36      0.00
  -15   31    5     -2.95      0.00
  -12   31    5      2.40      0.00
   -9   31    5     -7.61      0.00
   -6   31    5     -1.62      0.00
   -3   31    5     -0.27      0.00
    0   31    5     -0.82      0.00
    3   31    5     -1.71      0.00
    6   31    5     -1.41      0.00
    9   31    5     -0.73      0.00
   12   31    5     -1.58      0.00
   15   31    5     -0.26      0.00
  -47   32    5     -0.64      0.00
  -44   32    5      2.74      0.00
  -41   32    5      0.25      0.00
  -38   32    5     -1.32      0.00
  -35   32    5      3.40      0.00
  -32   32    5     -4.63      0.00
  -29   32    5     -0.52      0.00
  -26   32    5      6.30      0.00
  -23   32    5     -5.21      0.00
  -20   32    5     -4.27      0.00
  -17   32    5      7.96      0.00
  -14   32    5    -10.94      0.00
  -11   32    5     -2.63      0.00
   -8   32    5      4.80      0.00
   -5   32    5     -7.08      0.00
   -2   32    5     -1.25      0.00
    1   32    5      0.99      0.00
    4   32    5     -0.47      0.00
    7   32    5     -2.90      0.00
   10   32    5     -1.05      0.00
   13   32    5      0.15      0.00
  -46   33    5      2.05      0.00
  -43   33    5      1.13      0.00
  -40   33    5      1.92      0.00
  -37   33    5     -0.06      0.00
  -34   33    5     -3.28      0.00
  -31   33    5      3.44      0.00
  -28   33    5     -0.95      0.00
  -25   33    5     -4.55      0.00
  -19   33    5      1.10      0.00
  -16   33    5     -2.54      0.00
  -13   33    5      6.20      0.00
  -10   33    5     -4.41      0.00
   -7   33    5     -3.43      0.00
   -4   33    5      4.17      0.00
   -1   33    5     -1.06      0.00
    2   33    5     -1.21      0.00
    5   33    5      4.61      0.00
    8   33    5     -2.26      0.00
   11   33    5     -0.18      0.00
   14   33    5     -0.07      0.00
  -48   34    5      1.52      0.00
  -45   34    5      3.71      0.00
  -42   34    5      1.70      0.00
  -39   34    5     -1.20      0.00
  -36   34    5     -0.05      0.00
  -33   34    5      1.02      0.00
  -30   34    5     -4.53      0.00
  -27   34    5     -1.08      0.00
  -24   34    5      3.24      0.00
  -18   34    5      5.81      0.00
  -15   34    5      2.68      0.00
  -12   34    5     -1.25      0.00
   -9   34    5      2.34      0.00
   -6   34    5     -0.13      0.00
   -3   34    5     -0.35      0.00
    0   34    5      3.04      0.00
    3   34    5     -0.53      0.00
    6   34    5      2.58      0.00
    9   34    5      2.55      0.00
   12   34    5     -0.19      0.00
  -47   35    5      0.59      0.00
  -44   35    5      1.40      0.00
  -41   35    5      1.76      0.00
  -38   35    5      2.94      0.00
  -35   35    5     -4.75      0.00
  -32   35    5     -1.89      0.00
  -29   35    5      2.29      0.00
  -26   35    5     -1.11      0.00
  -23   35    5     -4.33      0.00
  -20   35    5      4.24      0.00
  -17   35    5     -0.93      0.00
  -14   35    5     -1.54      0.00
  -11   35    5      3.24      0.00
   -8   35    5      0.67      0.00
   -5   35    5      1.26      0.00
   -2   35    5      0.30      0.00
    1   35    5      0.80      0.00
    4   35    5      3.83      0.00
    7   35    5     -1.17      0.00
   10   35    5      1.41      0.00
  -46   36    5      0.83      0.00
  -43   36    5      0.49      0.00
  -40   36    5      4.47      0.00
  -37   36    5     -2.89      0.00
  -34   36    5      2.73      0.00
  -31   36    5     -0.64      0.00
  -28   36    5     -2.32      0.00
  -25   36    5      4.85      0.00
  -22   36    5     -1.21      0.00
  -19   36    5     -3.79      0.00
  -16   36    5      4.94      0.00
  -13   36    5      1.16      0.00
  -10   36    5     -5.55      0.00
   -7   36    5      6.01      0.00
   -4   36    5     -0.99      0.00
   -1   36    5      0.35      0.00
    2   36    5     -0.47      0.00
    5   36    5      1.85      0.00
    8   36    5      0.93      0.00
  -45   37    5      2.36      0.00
  -42   37    5      1.60      0.00
  -36   37    5      0.63      0.00
  -33   37    5      1.72      0.00
  -30   37    5     -0.08      0.00
  -27   37    5      4.15      0.00
  -24   37    5     -3.35      0.00
  -21   37    5      1.15      0.00
  -18   37    5      3.67      0.00
  -15   37    5     -3.71      0.00
  -12   37    5      1.39      0.00
   -9   37    5      2.14      0.00
   -6   37    5     -1.77      0.00
   -3   37    5      1.64      0.00
    0   37    5      0.39      0.00
    3   37    5     -3.03      0.00
    6   37    5     -1.36      0.00
    9   37    5      1.76      0.00
  -44   38    5      2.44      0.00
  -41   38    5      5.47      0.00
  -35   38    5      1.19      0.00
  -32   38    5      2.34      0.00
  -29   38    5      2.36      0.00
  -26   38    5     -2.27      0.00
  -23   38    5      1.60      0.00
  -20   38    5     -2.30      0.00
  -17   38    5      2.25      0.00
  -14   38    5      2.12      0.00
  -11   38    5     -3.57      0.00
   -8   38    5      2.15      0.00
   -5   38    5      0.00      0.00
   -2   38    5     -0.16      0.00
    1   38    5      0.71      0.00
    4   38    5     -2.99      0.00
    7   38    5     -2.21      0.00
  -43   39    5      1.83      0.00
  -34   39    5      1.83      0.00
  -31   39    5     -3.15      0.00
  -28   39    5      2.52      0.00
  -25   39    5     -0.05      0.00
  -22   39    5     -3.61      0.00
  -19   39    5      2.60      0.00
  -16   39    5      1.20      0.00
  -13   39    5      0.23      0.00
  -10   39    5      0.51      0.00
   -7   39    5      0.15      0.00
   -4   39    5      0.97      0.00
   -1   39    5     -0.74      0.00
    2   39    5     -2.36      0.00
    5   39    5     -0.31      0.00
  -45   40    5      4.38      0.00
  -42   40    5      0.51      0.00
  -33   40    5     -2.17      0.00
  -30   40    5      1.01      0.00
  -27   40    5     -0.42      0.00
  -24   40    5      0.28      0.00
  -21   40    5      1.52      0.00
  -18   40    5     -1.58      0.00
  -15   40    5     -1.07      0.00
  -12   40    5      3.69      0.00
   -9   40    5     -1.19      0.00
   -6   40    5      1.05      0.00
   -3   40    5     -0.18      0.00
    0   40    5      1.11      0.00
    3   40    5     -0.95      0.00
  -44   41    5      2.23      0.00
  -41   41    5      2.05      0.00
  -32   41    5     -1.35      0.00
  -29   41    5      0.62      0.00
  -26   41    5      2.92      0.00
  -23   41    5      0.32      0.00
  -20   41    5     -1.15      0.00
  -17   41    5     -1.42      0.00
  -14   41    5     -0.53      0.00
  -11   41    5     -0.86      0.00
   -8   41    5      0.92      0.00
   -5   41    5     -0.77      0.00
   -2   41    5     -2.14      0.00
    1   41    5      2.73      0.00
  -43   42    5     -0.70      0.00
  -40   42    5      7.24      0.00
  -31   42    5     -0.37      0.00
  -28   42    5      3.42      0.00
  -25   42    5     -0.61      0.00
  -22   42    5      1.82      0.00
  -19   42    5     -1.11      0.00
  -16   42    5     -2.55      0.00
  -13   42    5      0.27      0.00
  -10   42    5     -0.99      0.00
   -7   42    5     -1.42      0.00
   -4   42    5     -1.23      0.00
   -1   42    5     -0.90      0.00
    2   42    5      1.22      0.00
  -42   43    5     -0.93      0.00
  -30   43    5      0.46      0.00
  -27   43    5      2.49      0.00
  -24   43    5      0.72      0.00
  -21   43    5      1.31      0.00
  -18   43    5      0.03      0.00
  -15   43    5      1.03      0.00
  -12   43    5      2.00      0.00
   -9   43    5     -3.35      0.00
   -6   43    5     -0.80      0.00
   -3   43    5     -1.31      0.00
  -41   44    5     -0.14      0.00
  -29   44    5      1.56      0.00
  -26   44    5     -0.25      0.00
  -23   44    5      1.78      0.00
  -20   44    5      2.50      0.00
  -17   44    5      3.69      0.00
  -14   44    5      0.73      0.00
  -11   44    5      2.74      0.00
   -8   44    5     -2.16      0.00
   -5   44    5     -0.77      0.00
   -2   44    5     -0.59      0.00
  -40   45    5     -0.61      0.00
  -37   45    5     -1.53      0.00
  -28   45    5      1.90      0.00
  -25   45    5     -2.62      0.00
  -22   45    5      2.18      0.00
  -19   45    5      1.27      0.00
  -16   45    5     -0.32      0.00
  -10   45    5     -3.13      0.00
   -7   45    5      0.26      0.00
  -39   46    5     -2.93      0.00
  -36   46    5      1.91      0.00
  -24   46    5      0.53      0.00
  -21   46    5     -2.42      0.00
  -18   46    5     -2.09      0.00
  -15   46    5     -1.64      0.00
   -9   46    5     -2.52      0.00
  -32   47    5     -4.34      0.00
  -29   47    5     -3.77      0.00
  -23   47    5      0.04      0.00
  -20   47    5     -0.43      0.00
  -17   47    5     -2.66      0.00
  -14   47    5     -2.64      0.00
  -16   48    5      2.02      0.00
    0    0    6    -29.15      0.00
    1    1    6     -9.19      0.00
   -1    2    6     22.41      0.00
    2    2    6      2.83      0.00
   -3    3    6     -0.92      0.00
    0    3    6     -7.01      0.00
    3    3    6     41.87      0.00
   -5    4    6    -14.18      0.00
   -2    4    6     18.24      0.00
    1    4    6     -6.86      0.00
    4    4    6    -15.34      0.00
   -7    5    6     -0.79      0.00
   -4    5    6    -17.50      0.00
   -1    5    6    -23.16      0.00
    2    5    6      2.77      0.00
    5    5    6     -9.07      0.00
   -9    6    6      7.13      0.00
   -6    6    6      7.91      0.00
   -3    6    6     -6.43      0.00
    0    6    6     -3.83      0.00
    3    6    6     -1.03      0.00
    6    6    6     -2.38      0.00
  -11    7    6     19.94      0.00
   -8    7    6    -16.13      0.00
   -5    7    6     21.29      0.00
   -2    7    6     23.78      0.00
    1    7    6     -5.80      0.00
    4    7    6     11.68      0.00
    7    7    6     12.21      0.00
  -13    8    6    -19.42      0.00
  -10    8    6      2.80      0.00
   -7    8    6     13.22      0.00
   -4    8    6    -18.36      0.00
   -1    8    6      6.04      0.00
    2    8    6     26.66      0.00
    5    8    6    -10.38      0.00
    8    8    6      4.91      0.00
  -15    9    6     -1.69      0.00
  -12    9    6     -2.11      0.00
   -9    9    6    -31.91      0.00
   -6    9    6      1.79      0.00
   -3    9    6      1.17      0.00
    0    9    6    -18.71      0.00
    3    9    6     -4.17      0.00
    6    9    6      2.21      0.00
    9    9    6     -8.95      0.00
  -17   10    6      2.21      0.00
  -14   10    6      0.61      0.00
  -11   10    6     -6.75      0.00
   -8   10    6     -0.08      0.00
   -5   10    6     -3.88      0.00
   -2   10    6     -8.74      0.00
    1   10    6      4.42      0.00
    4   10    6    -12.39      0.00
    7   10    6    -13.89      0.00
   10   10    6      0.25      0.00
  -19   11    6     13.56      0.00
  -16   11    6     -1.12      0.00
  -13   11    6     -2.96      0.00
  -10   11    6     19.98      0.00
   -7   11    6     11.79      0.00
   -4   11    6     -7.08      0.00
   -1   11    6     16.61      0.00
    2   11    6      1.05      0.00
    5   11    6     -4.46      0.00
    8   11    6      1.00      0.00
   11   11    6     -4.79      0.00
  -21   12    6     -1.35      0.00
  -18   12    6     -8.46      0.00
  -15   12    6     14.83      0.00
  -12   12    6     -4.55      0.00
   -9   12    6     -4.28      0.00
   -6   12    6     29.26      0.00
   -3   12    6     -1.25      0.00
    0   12    6     -3.45      0.00
    3   12    6     16.79      0.00
    6   12    6      0.41      0.00
    9   12    6     -2.22      0.00
   12   12    6      7.96      0.00
  -23   13    6     -2.03      0.00
  -20   13    6      8.31      0.00
  -17   13    6     -3.90      0.00
  -14   13    6    -17.58      0.00
  -11   13    6     12.45      0.00
   -8   13    6     -2.02      0.00
   -5   13    6    -19.18      0.00
   -2   13    6     16.61      0.00
    1   13    6      0.16      0.00
    4   13    6     -8.70      0.00
    7   13    6      5.51      0.00
   10   13    6      2.90      0.00
   13   13    6     -6.64      0.00
  -25   14    6      1.44      0.00
  -22   14    6      2.73      0.00
  -19   14    6     -0.66      0.00
  -16   14    6      1.95      0.00
  -13   14    6     -2.01      0.00
  -10   14    6    -12.89      0.00
   -7   14    6      4.59      0.00
   -4   14    6     -2.86      0.00
   -1   14    6     -9.44      0.00
    2   14    6      4.30      0.00
    5   14    6      1.26      0.00
    8   14    6     -9.39      0.00
   11   14    6      0.11      0.00
   14   14    6     -4.00      0.00
  -27   15    6     -2.87      0.00
  -24   15    6      4.97      0.00
  -21   15    6     -5.23      0.00
  -18   15    6     10.90      0.00
  -15   15    6      5.87      0.00
  -12   15    6     -7.71      0.00
   -9   15    6      2.50      0.00
   -6   15    6      2.67      0.00
   -3   15    6     -4.08      0.00
    0   15    6      4.87      0.00
    3   15    6      2.83      0.00
    6   15    6     -2.25      0.00
    9   15    6      5.85      0.00
   12   15    6     -6.00      0.00
   15   15    6     -6.03      0.00
  -29   16    6      3.88      0.00
  -26   16    6     -7.75      0.00
  -23   16    6     -2.20      0.00
  -20   16    6     11.18      0.00
  -17   16    6     -7.87      0.00
  -14   16    6      7.55      0.00
  -11   16    6      6.82      0.00
   -8   16    6    -13.69      0.00
   -5   16    6      6.60      0.00
   -2   16    6      6.85      0.00
    1   16    6     -7.13      0.00
    4   16    6      8.22      0.00
    7   16    6      5.16      0.00
   10   16    6      2.23      0.00
   13   16    6      2.76      0.00
   16   16    6     -1.33      0.00
  -31   17    6     -3.62      0.00
  -28   17    6      2.99      0.00
  -25   17    6      4.79      0.00
  -22   17    6    -10.28      0.00
  -19   17    6      3.25      0.00
  -16   17    6     11.69      0.00
  -13   17    6    -19.67      0.00
  -10   17    6     -1.52      0.00
   -7   17    6     14.56      0.00
   -4   17    6    -18.58      0.00
   -1   17    6     -2.06      0.00
    2   17    6      9.17      0.00
    5   17    6     -5.02      0.00
    8   17    6      0.92      0.00
   11   17    6      9.45      0.00
   14   17    6     -0.01      0.00
   17   17    6     -1.19      0.00
  -33   18    6      0.82      0.00
  -30   18    6      4.81      0.00
  -27   18    6     -2.11      0.00
  -24   18    6     -4.10      0.00
  -21   18    6      9.31      0.00
  -18   18    6     -3.17      0.00
  -15   18    6     -7.51      0.00
  -12   18    6      3.82      0.00
   -9   18    6     -8.11      0.00
   -6   18    6     -1.51      0.00
   -3   18    6      3.36      0.00
    0   18    6     -9.79      0.00
    3   18    6     -2.93      0.00
    6   18    6      1.43      0.00
    9   18    6     -2.22      0.00
   12   18    6      0.72      0.00
   15   18    6      3.74      0.00
   18   18    6     -2.51      0.00
  -35   19    6     -3.39      0.00
  -32   19    6      4.67      0.00
  -29   19    6      0.06      0.00
  -26   19    6     -4.53      0.00
  -23   19    6      1.65      0.00
  -20   19    6     -0.24      0.00
  -17   19    6      3.32      0.00
  -14   19    6     -1.17      0.00
  -11   19    6     -5.43      0.00
   -8   19    6      5.10      0.00
   -5   19    6      3.19      0.00
   -2   19    6     -3.94      0.00
    1   19    6      1.48      0.00
    4   19    6     -0.74      0.00
    7   19    6    -11.28      0.00
   10   19    6      2.56      0.00
   13   19    6      0.91      0.00
   16   19    6     -2.93      0.00
   19   19    6      1.57      0.00
  -37   20    6      1.49      0.00
  -34   20    6      1.46      0.00
  -31   20    6     -4.23      0.00
  -28   20    6      2.17      0.00
  -25   20    6     -6.89      0.00
  -22   20    6     -4.55      0.00
  -19   20    6     13.36      0.00
  -16   20    6     -4.90      0.00
  -13   20    6     -6.35      0.00
  -10   20    6     12.58      0.00
   -7   20    6     -3.79      0.00
   -4   20    6     -2.74      0.00
   -1   20    6     11.60      0.00
    2   20    6     -2.14      0.00
    5   20    6     -3.52      0.00
    8   20    6     -1.28      0.00
   11   20    6     -5.05      0.00
   14   20    6      0.52      0.00
   17   20    6      2.21      0.00
   20   20    6      0.47      0.00
  -39   21    6     -0.76      0.00
  -36   21    6     -2.11      0.00
  -33   21    6      4.86      0.00
  -30   21    6     -1.07      0.00
  -27   21    6    -10.11      0.00
  -24   21    6      4.39      0.00
  -21   21    6      0.56      0.00
  -18   21    6     -7.74      0.00
  -15   21    6     10.20      0.00
  -12   21    6     -4.15      0.00
   -9   21    6    -11.89      0.00
   -6   21    6     11.88      0.00
   -3   21    6     -2.12      0.00
    0   21    6     -6.71      0.00
    3   21    6      8.43      0.00
    6   21    6     -1.44      0.00
    9   21    6     -1.78      0.00
   12   21    6      0.08      0.00
   15   21    6     -0.99      0.00
   18   21    6      2.21      0.00
   21   21    6      1.22      0.00
  -41   22    6     -1.28      0.00
  -38   22    6      1.04      0.00
  -35   22    6      0.24      0.00
  -32   22    6     -1.32      0.00
  -29   22    6      4.89      0.00
  -26   22    6      1.04      0.00
  -23   22    6     -9.93      0.00
  -20   22    6      4.21      0.00
  -17   22    6      2.30      0.00
  -14   22    6    -14.11      0.00
  -11   22    6      4.40      0.00
   -8   22    6     -3.68      0.00
   -5   22    6    -12.21      0.00
   -2   22    6      6.73      0.00
    1   22    6     -1.46      0.00
    4   22    6     -2.89      0.00
    7   22    6      5.24      0.00
   10   22    6      1.96      0.00
   13   22    6     -3.16      0.00
   16   22    6      1.96      0.00
   19   22    6      1.69      0.00
   22   22    6      0.04      0.00
  -43   23    6     -0.65      0.00
  -40   23    6     -1.62      0.00
  -37   23    6      2.49      0.00
  -34   23    6      1.93      0.00
  -31   23    6      4.58      0.00
  -28   23    6     -0.55      0.00
  -25   23    6      0.07      0.00
  -22   23    6      2.39      0.00
  -19   23    6     -7.33      0.00
  -16   23    6     -2.57      0.00
  -13   23    6     -0.41      0.00
  -10   23    6     -5.85      0.00
   -7   23    6     -4.27      0.00
   -4   23    6     -1.00      0.00
   -1   23    6     -4.66      0.00
    2   23    6      2.65      0.00
    5   23    6      5.06      0.00
    8   23    6      1.35      0.00
   11   23    6      0.95      0.00
   14   23    6     -0.60      0.00
   17   23    6     -1.50      0.00
   20   23    6      1.09      0.00
   23   23    6     -1.29      0.00
  -45   24    6     -0.20      0.00
  -42   24    6      1.52      0.00
  -39   24    6     -1.77      0.00
  -36   24    6      0.44      0.00
  -33   24    6      6.45      0.00
  -30   24    6     -0.37      0.00
  -27   24    6      3.03      0.00
  -24   24    6      0.01      0.00
  -21   24    6     -8.34      0.00
  -18   24    6      8.21      0.00
  -15   24    6     -1.10      0.00
  -12   24    6     -7.54      0.00
   -9   24    6      4.30      0.00
   -6   24    6     -0.12      0.00
   -3   24    6     -4.69      0.00
    0   24    6      3.35      0.00
    3   24    6      3.37      0.00
    6   24    6      0.59      0.00
    9   24    6      5.86      0.00
   12   24    6     -2.21      0.00
   15   24    6     -0.90      0.00
   18   24    6     -0.45      0.00
   21   24    6     -0.57      0.00
  -47   25    6     -0.96      0.00
  -44   25    6      1.29      0.00
  -41   25    6     -3.14      0.00
  -38   25    6      2.32      0.00
  -35   25    6     -1.93      0.00
  -32   25    6      2.57      0.00
  -29   25    6      4.78      0.00
  -26   25    6     -5.94      0.00
  -23   25    6     -0.24      0.00
  -20   25    6      6.68      0.00
  -17   25    6     -3.05      0.00
  -14   25    6      2.88      0.00
  -11   25    6     11.52      0.00
   -8   25    6     -9.33      0.00
   -5   25    6      2.67      0.00
   -2   25    6      8.58      0.00
    1   25    6     -1.97      0.00
    4   25    6      1.07      0.00
    7   25    6      1.70      0.00
   10   25    6     -0.29      0.00
   13   25    6      0.40      0.00
   16   25    6      0.97      0.00
   19   25    6      2.28      0.00
   22   25    6     -1.47      0.00
  -46   26    6     -2.64      0.00
  -43   26    6      1.02      0.00
  -40   26    6     -4.24      0.00
  -37   26    6     -0.30      0.00
  -34   26    6      3.34      0.00
  -31   26    6     -2.44      0.00
  -28   26    6     -1.82      0.00
  -25   26    6      7.13      0.00
  -22   26    6     -5.80      0.00
  -19   26    6      3.24      0.00
  -16   26    6      8.70      0.00
  -13   26    6     -3.18      0.00
  -10   26    6      2.92      0.00
   -7   26    6     10.81      0.00
   -4   26    6     -5.88      0.00
   -1   26    6      1.24      0.00
    2   26    6      5.45      0.00
    5   26    6     -4.58      0.00
    8   26    6      0.19      0.00
   11   26    6     -0.32      0.00
   14   26    6      0.57      0.00
   17   26    6      2.26      0.00
   20   26    6      2.67      0.00
  -45   27    6     -0.48      0.00
  -42   27    6     -3.46      0.00
  -39   27    6      1.23      0.00
  -36   27    6     -2.09      0.00
  -33   27    6     -0.63      0.00
  -30   27    6      5.36      0.00
  -27   27    6      0.08      0.00
  -24   27    6     -3.77      0.00
  -21   27    6      6.50      0.00
  -18   27    6      3.24      0.00
  -15   27    6     -5.45      0.00
  -12   27    6      6.24      0.00
   -9   27    6     -0.75      0.00
   -6   27    6     -0.32      0.00
   -3   27    6      6.50      0.00
    0   27    6     -2.95      0.00
    3   27    6     -2.63      0.00
    6   27    6     -0.18      0.00
    9   27    6     -2.59      0.00
   12   27    6     -1.68      0.00
   15   27    6      2.80      0.00
   18   27    6      1.39      0.00
  -47   28    6     -2.19      0.00
  -44   28    6     -0.93      0.00
  -41   28    6     -2.93      0.00
  -38   28    6      1.28      0.00
  -35   28    6     -0.47      0.00
  -32   28    6      2.53      0.00
  -29   28    6      0.56      0.00
  -26   28    6      2.63      0.00
  -23   28    6      4.58      0.00
  -20   28    6     -4.04      0.00
  -17   28    6     -1.58      0.00
  -14   28    6      5.32      0.00
  -11   28    6     -6.37      0.00
   -8   28    6      3.57      0.00
   -5   28    6      2.14      0.00
   -2   28    6     -1.34      0.00
    1   28    6      1.52      0.00
    4   28    6     -0.85      0.00
    7   28    6     -4.65      0.00
   10   28    6     -0.90      0.00
   13   28    6     -0.87      0.00
   16   28    6     -0.21      0.00
   19   28    6     -0.05      0.00
  -46   29    6     -1.79      0.00
  -43   29    6     -0.81      0.00
  -40   29    6      0.60      0.00
  -37   29    6     -0.68      0.00
  -34   29    6     -0.70      0.00
  -31   29    6      1.56      0.00
  -28   29    6      4.85      0.00
  -25   29    6     -1.98      0.00
  -22   29    6     -4.66      0.00
  -19   29    6      5.49      0.00
  -16   29    6     -5.10      0.00
  -13   29    6     -4.10      0.00
  -10   29    6      7.33      0.00
   -7   29    6     -1.13      0.00
   -4   29    6      0.02      0.00
   -1   29    6      1.30      0.00
    2   29    6      0.84      0.00
    5   29    6     -0.57      0.00
    8   29    6     -1.46      0.00
   11   29    6     -1.69      0.00
   14   29    6      0.36      0.00
   17   29    6      0.36      0.00
  -45   30    6      0.02      0.00
  -42   30    6     -0.10      0.00
  -39   30    6      0.75      0.00
  -36   30    6     -0.69      0.00
  -33   30    6      1.17      0.00
  -30   30    6      3.87      0.00
  -27   30    6     -7.41      0.00
  -24   30    6      1.72      0.00
  -21   30    6     -2.48      0.00
  -18   30    6     -8.46      0.00
  -15   30    6      8.22      0.00
  -12   30    6     -1.18      0.00
   -9   30    6     -5.38      0.00
   -6   30    6      4.94      0.00
   -3   30    6      0.73      0.00
    0   30    6     -3.52      0.00
    3   30    6      3.00      0.00
    6   30    6     -0.65      0.00
    9   30    6      1.17      0.00
   12   30    6     -0.15      0.00
   15   30    6      1.76      0.00
  -44   31    6      2.11      0.00
  -41   31    6     -0.24      0.00
  -38   31    6      1.80      0.00
  -35   31    6      1.03      0.00
  -32   31    6     -1.08      0.00
  -29   31    6      0.27      0.00
  -26   31    6      1.28      0.00
  -23   31    6     -7.52      0.00
  -20   31    6     -1.17      0.00
  -17   31    6      1.28      0.00
  -14   31    6     -2.33      0.00
  -11   31    6      3.08      0.00
   -8   31    6     -0.77      0.00
   -5   31    6     -4.02      0.00
   -2   31    6     -1.89      0.00
    1   31    6      0.16      0.00
    4   31    6      0.63      0.00
    7   31    6      1.86      0.00
   10   31    6      2.31      0.00
   13   31    6     -1.06      0.00
  -46   32    6     -2.08      0.00
  -43   32    6     -0.44      0.00
  -40   32    6      1.74      0.00
  -37   32    6      1.00      0.00
  -34   32    6     -1.63      0.00
  -31   32    6      3.34      0.00
  -28   32    6     -2.54      0.00
  -25   32    6     -4.23      0.00
  -22   32    6      3.98      0.00
  -19   32    6     -1.47      0.00
  -16   32    6     -1.50      0.00
  -13   32    6      4.77      0.00
  -10   32    6     -4.90      0.00
   -7   32    6     -1.59      0.00
   -4   32    6     -0.19      0.00
   -1   32    6     -4.87      0.00
    2   32    6      0.91      0.00
    5   32    6      3.23      0.00
    8   32    6      1.03      0.00
   11   32    6     -0.20      0.00
  -45   33    6      0.22      0.00
  -42   33    6     -3.56      0.00
  -39   33    6      0.04      0.00
  -36   33    6      1.10      0.00
  -33   33    6     -0.37      0.00
  -30   33    6     -4.13      0.00
  -27   33    6     -1.00      0.00
  -24   33    6      1.56      0.00
  -21   33    6     -3.69      0.00
  -18   33    6      2.04      0.00
  -15   33    6      4.39      0.00
  -12   33    6     -4.98      0.00
   -9   33    6      0.77      0.00
   -6   33    6     -1.55      0.00
   -3   33    6     -3.70      0.00
    0   33    6     -1.04      0.00
    3   33    6      2.41      0.00
    6   33    6      1.00      0.00
    9   33    6      2.26      0.00
  -44   34    6     -1.75      0.00
  -41   34    6      0.57      0.00
  -38   34    6     -3.54      0.00
  -35   34    6     -1.56      0.00
  -32   34    6     -2.83      0.00
  -29   34    6      1.45      0.00
  -26   34    6     -8.19      0.00
  -23   34    6     -1.78      0.00
  -20   34    6      3.88      0.00
  -17   34    6     -5.76      0.00
  -14   34    6      1.59      0.00
  -11   34    6      3.27      0.00
   -8   34    6     -3.52      0.00
   -5   34    6     -2.89      0.00
   -2   34    6      0.07      0.00
    1   34    6     -0.78      0.00
    4   34    6      1.45      0.00
    7   34    6     -1.21      0.00
   10   34    6      0.12      0.00
  -43   35    6     -0.11      0.00
  -40   35    6     -4.13      0.00
  -37   35    6     -1.46      0.00
  -34   35    6      0.53      0.00
  -31   35    6     -2.08      0.00
  -28   35    6     -6.21      0.00
  -25   35    6     -0.76      0.00
  -22   35    6     -3.11      0.00
  -19   35    6     -1.76      0.00
  -16   35    6      4.24      0.00
  -13   35    6     -4.64      0.00
  -10   35    6      1.58      0.00
   -7   35    6     -1.12      0.00
   -4   35    6     -2.52      0.00
   -1   35    6     -0.79      0.00
    2   35    6      1.24      0.00
    5   35    6     -1.67      0.00
    8   35    6     -1.86      0.00
  -42   36    6     -0.55      0.00
  -39   36    6     -4.54      0.00
  -36   36    6      2.18      0.00
  -33   36    6     -3.18      0.00
  -30   36    6      0.73      0.00
  -27   36    6     -1.45      0.00
  -24   36    6     -3.25      0.00
  -21   36    6      2.39      0.00
  -18   36    6     -0.32      0.00
  -15   36    6     -3.04      0.00
  -12   36    6      3.60      0.00
   -9   36    6     -0.60      0.00
   -6   36    6     -3.67      0.00
   -3   36    6      1.92      0.00
    0   36    6     -1.34      0.00
    3   36    6     -0.41      0.00
    6   36    6     -0.42      0.00
  -44   37    6      2.74      0.00
  -41   37    6     -2.29      0.00
  -38   37    6     -0.62      0.00
  -35   37    6      0.94      0.00
  -32   37    6      1.62      0.00
  -29   37    6     -0.82      0.00
  -26   37    6     -3.05      0.00
  -23   37    6      4.38      0.00
  -20   37    6     -0.76      0.00
  -17   37    6     -3.01      0.00
  -14   37    6     -2.21      0.00
  -11   37    6      1.80      0.00
   -8   37    6     -2.15      0.00
   -5   37    6      0.70      0.00
   -2   37    6      2.00      0.00
    1   37    6      1.15      0.00
    4   37    6      1.71      0.00
    7   37    6     -1.84      0.00
  -43   38    6     -2.14      0.00
  -40   38    6      0.03      0.00
  -37   38    6      4.03      0.00
  -34   38    6      1.40      0.00
  -31   38    6     -1.58      0.00
  -28   38    6     -0.55      0.00
  -25   38    6      0.91      0.00
  -22   38    6     -1.62      0.00
  -19   38    6     -1.28      0.00
  -16   38    6     -3.55      0.00
  -13   38    6     -5.09      0.00
  -10   38    6      0.23      0.00
   -7   38    6      0.19      0.00
   -4   38    6      0.39      0.00
   -1   38    6      1.81      0.00
    2   38    6      3.18      0.00
    5   38    6      3.94      0.00
  -42   39    6      0.96      0.00
  -39   39    6      0.36      0.00
  -36   39    6      1.76      0.00
  -33   39    6      0.67      0.00
  -30   39    6      1.27      0.00
  -27   39    6     -4.36      0.00
  -24   39    6      3.09      0.00
  -21   39    6     -1.72      0.00
  -18   39    6     -4.16      0.00
  -15   39    6     -2.48      0.00
  -12   39    6     -0.15      0.00
   -9   39    6     -2.78      0.00
   -6   39    6      1.25      0.00
   -3   39    6      1.89      0.00
    0   39    6      0.31      0.00
    3   39    6      3.93      0.00
  -41   40    6      0.39      0.00
  -38   40    6     -1.19      0.00
  -35   40    6      2.28      0.00
  -32   40    6      0.49      0.00
  -29   40    6     -2.64      0.00
  -26   40    6      2.46      0.00
  -23   40    6      0.07      0.00
  -20   40    6      0.09      0.00
  -17   40    6      3.78      0.00
  -14   40    6     -2.48      0.00
  -11   40    6      0.44      0.00
   -8   40    6      2.41      0.00
   -5   40    6     -1.58      0.00
   -2   40    6      2.25      0.00
    1   40    6      0.62      0.00
  -40   41    6     -1.19      0.00
  -37   41    6      0.69      0.00
  -34   41    6     -2.19      0.00
  -31   41    6      0.59      0.00
  -28   41    6      1.26      0.00
  -25   41    6      1.81      0.00
  -22   41    6      0.09      0.00
  -19   41    6      4.37      0.00
  -16   41    6      2.83      0.00
  -13   41    6      1.12      0.00
  -10   41    6      1.51      0.00
   -7   41    6      2.08      0.00
   -4   41    6      0.27      0.00
   -1   41    6     -1.83      0.00
  -39   42    6     -0.65      0.00
  -36   42    6      0.42      0.00
  -33   42    6     -1.01      0.00
  -30   42    6     -0.60      0.00
  -27   42    6      0.53      0.00
  -24   42    6      1.62      0.00
  -21   42    6     -0.05      0.00
  -18   42    6      0.68      0.00
  -15   42    6      1.24      0.00
  -12   42    6      0.39      0.00
   -9   42    6      0.91      0.00
   -6   42    6      0.71      0.00
   -3   42    6      1.84      0.00
  -38   43    6      1.86      0.00
  -35   43    6     -2.31      0.00
  -32   43    6     -2.53      0.00
  -29   43    6      0.14      0.00
  -26   43    6     -0.22      0.00
  -23   43    6     -1.60      0.00
  -20   43    6     -0.70      0.00
  -17   43    6     -1.39      0.00
  -14   43    6     -2.55      0.00
  -11   43    6     -0.33      0.00
   -8   43    6      0.65      0.00
   -5   43    6      0.03      0.00
  -37   44    6     -1.33      0.00
  -31   44    6      0.46      0.00
  -28   44    6     -2.18      0.00
  -25   44    6      1.29      0.00
  -22   44    6     -1.34      0.00
  -19   44    6     -2.19      0.00
  -16   44    6     -0.45      0.00
  -13   44    6      0.19      0.00
  -10   44    6     -0.69      0.00
   -7   44    6      1.25      0.00
  -33   45    6     -2.94      0.00
  -30   45    6     -0.36      0.00
  -27   45    6      2.01      0.00
  -24   45    6     -0.47      0.00
  -21   45    6     -0.43      0.00
  -18   45    6      0.34      0.00
  -15   45    6      3.96      0.00
  -12   45    6      0.39      0.00
   -9   45    6      1.66      0.00
  -20   46    6      2.68      0.00
  -17   46    6      1.08      0.00
   -1    1    7      5.44      0.00
   -3    2    7      3.04      0.00
    0    2    7      5.83      0.00
   -5    3    7     -8.24      0.00
   -2    3    7      8.58      0.00
    1    3    7     -1.05      0.00
   -7    4    7    -10.60      0.00
   -4    4    7     -4.94      0.00
   -1    4    7     -5.34      0.00
    2    4    7     -6.74      0.00
   -9    5    7      5.31      0.00
   -6    5    7    -11.69      0.00
   -3    5    7      1.49      0.00
    0    5    7     -9.30      0.00
    3    5    7     -2.27      0.00
  -11    6    7      4.32      0.00
   -8    6    7      3.55      0.00
   -5    6    7      3.51      0.00
   -2    6    7      1.10      0.00
    1    6    7      1.14      0.00
    4    6    7      3.57      0.00
  -13    7    7      2.93      0.00
  -10    7    7      0.86      0.00
   -7    7    7      0.65      0.00
   -4    7    7      3.92      0.00
   -1    7    7     -3.86      0.00
    2    7    7     12.82      0.00
    5    7    7      9.80      0.00
  -15    8    7     -4.48      0.00
  -12    8    7     -3.06      0.00
   -9    8    7     -3.75      0.00
   -6    8    7     -8.95      0.00
   -3    8    7      3.88      0.00
    0    8    7     -1.17      0.00
    3    8    7     -2.30      0.00
    6    8    7      5.44      0.00
  -17    9    7      3.80      0.00
  -14    9    7      1.89      0.00
  -11    9    7     -6.33      0.00
   -8    9    7      1.98      0.00
   -5    9    7     -3.35      0.00
   -2    9    7     -7.19      0.00
    1    9    7      2.44      0.00
    4    9    7     -0.91      0.00
    7    9    7     -9.49      0.00
  -19   10    7      0.41      0.00
  -16   10    7      1.68      0.00
  -13   10    7      8.25      0.00
  -10   10    7      5.37      0.00
   -7   10    7     -1.51      0.00
   -4   10    7     11.41      0.00
   -1   10    7     -0.28      0.00
    2   10    7     -0.86      0.00
    5   10    7     -1.81      0.00
    8   10    7     -0.83      0.00
  -21   11    7     -9.65      0.00
  -18   11    7     -1.61      0.00
  -15   11    7     -0.60      0.00
  -12   11    7      2.69      0.00
   -9   11    7      4.66      0.00
   -6   11    7      4.70      0.00
   -3   11    7     13.72      0.00
    0   11    7      4.07      0.00
    3   11    7     -1.67      0.00
    6   11    7      1.51      0.00
    9   11    7      2.22      0.00
  -23   12    7     -4.25      0.00
  -20   12    7     -7.14      0.00
  -17   12    7     -4.19      0.00
  -14   12    7     -8.89      0.00
  -11   12    7     -4.73      0.00
   -8   12    7     -0.12      0.00
   -5   12    7     -0.17      0.00
   -2   12    7     -1.53      0.00
    1   12    7     10.00      0.00
    4   12    7     -3.59      0.00
    7   12    7      1.75      0.00
   10   12    7      3.59      0.00
  -25   13    7      0.83      0.00
  -22   13    7      3.86      0.00
  -19   13    7     -3.85      0.00
  -16   13    7     -6.36      0.00
  -13   13    7      0.04      0.00
  -10   13    7    -12.40      0.00
   -7   13    7    -10.86      0.00
   -4   13    7      4.68      0.00
   -1   13    7     -7.76      0.00
    2   13    7     -7.37      0.00
    5   13    7      7.98      0.00
    8   13    7      2.53      0.00
   11   13    7     -1.85      0.00
  -27   14    7      5.29      0.00
  -24   14    7      4.13      0.00
  -21   14    7      5.74      0.00
  -18   14    7      6.29      0.00
  -15   14    7     -6.83      0.00
  -12   14    7      0.92      0.00
   -9   14    7      5.24      0.00
   -6   14    7     -8.39      0.00
   -3   14    7     -5.23      0.00
    0   14    7      6.66      0.00
    3   14    7     -5.10      0.00
    6   14    7     -2.46      0.00
    9   14    7      7.33      0.00
   12   14    7     -0.57      0.00
  -29   15    7     -1.25      0.00
  -26   15    7     -2.38      0.00
  -23   15    7      7.38      0.00
  -20   15    7      0.54      0.00
  -17   15    7     -0.12      0.00
  -14   15    7      5.46      0.00
  -11   15    7      4.72      0.00
   -8   15    7      5.02      0.00
   -5   15    7      4.86      0.00
   -2   15    7     -0.45      0.00
    1   15    7      1.91      0.00
    4   15    7      4.65      0.00
    7   15    7     -3.33      0.00
   10   15    7     -2.51      0.00
   13   15    7      5.86      0.00
  -31   16    7     -1.03      0.00
  -28   16    7      0.44      0.00
  -25   16    7     -1.91      0.00
  -22   16    7      0.00      0.00
  -19   16    7     -4.01      0.00
  -16   16    7     -0.86      0.00
  -13   16    7      6.76      0.00
  -10   16    7      1.41      0.00
   -7   16    7      3.05      0.00
   -4   16    7      5.29      0.00
   -1   16    7     -0.18      0.00
    2   16    7      2.75      0.00
    5   16    7     -2.97      0.00
    8   16    7     -2.82      0.00
   11   16    7     -0.15      0.00
   14   16    7      1.68      0.00
  -33   17    7      0.75      0.00
  -30   17    7      0.02      0.00
  -27   17    7     -0.83      0.00
  -24   17    7      0.84      0.00
  -21   17    7      2.20      0.00
  -18   17    7     -1.04      0.00
  -15   17    7     -5.96      0.00
  -12   17    7      5.39      0.00
   -9   17    7      3.07      0.00
   -6   17    7     -7.96      0.00
   -3   17    7      1.28      0.00
    0   17    7      4.57      0.00
    3   17    7     -5.92      0.00
    6   17    7     -4.67      0.00
    9   17    7     -2.62      0.00
   12   17    7     -1.38      0.00
   15   17    7      3.87      0.00
  -35   18    7      2.15      0.00
  -32   18    7      1.28      0.00
  -29   18    7      0.08      0.00
  -26   18    7      2.54      0.00
  -23   18    7      4.83      0.00
  -20   18    7     -4.43      0.00
  -17   18    7      7.51      0.00
  -14   18    7      5.12      0.00
  -11   18    7    -10.13      0.00
   -8   18    7      5.23      0.00
   -5   18    7      5.44      0.00
   -2   18    7     -9.72      0.00
    1   18    7      2.69      0.00
    4   18    7     -0.21      0.00
    7   18    7     -6.22      0.00
   10   18    7     -1.44      0.00
   13   18    7     -0.34      0.00
   16   18    7     -0.39      0.00
  -37   19    7      3.81      0.00
  -34   19    7     -4.57      0.00
  -31   19    7      1.88      0.00
  -28   19    7     -1.43      0.00
  -25   19    7     -1.82      0.00
  -22   19    7      4.89      0.00
  -19   19    7      2.95      0.00
  -16   19    7     -2.79      0.00
  -13   19    7      6.98      0.00
  -10   19    7      2.16      0.00
   -7   19    7     -4.63      0.00
   -4   19    7      6.40      0.00
   -1   19    7      4.30      0.00
    2   19    7     -4.30      0.00
    5   19    7      2.32      0.00
    8   19    7      1.99      0.00
   11   19    7     -5.43      0.00
   14   19    7     -0.45      0.00
   17   19    7      2.19      0.00
  -39   20    7     -1.47      0.00
  -36   20    7      1.12      0.00
  -33   20    7      0.84      0.00
  -30   20    7     -6.02      0.00
  -27   20    7     -2.90      0.00
  -24   20    7      0.74      0.00
  -21   20    7     -1.05      0.00
  -18   20    7      1.33      0.00
  -15   20    7     -0.36      0.00
  -12   20    7     -2.22      0.00
   -9   20    7      1.96      0.00
   -6   20    7      0.09      0.00
   -3   20    7     -2.65      0.00
    0   20    7      2.98      0.00
    3   20    7      4.56      0.00
    6   20    7      3.51      0.00
    9   20    7     -0.22      0.00
   12   20    7     -0.65      0.00
   15   20    7     -0.67      0.00
   18   20    7     -1.31      0.00
  -41   21    7     -0.53      0.00
  -38   21    7     -0.99      0.00
  -35   21    7     -1.67      0.00
  -32   21    7      1.75      0.00
  -29   21    7     -1.28      0.00
  -26   21    7     -1.59      0.00
  -23   21    7     -0.42      0.00
  -20   21    7     -1.01      0.00
  -17   21    7     -0.05      0.00
  -14   21    7     -2.46      0.00
  -11   21    7     -6.39      0.00
   -8   21    7     -0.74      0.00
   -5   21    7     -2.93      0.00
   -2   21    7     -5.61      0.00
    1   21    7      1.51      0.00
    4   21    7      3.74      0.00
    7   21    7      3.27      0.00
   10   21    7      1.71      0.00
   13   21    7     -0.06      0.00
   16   21    7      0.12      0.00
   19   21    7     -0.38      0.00
  -43   22    7     -0.70      0.00
  -40   22    7      0.80      0.00
  -37   22    7      1.00      0.00
  -34   22    7      0.75      0.00
  -31   22    7      1.73      0.00
  -28   22    7     -0.79      0.00
  -25   22    7      2.04      0.00
  -22   22    7      5.65      0.00
  -19   22    7     -4.96      0.00
  -16   22    7     -4.99      0.00
  -13   22    7      5.68      0.00
  -10   22    7     -5.49      0.00
   -7   22    7     -8.74      0.00
   -4   22    7      3.14      0.00
   -1   22    7     -4.71      0.00
    2   22    7     -2.34      0.00
    5   22    7      4.99      0.00
    8   22    7     -0.73      0.00
   11   22    7      1.41      0.00
   14   22    7      3.61      0.00
   17   22    7     -1.52      0.00
   20   22    7     -0.50      0.00
  -45   23    7      1.71      0.00
  -42   23    7     -0.46      0.00
  -39   23    7     -0.29      0.00
  -36   23    7      2.89      0.00
  -33   23    7      1.42      0.00
  -30   23    7      0.17      0.00
  -27   23    7      2.54      0.00
  -24   23    7     -0.50      0.00
  -21   23    7     -1.06      0.00
  -18   23    7      5.70      0.00
  -15   23    7     -3.58      0.00
  -12   23    7     -4.00      0.00
   -9   23    7      9.00      0.00
   -6   23    7     -2.84      0.00
   -3   23    7     -3.95      0.00
    0   23    7      4.06      0.00
    3   23    7     -1.50      0.00
    6   23    7     -1.65      0.00
    9   23    7      2.71      0.00
   12   23    7      0.09      0.00
   15   23    7     -0.22      0.00
   18   23    7      0.58      0.00
   21   23    7      1.02      0.00
  -44   24    7     -0.98      0.00
  -41   24    7      1.05      0.00
  -38   24    7      1.20      0.00
  -35   24    7     -0.10      0.00
  -32   24    7      2.61      0.00
  -29   24    7     -3.21      0.00
  -26   24    7     -0.12      0.00
  -23   24    7      0.87      0.00
  -20   24    7      0.21      0.00
  -17   24    7     -1.76      0.00
  -14   24    7      5.22      0.00
  -11   24    7      1.51      0.00
   -8   24    7     -1.30      0.00
   -5   24    7     10.04      0.00
   -2   24    7     -1.00      0.00
    1   24    7     -1.46      0.00
    4   24    7      0.85      0.00
    7   24    7     -1.84      0.00
   10   24    7     -1.46      0.00
   13   24    7      1.68      0.00
   16   24    7     -1.16      0.00
   19   24    7     -1.24      0.00
  -43   25    7     -3.73      0.00
  -40   25    7      3.07      0.00
  -37   25    7      2.09      0.00
  -34   25    7      1.07      0.00
  -31   25    7     -3.02      0.00
  -28   25    7     -0.71      0.00
  -25   25    7     -0.65      0.00
  -22   25    7     -1.10      0.00
  -19   25    7      1.44      0.00
  -16   25    7      0.04      0.00
  -13   25    7      0.57      0.00
  -10   25    7      5.79      0.00
   -7   25    7     -0.26      0.00
   -4   25    7      2.02      0.00
   -1   25    7      2.74      0.00
    2   25    7     -0.54      0.00
    5   25    7     -1.27      0.00
    8   25    7     -2.55      0.00
   11   25    7     -1.50      0.00
   14   25    7     -0.97      0.00
   17   25    7     -0.37      0.00
   20   25    7     -0.90      0.00
  -45   26    7     -0.53      0.00
  -42   26    7      0.84      0.00
  -39   26    7     -0.91      0.00
  -36   26    7      3.72      0.00
  -33   26    7      1.37      0.00
  -30   26    7     -1.26      0.00
  -27   26    7     -0.51      0.00
  -24   26    7     -4.46      0.00
  -21   26    7      4.71      0.00
  -18   26    7     -1.14      0.00
  -15   26    7     -4.62      0.00
  -12   26    7      3.98      0.00
   -9   26    7      1.65      0.00
   -6   26    7     -1.06      0.00
   -3   26    7     -0.21      0.00
    0   26    7      3.17      0.00
    3   26    7     -1.86      0.00
    6   26    7     -0.34      0.00
    9   26    7     -2.07      0.00
   12   26    7     -1.57      0.00
   15   26    7     -0.13      0.00
   18   26    7      0.05      0.00
  -44   27    7     -0.51      0.00
  -41   27    7      2.29      0.00
  -38   27    7      2.23      0.00
  -35   27    7      1.97      0.00
  -32   27    7      1.70      0.00
  -29   27    7     -1.23      0.00
  -26   27    7      0.62      0.00
  -23   27    7      1.46      0.00
  -20   27    7     -5.56      0.00
  -17   27    7      1.25      0.00
  -14   27    7      0.37      0.00
  -11   27    7     -1.66      0.00
   -8   27    7     -0.40      0.00
   -5   27    7      2.28      0.00
   -2   27    7     -0.84      0.00
    1   27    7      2.13      0.00
    4   27    7      2.28      0.00
    7   27    7     -2.49      0.00
   10   27    7      0.16      0.00
   13   27    7     -1.49      0.00
   16   27    7      1.05      0.00
  -43   28    7      1.40      0.00
  -40   28    7     -0.71      0.00
  -37   28    7      2.64      0.00
  -34   28    7      2.26      0.00
  -31   28    7      1.04      0.00
  -28   28    7     -0.40      0.00
  -25   28    7     -1.95      0.00
  -22   28    7      1.82      0.00
  -19   28    7      0.91      0.00
  -16   28    7     -4.20      0.00
  -13   28    7      0.92      0.00
  -10   28    7      4.57      0.00
   -7   28    7     -4.08      0.00
   -4   28    7      2.03      0.00
   -1   28    7      5.78      0.00
    2   28    7      0.22      0.00
    5   28    7      0.98      0.00
    8   28    7      1.45      0.00
   11   28    7     -2.18      0.00
   14   28    7     -0.21      0.00
   17   28    7      0.11      0.00
  -42   29    7     -1.70      0.00
  -39   29    7      0.54      0.00
  -36   29    7     -1.73      0.00
  -33   29    7      3.25      0.00
  -30   29    7     -2.22      0.00
  -27   29    7     -2.74      0.00
  -24   29    7      2.41      0.00
  -21   29    7     -1.69      0.00
  -18   29    7      1.90      0.00
  -15   29    7     -0.80      0.00
  -12   29    7      1.01      0.00
   -9   29    7      0.39      0.00
   -6   29    7      3.38      0.00
   -3   29    7      0.95      0.00
    0   29    7      1.72      0.00
    3   29    7      0.82      0.00
    6   29    7      0.23      0.00
    9   29    7      1.04      0.00
   12   29    7     -0.59      0.00
   15   29    7     -0.41      0.00
  -44   30    7     -1.36      0.00
  -41   30    7      0.76      0.00
  -38   30    7     -3.02      0.00
  -35   30    7     -0.15      0.00
  -32   30    7     -0.79      0.00
  -29   30    7     -2.20      0.00
  -26   30    7      0.11      0.00
  -23   30    7     -3.14      0.00
  -20   30    7      0.11      0.00
  -17   30    7      2.05      0.00
  -14   30    7     -2.43      0.00
  -11   30    7      2.96      0.00
   -8   30    7      1.15      0.00
   -5   30    7     -0.79      0.00
   -2   30    7     -0.53      0.00
    1   30    7     -0.05      0.00
    4   30    7     -2.24      0.00
    7   30    7      1.34      0.00
   10   30    7      1.15      0.00
   13   30    7      2.17      0.00
  -43   31    7      1.06      0.00
  -40   31    7     -2.30      0.00
  -37   31    7     -2.60      0.00
  -34   31    7      2.04      0.00
  -31   31    7      0.16      0.00
  -28   31    7     -3.54      0.00
  -25   31    7      0.79      0.00
  -22   31    7      0.93      0.00
  -19   31    7     -0.44      0.00
  -16   31    7     -3.26      0.00
  -13   31    7      3.20      0.00
  -10   31    7     -0.62      0.00
   -7   31    7      0.00      0.00
   -4   31    7      0.04      0.00
   -1   31    7     -2.75      0.00
    2   31    7     -3.22      0.00
    5   31    7     -0.91      0.00
    8   31    7      1.13      0.00
   11   31    7      5.23      0.00
  -42   32    7      1.35      0.00
  -39   32    7     -1.95      0.00
  -36   32    7     -1.13      0.00
  -33   32    7      2.91      0.00
  -30   32    7      0.30      0.00
  -27   32    7      4.21      0.00
  -24   32    7      1.02      0.00
  -21   32    7     -0.78      0.00
  -18   32    7      3.06      0.00
  -15   32    7     -1.42      0.00
  -12   32    7     -0.46      0.00
   -9   32    7      3.03      0.00
   -6   32    7     -0.71      0.00
   -3   32    7     -1.76      0.00
    0   32    7      0.38      0.00
    3   32    7     -3.47      0.00
    6   32    7     -1.11      0.00
    9   32    7      3.77      0.00
  -41   33    7     -4.06      0.00
  -38   33    7     -1.09      0.00
  -35   33    7      0.54      0.00
  -32   33    7      2.85      0.00
  -29   33    7      2.79      0.00
  -26   33    7      4.37      0.00
  -23   33    7      1.85      0.00
  -20   33    7      1.97      0.00
  -17   33    7     -0.95      0.00
  -14   33    7      2.32      0.00
  -11   33    7      1.30      0.00
   -8   33    7     -0.45      0.00
   -5   33    7      2.22      0.00
   -2   33    7      0.04      0.00
    1   33    7     -0.82      0.00
    4   33    7     -2.97      0.00
    7   33    7      0.25      0.00
   10   33    7      3.55      0.00
  -43   34    7     -0.80      0.00
  -40   34    7     -1.10      0.00
  -37   34    7     -1.99      0.00
  -34   34    7      2.06      0.00
  -31   34    7     -1.89      0.00
  -28   34    7      2.73      0.00
  -25   34    7      2.89      0.00
  -22   34    7      1.53      0.00
  -19   34    7     -1.06      0.00
  -16   34    7      0.18      0.00
  -13   34    7      0.53      0.00
  -10   34    7     -0.86      0.00
   -7   34    7      1.49      0.00
   -4   34    7      0.87      0.00
   -1   34    7      0.12      0.00
    2   34    7     -2.19      0.00
    5   34    7     -0.87      0.00
    8   34    7      2.07      0.00
  -42   35    7     -2.24      0.00
  -39   35    7      1.64      0.00
  -36   35    7     -1.27      0.00
  -33   35    7     -1.49      0.00
  -30   35    7      0.22      0.00
  -27   35    7      0.96      0.00
  -24   35    7     -1.02      0.00
  -21   35    7     -0.67      0.00
  -18   35    7     -0.82      0.00
  -15   35    7     -1.31      0.00
  -12   35    7     -0.34      0.00
   -9   35    7     -1.91      0.00
   -6   35    7     -0.95      0.00
   -3   35    7     -0.48      0.00
    0   35    7     -0.70      0.00
    3   35    7      0.09      0.00
    6   35    7      3.13      0.00
  -41   36    7      0.50      0.00
  -38   36    7      0.41      0.00
  -35   36    7      0.32      0.00
  -32   36    7     -0.91      0.00
  -29   36    7     -1.84      0.00
  -26   36    7     -0.32      0.00
  -23   36    7      2.81      0.00
  -20   36    7     -3.05      0.00
  -17   36    7     -1.77      0.00
  -14   36    7      1.32      0.00
  -11   36    7     -4.02      0.00
   -8   36    7     -1.41      0.00
   -5   36    7      0.16      0.00
   -2   36    7     -1.68      0.00
    1   36    7      0.31      0.00
    4   36    7      3.10      0.00
  -40   37    7      1.85      0.00
  -37   37    7      0.91      0.00
  -34   37    7     -1.38      0.00
  -31   37    7     -1.57      0.00
  -28   37    7      0.21      0.00
  -25   37    7      1.03      0.00
  -22   37    7     -1.73      0.00
  -19   37    7      1.59      0.00
  -16   37    7     -0.71      0.00
  -13   37    7     -1.40      0.00
  -10   37    7     -1.52      0.00
   -7   37    7     -2.22      0.00
   -4   37    7      0.04      0.00
   -1   37    7     -0.28      0.00
    2   37    7      2.87      0.00
  -39   38    7     -1.09      0.00
  -36   38    7     -1.93      0.00
  -33   38    7      1.73      0.00
  -30   38    7     -2.17      0.00
  -27   38    7     -0.61      0.00
  -24   38    7     -0.30      0.00
  -21   38    7      0.22      0.00
  -18   38    7     -0.70      0.00
  -15   38    7      2.16      0.00
  -12   38    7     -0.98      0.00
   -9   38    7     -3.52      0.00
   -6   38    7     -0.13      0.00
   -3   38    7     -1.74      0.00
    0   38    7      1.56      0.00
  -38   39    7      1.38      0.00
  -35   39    7     -3.27      0.00
  -32   39    7     -2.05      0.00
  -29   39    7     -1.28      0.00
  -26   39    7     -0.06      0.00
  -23   39    7      0.21      0.00
  -20   39    7      1.85      0.00
  -17   39    7      0.12      0.00
  -14   39    7      1.36      0.00
  -11   39    7     -0.15      0.00
   -8   39    7     -2.57      0.00
   -5   39    7     -1.13      0.00
   -2   39    7      0.82      0.00
  -37   40    7     -2.69      0.00
  -34   40    7     -1.15      0.00
  -31   40    7     -1.21      0.00
  -28   40    7      0.33      0.00
  -25   40    7     -1.03      0.00
  -22   40    7      3.77      0.00
  -19   40    7      2.63      0.00
  -16   40    7      2.36      0.00
  -13   40    7      1.82      0.00
  -10   40    7     -0.08      0.00
   -7   40    7     -0.23      0.00
   -4   40    7     -1.22      0.00
  -36   41    7     -4.33      0.00
  -30   41    7     -0.68      0.00
  -27   41    7      0.10      0.00
  -24   41    7      4.95      0.00
  -21   41    7      2.01      0.00
  -18   41    7      0.93      0.00
  -15   41    7      5.11      0.00
  -12   41    7      1.97      0.00
   -9   41    7      0.42      0.00
   -6   41    7      0.76      0.00
  -32   42    7      2.84      0.00
  -29   42    7      2.32      0.00
  -26   42    7      1.11      0.00
  -20   42    7      1.28      0.00
  -17   42    7      1.29      0.00
  -14   42    7      0.12      0.00
  -11   42    7      2.67      0.00
   -8   42    7      0.52      0.00
  -25   43    7      1.17      0.00
  -19   43    7     -1.90      0.00
  -16   43    7      1.24      0.00
  -13   43    7     -2.84      0.00
  -10   43    7     -0.52      0.00
  -24   44    7      0.57      0.00
  -21   44    7     -1.26      0.00
  -18   44    7      0.63      0.00
  -15   44    7     -3.21      0.00
    0    1    8    -17.18      0.00
   -2    2    8      9.60      0.00
    1    2    8      6.92      0.00
   -4    3    8     -9.97      0.00
   -1    3    8      9.19      0.00
    2    3    8      5.55      0.00
   -6    4    8     -7.65      0.00
   -3    4    8     -0.28      0.00
    0    4    8    -23.44      0.00
    3    4    8      3.89      0.00
   -8    5    8     -1.08      0.00
   -5    5    8    -25.82      0.00
   -2    5    8     10.17      0.00
    1    5    8     -0.44      0.00
    4    5    8    -28.12      0.00
  -10    6    8      2.64      0.00
   -7    6    8     17.31      0.00
   -4    6    8      5.82      0.00
   -1    6    8     -4.97      0.00
    2    6    8     16.06      0.00
    5    6    8      2.06      0.00
  -12    7    8      7.98      0.00
   -9    7    8      3.26      0.00
   -6    7    8      7.90      0.00
   -3    7    8     19.03      0.00
    0    7    8      5.24      0.00
    3    7    8     -1.99      0.00
    6    7    8     12.91      0.00
  -14    8    8    -18.76      0.00
  -11    8    8      3.95      0.00
   -8    8    8     -5.25      0.00
   -5    8    8    -16.57      0.00
   -2    8    8      9.07      0.00
    1    8    8      0.94      0.00
    4    8    8     -3.61      0.00
    7    8    8      4.31      0.00
  -16    9    8      0.28      0.00
  -13    9    8     -9.16      0.00
  -10    9    8    -15.79      0.00
   -7    9    8      2.69      0.00
   -4    9    8    -19.36      0.00
   -1    9    8    -17.33      0.00
    2    9    8      7.08      0.00
    5    9    8     -3.88      0.00
    8    9    8     -2.54      0.00
  -18   10    8      3.01      0.00
  -15   10    8     -1.34      0.00
  -12   10    8     16.96      0.00
   -9   10    8     -8.25      0.00
   -6   10    8     -8.28      0.00
   -3   10    8     14.30      0.00
    0   10    8    -16.01      0.00
    3   10    8     -7.86      0.00
    6   10    8     16.54      0.00
    9   10    8     -5.47      0.00
  -20   11    8      2.52      0.00
  -17   11    8      5.99      0.00
  -14   11    8      1.52      0.00
  -11   11    8     10.56      0.00
   -8   11    8     15.02      0.00
   -5   11    8     -6.22      0.00
   -2   11    8      5.35      0.00
    1   11    8     16.45      0.00
    4   11    8     -3.98      0.00
    7   11    8      2.54      0.00
   10   11    8      6.48      0.00
  -22   12    8     -3.21      0.00
  -19   12    8     -6.04      0.00
  -16   12    8      3.94      0.00
  -13   12    8     -3.02      0.00
  -10   12    8     -8.91      0.00
   -7   12    8      6.22      0.00
   -4   12    8      6.91      0.00
   -1   12    8     -5.30      0.00
    2   12    8      4.90      0.00
    5   12    8     12.65      0.00
    8   12    8     -4.85      0.00
   11   12    8      0.94      0.00
  -24   13    8     -1.26      0.00
  -21   13    8     -0.34      0.00
  -18   13    8     -7.32      0.00
  -15   13    8     -7.47      0.00
  -12   13    8      0.03      0.00
   -9   13    8    -18.52      0.00
   -6   13    8     -6.05      0.00
   -3   13    8      4.76      0.00
    0   13    8     -8.50      0.00
    3   13    8     -4.12      0.00
    6   13    8      3.35      0.00
    9   13    8     -2.08      0.00
   12   13    8     -3.05      0.00
  -26   14    8      5.99      0.00
  -23   14    8     -0.91      0.00
  -20   14    8      1.61      0.00
  -17   14    8      6.00      0.00
  -14   14    8    -10.25      0.00
  -11   14    8      0.74      0.00
   -8   14    8      4.65      0.00
   -5   14    8    -10.97      0.00
   -2   14    8      0.08      0.00
    1   14    8      0.31      0.00
    4   14    8    -12.03      0.00
    7   14    8     -2.07      0.00
   10   14    8     -1.24      0.00
   13   14    8     -1.76      0.00
  -28   15    8      2.60      0.00
  -25   15    8      2.20      0.00
  -22   15    8      3.33      0.00
  -19   15    8     -0.12      0.00
  -16   15    8      8.05      0.00
  -13   15    8      8.64      0.00
  -10   15    8     -4.80      0.00
   -7   15    8     19.01      0.00
   -4   15    8     11.41      0.00
   -1   15    8    -10.89      0.00
    2   15    8      0.80      0.00
    5   15    8     -0.38      0.00
    8   15    8     -6.65      0.00
   11   15    8     -0.51      0.00
   14   15    8      0.78      0.00
  -30   16    8     -2.70      0.00
  -27   16    8     -0.26      0.00
  -24   16    8     -0.22      0.00
  -21   16    8      2.76      0.00
  -18   16    8     -3.86      0.00
  -15   16    8     -1.95      0.00
  -12   16    8     13.03      0.00
   -9   16    8      6.03      0.00
   -6   16    8      1.72      0.00
   -3   16    8     12.72      0.00
    0   16    8      4.88      0.00
    3   16    8    -13.58      0.00
    6   16    8      6.68      0.00
    9   16    8     -0.21      0.00
   12   16    8     -1.30      0.00
   15   16    8      3.46      0.00
  -32   17    8     -0.79      0.00
  -29   17    8     -1.70      0.00
  -26   17    8     -1.32      0.00
  -23   17    8     -3.42      0.00
  -20   17    8     -1.37      0.00
  -17   17    8     -1.56      0.00
  -14   17    8     -8.65      0.00
  -11   17    8     -0.09      0.00
   -8   17    8      4.83      0.00
   -5   17    8     -5.74      0.00
   -2   17    8     -1.00      0.00
    1   17    8      3.26      0.00
    4   17    8     -2.64      0.00
    7   17    8     -0.65      0.00
   10   17    8      3.57      0.00
   13   17    8      0.51      0.00
   16   17    8      2.34      0.00
  -34   18    8      2.92      0.00
  -31   18    8     -0.17      0.00
  -28   18    8     -2.44      0.00
  -25   18    8      4.49      0.00
  -22   18    8      2.35      0.00
  -19   18    8     -7.97      0.00
  -16   18    8      1.96      0.00
  -13   18    8     -0.58      0.00
  -10   18    8    -10.96      0.00
   -7   18    8     -1.27      0.00
   -4   18    8     -3.59      0.00
   -1   18    8     -3.35      0.00
    2   18    8     -3.64      0.00
    5   18    8      5.40      0.00
    8   18    8     -2.01      0.00
   11   18    8     -0.68      0.00
   14   18    8      1.31      0.00
   17   18    8      2.92      0.00
  -36   19    8      4.13      0.00
  -33   19    8     -2.59      0.00
  -30   19    8      0.45      0.00
  -27   19    8      3.54      0.00
  -24   19    8      2.45      0.00
  -21   19    8      5.36      0.00
  -18   19    8     -0.21      0.00
  -15   19    8     -1.66      0.00
  -12   19    8     11.38      0.00
   -9   19    8     -5.42      0.00
   -6   19    8     -6.34      0.00
   -3   19    8      6.38      0.00
    0   19    8     -0.55      0.00
    3   19    8     -3.92      0.00
    6   19    8      3.75      0.00
    9   19    8      0.82      0.00
   12   19    8     -1.46      0.00
   15   19    8     -1.36      0.00
   18   19    8     -0.09      0.00
  -38   20    8     -0.31      0.00
  -35   20    8     -1.83      0.00
  -32   20    8     -0.39      0.00
  -29   20    8     -1.40      0.00
  -26   20    8      4.47      0.00
  -23   20    8     -0.75      0.00
  -20   20    8     -0.10      0.00
  -17   20    8      8.61      0.00
  -14   20    8      0.81      0.00
  -11   20    8      2.71      0.00
   -8   20    8      9.40      0.00
   -5   20    8     -2.27      0.00
   -2   20    8      0.19      0.00
    1   20    8      5.55      0.00
    4   20    8     -0.77      0.00
    7   20    8     -0.50      0.00
   10   20    8      3.60      0.00
   13   20    8     -0.82      0.00
   16   20    8     -2.44      0.00
   19   20    8     -0.45      0.00
  -40   21    8      2.46      0.00
  -37   21    8     -2.15      0.00
  -34   21    8     -2.83      0.00
  -31   21    8     -2.75      0.00
  -28   21    8     -1.39      0.00
  -25   21    8      1.96      0.00
  -22   21    8     -1.35      0.00
  -19   21    8     -4.09      0.00
  -16   21    8      3.02      0.00
  -13   21    8      5.99      0.00
  -10   21    8     -6.47      0.00
   -7   21    8      5.51      0.00
   -4   21    8      4.00      0.00
   -1   21    8     -3.94      0.00
    2   21    8     -0.80      0.00
    5   21    8      2.65      0.00
    8   21    8     -1.06      0.00
   11   21    8      2.52      0.00
   14   21    8      1.47      0.00
   17   21    8     -4.48      0.00
   20   21    8     -1.25      0.00
  -42   22    8     -0.19      0.00
  -39   22    8      0.56      0.00
  -36   22    8     -0.19      0.00
  -33   22    8      0.38      0.00
  -30   22    8     -2.29      0.00
  -27   22    8     -0.58      0.00
  -24   22    8     -4.75      0.00
  -21   22    8      2.98      0.00
  -18   22    8     -2.37      0.00
  -15   22    8     -5.68      0.00
  -12   22    8      2.76      0.00
   -9   22    8     -1.77      0.00
   -6   22    8     -3.19      0.00
   -3   22    8     -0.59      0.00
    0   22    8      0.55      0.00
    3   22    8     -5.54      0.00
    6   22    8     -1.33      0.00
    9   22    8      0.60      0.00
   12   22    8      0.21      0.00
   15   22    8      0.97      0.00
   18   22    8     -0.04      0.00
  -41   23    8      3.41      0.00
  -38   23    8     -0.33      0.00
  -35   23    8      4.70      0.00
  -32   23    8     -1.41      0.00
  -29   23    8     -0.16      0.00
  -26   23    8      0.06      0.00
  -23   23    8     -1.84      0.00
  -20   23    8     -0.53      0.00
  -17   23    8      2.88      0.00
  -14   23    8     -2.77      0.00
  -11   23    8     -3.02      0.00
   -8   23    8      4.57      0.00
   -5   23    8     -2.82      0.00
   -2   23    8     -3.88      0.00
    1   23    8      2.06      0.00
    4   23    8     -2.53      0.00
    7   23    8     -4.70      0.00
   10   23    8     -2.64      0.00
   13   23    8      3.12      0.00
   16   23    8      1.97      0.00
   19   23    8      1.28      0.00
  -40   24    8      1.59      0.00
  -37   24    8      1.78      0.00
  -34   24    8      0.94      0.00
  -31   24    8     -0.37      0.00
  -28   24    8     -2.87      0.00
  -25   24    8     -0.31      0.00
  -22   24    8      4.96      0.00
  -19   24    8     -2.23      0.00
  -16   24    8      3.32      0.00
  -13   24    8      4.23      0.00
  -10   24    8     -5.20      0.00
   -7   24    8      4.93      0.00
   -4   24    8      2.28      0.00
   -1   24    8     -0.63      0.00
    2   24    8      0.84      0.00
    5   24    8      0.26      0.00
    8   24    8     -4.42      0.00
   11   24    8     -1.88      0.00
   14   24    8      4.40      0.00
   17   24    8      2.73      0.00
  -42   25    8     -1.33      0.00
  -39   25    8     -0.16      0.00
  -36   25    8     -0.44      0.00
  -33   25    8     -3.40      0.00
  -30   25    8      0.20      0.00
  -27   25    8     -3.03      0.00
  -24   25    8     -0.49      0.00
  -21   25    8      1.57      0.00
  -18   25    8      1.14      0.00
  -15   25    8     -0.76      0.00
  -12   25    8      2.25      0.00
   -9   25    8     -1.25      0.00
   -6   25    8     -0.82      0.00
   -3   25    8      3.33      0.00
    0   25    8      3.62      0.00
    3   25    8     -0.70      0.00
    6   25    8      1.63      0.00
    9   25    8     -1.64      0.00
   12   25    8      0.46      0.00
   15   25    8      3.56      0.00
  -41   26    8     -0.09      0.00
  -38   26    8     -1.86      0.00
  -35   26    8     -4.33      0.00
  -32   26    8      0.30      0.00
  -29   26    8     -2.91      0.00
  -26   26    8      1.75      0.00
  -23   26    8     -3.61      0.00
  -20   26    8     -2.92      0.00
  -17   26    8      1.21      0.00
  -14   26    8     -3.59      0.00
  -11   26    8     -6.12      0.00
   -8   26    8      1.69      0.00
   -5   26    8     -1.79      0.00
   -2   26    8     -2.71      0.00
    1   26    8      3.15      0.00
    4   26    8      1.63      0.00
    7   26    8      0.78      0.00
   10   26    8      1.23      0.00
   13   26    8      2.57      0.00
   16   26    8     -0.47      0.00
  -40   27    8      1.64      0.00
  -37   27    8     -3.34      0.00
  -34   27    8      2.52      0.00
  -31   27    8     -0.50      0.00
  -28   27    8      0.44      0.00
  -25   27    8      0.64      0.00
  -22   27    8     -1.10      0.00
  -19   27    8     -4.38      0.00
  -16   27    8     -1.23      0.00
  -13   27    8     -2.87      0.00
  -10   27    8     -5.59      0.00
   -7   27    8     -1.69      0.00
   -4   27    8      0.85      0.00
   -1   27    8     -2.68      0.00
    2   27    8     -1.59      0.00
    5   27    8      1.85      0.00
    8   27    8      4.60      0.00
   11   27    8      0.23      0.00
   14   27    8      1.53      0.00
  -39   28    8      1.18      0.00
  -36   28    8     -0.23      0.00
  -33   28    8      3.58      0.00
  -30   28    8      2.71      0.00
  -27   28    8      3.10      0.00
  -24   28    8     -2.41      0.00
  -21   28    8      2.44      0.00
  -18   28    8     -0.37      0.00
  -15   28    8     -1.99      0.00
  -12   28    8      1.56      0.00
   -9   28    8     -0.59      0.00
   -6   28    8     -1.47      0.00
   -3   28    8     -0.01      0.00
    0   28    8      1.01      0.00
    3   28    8     -1.35      0.00
    6   28    8      2.06      0.00
    9   28    8      2.30      0.00
   12   28    8      2.04      0.00
  -41   29    8      0.21      0.00
  -38   29    8     -1.55      0.00
  -35   29    8      5.49      0.00
  -32   29    8     -1.00      0.00
  -29   29    8      1.81      0.00
  -26   29    8      1.41      0.00
  -23   29    8      1.24      0.00
  -20   29    8      0.45      0.00
  -17   29    8      4.54      0.00
  -14   29    8      0.61      0.00
  -11   29    8      2.92      0.00
   -8   29    8      1.93      0.00
   -5   29    8      0.50      0.00
   -2   29    8      0.10      0.00
    1   29    8      3.36      0.00
    4   29    8     -2.57      0.00
    7   29    8      2.29      0.00
   10   29    8      0.14      0.00
  -40   30    8      0.35      0.00
  -37   30    8      0.61      0.00
  -34   30    8     -0.84      0.00
  -31   30    8     -1.27      0.00
  -28   30    8     -0.85      0.00
  -25   30    8     -0.08      0.00
  -22   30    8      1.31      0.00
  -19   30    8      0.20      0.00
  -16   30    8      3.36      0.00
  -13   30    8      3.61      0.00
  -10   30    8      1.96      0.00
   -7   30    8     -0.09      0.00
   -4   30    8      1.63      0.00
   -1   30    8      0.86      0.00
    2   30    8     -0.98      0.00
    5   30    8     -0.68      0.00
    8   30    8     -0.74      0.00
   11   30    8     -0.32      0.00
  -39   31    8      0.93      0.00
  -36   31    8      0.95      0.00
  -33   31    8     -2.31      0.00
  -30   31    8     -1.85      0.00
  -27   31    8     -1.09      0.00
  -24   31    8     -0.51      0.00
  -21   31    8      1.26      0.00
  -18   31    8      0.52      0.00
  -15   31    8      0.42      0.00
  -12   31    8      4.50      0.00
   -9   31    8      1.17      0.00
   -6   31    8     -1.42      0.00
   -3   31    8     -1.41      0.00
    0   31    8      2.10      0.00
    3   31    8     -1.63      0.00
    6   31    8     -2.48      0.00
    9   31    8     -1.11      0.00
  -38   32    8      3.35      0.00
  -35   32    8     -0.10      0.00
  -32   32    8     -1.06      0.00
  -29   32    8      0.29      0.00
  -26   32    8      1.57      0.00
  -23   32    8      0.47      0.00
  -20   32    8      0.35      0.00
  -17   32    8      2.63      0.00
  -14   32    8     -2.23      0.00
  -11   32    8      4.16      0.00
   -8   32    8      1.10      0.00
   -5   32    8     -0.81      0.00
   -2   32    8      0.02      0.00
    1   32    8     -0.15      0.00
    4   32    8      0.00      0.00
    7   32    8      0.75      0.00
  -40   33    8      1.43      0.00
  -37   33    8      2.02      0.00
  -34   33    8     -1.09      0.00
  -31   33    8      1.57      0.00
  -28   33    8      1.73      0.00
  -25   33    8      1.05      0.00
  -22   33    8      2.43      0.00
  -19   33    8     -1.42      0.00
  -16   33    8     -1.11      0.00
  -13   33    8      2.02      0.00
  -10   33    8      1.12      0.00
   -7   33    8      1.61      0.00
   -4   33    8      0.17      0.00
   -1   33    8     -0.86      0.00
    2   33    8      4.42      0.00
    5   33    8      0.07      0.00
  -39   34    8      0.46      0.00
  -36   34    8     -3.10      0.00
  -33   34    8      1.92      0.00
  -30   34    8     -0.49      0.00
  -27   34    8     -0.64      0.00
  -24   34    8     -0.66      0.00
  -21   34    8     -1.90      0.00
  -18   34    8     -0.26      0.00
  -15   34    8     -2.61      0.00
  -12   34    8      1.07      0.00
   -9   34    8      0.42      0.00
   -6   34    8     -1.52      0.00
   -3   34    8      1.09      0.00
    0   34    8      1.02      0.00
    3   34    8      2.49      0.00
  -38   35    8     -0.27      0.00
  -35   35    8     -4.26      0.00
  -32   35    8     -0.46      0.00
  -29   35    8     -0.33      0.00
  -26   35    8     -1.87      0.00
  -23   35    8     -3.50      0.00
  -20   35    8     -2.02      0.00
  -17   35    8     -2.14      0.00
  -14   35    8      0.70      0.00
  -11   35    8     -1.48      0.00
   -8   35    8     -1.04      0.00
   -5   35    8     -1.28      0.00
   -2   35    8     -1.85      0.00
    1   35    8      3.64      0.00
  -37   36    8     -3.63      0.00
  -34   36    8      0.06      0.00
  -31   36    8     -1.82      0.00
  -28   36    8      0.75      0.00
  -25   36    8     -1.09      0.00
  -22   36    8     -2.01      0.00
  -19   36    8     -1.11      0.00
  -16   36    8      1.85      0.00
  -13   36    8     -1.09      0.00
  -10   36    8      0.11      0.00
   -7   36    8     -2.19      0.00
   -4   36    8     -0.19      0.00
   -1   36    8      1.05      0.00
  -36   37    8     -0.06      0.00
  -33   37    8      0.67      0.00
  -30   37    8      2.48      0.00
  -27   37    8      2.37      0.00
  -24   37    8     -1.61      0.00
  -21   37    8      1.78      0.00
  -18   37    8      0.43      0.00
  -15   37    8      1.62      0.00
  -12   37    8     -0.13      0.00
   -9   37    8      0.52      0.00
   -6   37    8     -0.55      0.00
   -3   37    8      2.56      0.00
  -35   38    8     -1.80      0.00
  -29   38    8      5.99      0.00
  -26   38    8      3.04      0.00
  -23   38    8     -0.14      0.00
  -20   38    8     -0.86      0.00
  -17   38    8      1.36      0.00
  -14   38    8     -0.25      0.00
  -11   38    8      2.04      0.00
   -8   38    8      0.27      0.00
   -5   38    8      1.03      0.00
  -31   39    8      2.29      0.00
  -28   39    8      4.23      0.00
  -25   39    8     -0.13      0.00
  -22   39    8      0.68      0.00
  -19   39    8     -0.42      0.00
  -16   39    8     -1.86      0.00
  -13   39    8      0.04      0.00
  -10   39    8      1.13      0.00
   -7   39    8     -0.16      0.00
  -24   40    8     -1.61      0.00
  -21   40    8     -0.88      0.00
  -18   40    8     -1.96      0.00
  -15   40    8     -1.09      0.00
  -12   40    8     -1.53      0.00
   -9   40    8      0.63      0.00
  -23   41    8     -0.93      0.00
  -20   41    8     -0.37      0.00
  -17   41    8     -4.01      0.00
  -14   41    8     -1.23      0.00
  -11   41    8     -1.13      0.00
  -22   42    8      0.20      0.00
  -19   42    8     -1.48      0.00
  -16   42    8     -1.95      0.00
    0    0    9    -26.45      0.00
    1    1    9    -10.17      0.00
   -1    2    9     15.74      0.00
    2    2    9      1.13      0.00
   -3    3    9      4.31      0.00
    0    3    9     -1.86      0.00
    3    3    9     31.12      0.00
   -5    4    9    -11.24      0.00
   -2    4    9     17.59      0.00
    1    4    9     -4.44      0.00
    4    4    9    -10.03      0.00
   -7    5    9     -2.49      0.00
   -4    5    9    -19.11      0.00
   -1    5    9    -11.21      0.00
    2    5    9      5.86      0.00
    5    5    9    -14.38      0.00
   -9    6    9     -0.28      0.00
   -6    6    9      8.68      0.00
   -3    6    9     -5.99      0.00
    0    6    9     -6.55      0.00
    3    6    9     -6.37      0.00
    6    6    9     -4.44      0.00
  -11    7    9     15.51      0.00
   -8    7    9     -0.26      0.00
   -5    7    9      8.93      0.00
   -2    7    9     22.83      0.00
    1    7    9     -7.72      0.00
    4    7    9     -1.77      0.00
    7    7    9      7.12      0.00
  -13    8    9    -11.85      0.00
  -10    8    9      1.21      0.00
   -7    8    9     14.17      0.00
   -4    8    9    -13.54      0.00
   -1    8    9     12.10      0.00
    2    8    9     14.37      0.00
    5    8    9     -9.83      0.00
    8    8    9      5.04      0.00
  -15    9    9     -2.43      0.00
  -12    9    9     -9.68      0.00
   -9    9    9    -18.61      0.00
   -6    9    9     -3.18      0.00
   -3    9    9      2.85      0.00
    0    9    9    -17.75      0.00
    3    9    9      2.03      0.00
    6    9    9      7.74      0.00
    9    9    9     -6.40      0.00
  -17   10    9     -1.70      0.00
  -14   10    9     -2.58      0.00
  -11   10    9     -0.13      0.00
   -8   10    9     -8.27      0.00
   -5   10    9    -12.99      0.00
   -2   10    9      3.11      0.00
    1   10    9     -3.66      0.00
    4   10    9     -9.28      0.00
    7   10    9     -1.21      0.00
   10   10    9      1.49      0.00
  -19   11    9      9.88      0.00
  -16   11    9      6.70      0.00
  -13   11    9     -3.15      0.00
  -10   11    9     13.03      0.00
   -7   11    9      8.63      0.00
   -4   11    9     -4.95      0.00
   -1   11    9      5.05      0.00
    2   11    9      4.14      0.00
    5   11    9     -2.93      0.00
    8   11    9     -0.77      0.00
   11   11    9     -0.15      0.00
  -21   12    9      1.96      0.00
  -18   12    9     -2.79      0.00
  -15   12    9     11.63      0.00
  -12   12    9      4.98      0.00
   -9   12    9     -3.61      0.00
   -6   12    9     15.61      0.00
   -3   12    9      7.37      0.00
    0   12    9     -4.85      0.00
    3   12    9     12.09      0.00
    6   12    9      1.24      0.00
    9   12    9     -2.75      0.00
   12   12    9      2.77      0.00
  -23   13    9     -5.49      0.00
  -20   13    9      1.52      0.00
  -17   13    9     -5.91      0.00
  -14   13    9     -5.75      0.00
  -11   13    9      6.53      0.00
   -8   13    9     -6.33      0.00
   -5   13    9    -12.23      0.00
   -2   13    9     11.65      0.00
    1   13    9      0.95      0.00
    4   13    9     -4.12      0.00
    7   13    9      4.98      0.00
   10   13    9      0.53      0.00
   13   13    9     -1.90      0.00
  -25   14    9     -1.75      0.00
  -22   14    9     -4.87      0.00
  -19   14    9     -4.30      0.00
  -16   14    9      1.69      0.00
  -13   14    9     -8.98      0.00
  -10   14    9     -7.20      0.00
   -7   14    9      0.19      0.00
   -4   14    9    -10.72      0.00
   -1   14    9     -8.15      0.00
    2   14    9      6.42      0.00
    5   14    9     -2.64      0.00
    8   14    9     -4.75      0.00
   11   14    9      1.47      0.00
   14   14    9     -0.88      0.00
  -27   15    9      3.17      0.00
  -24   15    9      0.63      0.00
  -21   15    9     -3.47      0.00
  -18   15    9     -1.59      0.00
  -15   15    9      9.07      0.00
  -12   15    9     -0.22      0.00
   -9   15    9     -4.80      0.00
   -6   15    9      0.56      0.00
   -3   15    9      1.70      0.00
    0   15    9     -6.13      0.00
    3   15    9      1.43      0.00
    6   15    9     -1.36      0.00
    9   15    9     -0.83      0.00
   12   15    9     -3.54      0.00
   15   15    9      0.87      0.00
  -29   16    9      3.23      0.00
  -26   16    9     -0.56      0.00
  -23   16    9     -1.31      0.00
  -20   16    9      4.83      0.00
  -17   16    9      1.88      0.00
  -14   16    9      2.61      0.00
  -11   16    9     11.32      0.00
   -8   16    9     -0.12      0.00
   -5   16    9      0.78      0.00
   -2   16    9      7.20      0.00
    1   16    9     -0.81      0.00
    4   16    9     -0.40      0.00
    7   16    9      3.50      0.00
   10   16    9     -0.18      0.00
   13   16    9     -2.75      0.00
   16   16    9      0.65      0.00
  -31   17    9     -0.46      0.00
  -28   17    9      0.57      0.00
  -25   17    9     -0.26      0.00
  -22   17    9     -5.91      0.00
  -19   17    9      1.43      0.00
  -16   17    9      6.13      0.00
  -13   17    9     -7.40      0.00
  -10   17    9     -0.16      0.00
   -7   17    9      8.27      0.00
   -4   17    9     -3.82      0.00
   -1   17    9     -3.23      0.00
    2   17    9      8.94      0.00
    5   17    9     -2.36      0.00
    8   17    9      2.33      0.00
   11   17    9      0.32      0.00
   14   17    9     -1.12      0.00
   17   17    9     -2.97      0.00
  -33   18    9      1.46      0.00
  -30   18    9     -0.79      0.00
  -27   18    9     -1.89      0.00
  -24   18    9     -2.38      0.00
  -21   18    9     -1.03      0.00
  -18   18    9     -6.15      0.00
  -15   18    9     -2.62      0.00
  -12   18    9     -2.95      0.00
   -9   18    9     -9.86      0.00
   -6   18    9     -1.72      0.00
   -3   18    9     -0.92      0.00
    0   18    9     -7.05      0.00
    3   18    9     -0.24      0.00
    6   18    9      4.71      0.00
    9   18    9     -1.97      0.00
   12   18    9     -0.89      0.00
   15   18    9     -2.76      0.00
   18   18    9     -4.33      0.00
  -35   19    9     -0.89      0.00
  -32   19    9     -0.02      0.00
  -29   19    9      2.45      0.00
  -26   19    9     -1.77      0.00
  -23   19    9     -2.49      0.00
  -20   19    9      2.51      0.00
  -17   19    9     -3.60      0.00
  -14   19    9     -4.77      0.00
  -11   19    9      0.26      0.00
   -8   19    9     -1.99      0.00
   -5   19    9     -7.22      0.00
   -2   19    9     -3.45      0.00
    1   19    9     -1.15      0.00
    4   19    9     -3.15      0.00
    7   19    9     -0.60      0.00
   10   19    9      0.07      0.00
   13   19    9     -0.43      0.00
   16   19    9     -1.99      0.00
   19   19    9     -2.06      0.00
  -37   20    9     -2.04      0.00
  -34   20    9      1.19      0.00
  -31   20    9     -0.22      0.00
  -28   20    9      2.24      0.00
  -25   20    9      1.39      0.00
  -22   20    9     -1.32      0.00
  -19   20    9      1.48      0.00
  -16   20    9      5.92      0.00
  -13   20    9     -1.25      0.00
  -10   20    9      5.32      0.00
   -7   20    9      4.89      0.00
   -4   20    9     -4.27      0.00
   -1   20    9     -1.37      0.00
    2   20    9      1.67      0.00
    5   20    9     -2.58      0.00
    8   20    9     -2.29      0.00
   11   20    9      1.99      0.00
   14   20    9     -0.43      0.00
   17   20    9      5.12      0.00
  -36   21    9     -0.03      0.00
  -33   21    9     -1.25      0.00
  -30   21    9      0.37      0.00
  -27   21    9     -2.07      0.00
  -24   21    9     -0.31      0.00
  -21   21    9      1.72      0.00
  -18   21    9     -2.06      0.00
  -15   21    9      7.35      0.00
  -12   21    9      6.81      0.00
   -9   21    9     -0.99      0.00
   -6   21    9      4.61      0.00
   -3   21    9      4.24      0.00
    0   21    9     -3.73      0.00
    3   21    9      0.80      0.00
    6   21    9      0.22      0.00
    9   21    9     -1.23      0.00
   12   21    9      1.88      0.00
   15   21    9      2.45      0.00
   18   21    9      3.79      0.00
  -38   22    9      3.30      0.00
  -35   22    9     -3.10      0.00
  -32   22    9     -1.76      0.00
  -29   22    9     -0.37      0.00
  -26   22    9     -3.29      0.00
  -23   22    9     -4.42      0.00
  -20   22    9      0.30      0.00
  -17   22    9      1.47      0.00
  -14   22    9     -3.24      0.00
  -11   22    9      3.16      0.00
   -8   22    9     -0.41      0.00
   -5   22    9     -3.84      0.00
   -2   22    9      2.25      0.00
    1   22    9      1.92      0.00
    4   22    9     -4.66      0.00
    7   22    9     -0.42      0.00
   10   22    9      0.95      0.00
   13   22    9     -0.51      0.00
   16   22    9      3.60      0.00
  -37   23    9     -1.94      0.00
  -34   23    9      0.02      0.00
  -31   23    9     -4.09      0.00
  -28   23    9      0.40      0.00
  -25   23    9      1.48      0.00
  -22   23    9     -1.49      0.00
  -19   23    9     -3.09      0.00
  -16   23    9      0.21      0.00
  -13   23    9     -3.52      0.00
  -10   23    9     -5.67      0.00
   -7   23    9      0.63      0.00
   -4   23    9     -2.03      0.00
   -1   23    9     -3.47      0.00
    2   23    9     -0.80      0.00
    5   23    9     -0.56      0.00
    8   23    9     -1.90      0.00
   11   23    9      0.73      0.00
   14   23    9     -3.78      0.00
  -36   24    9     -5.18      0.00
  -33   24    9     -2.13      0.00
  -30   24    9      2.65      0.00
  -27   24    9     -1.03      0.00
  -24   24    9      2.71      0.00
  -21   24    9      3.40      0.00
  -18   24    9     -1.79      0.00
  -15   24    9      0.65      0.00
  -12   24    9     -1.94      0.00
   -9   24    9     -2.09      0.00
   -6   24    9      0.77      0.00
   -3   24    9      1.16      0.00
    0   24    9     -2.61      0.00
    3   24    9     -0.76      0.00
    6   24    9      0.93      0.00
    9   24    9     -0.54      0.00
   12   24    9      0.49      0.00
  -38   25    9     -4.16      0.00
  -35   25    9     -0.20      0.00
  -32   25    9     -4.80      0.00
  -29   25    9      0.04      0.00
  -26   25    9      1.09      0.00
  -23   25    9      1.34      0.00
  -20   25    9      1.89      0.00
  -17   25    9     -0.37      0.00
  -14   25    9     -1.11      0.00
  -11   25    9      3.77      0.00
   -8   25    9      2.04      0.00
   -5   25    9     -0.65      0.00
   -2   25    9      3.10      0.00
    1   25    9      2.01      0.00
    4   25    9      0.81      0.00
    7   25    9      1.08      0.00
   10   25    9      2.32      0.00
  -37   26    9      1.99      0.00
  -34   26    9     -5.15      0.00
  -31   26    9     -1.42      0.00
  -28   26    9     -5.28      0.00
  -25   26    9      0.52      0.00
  -22   26    9     -1.07      0.00
  -19   26    9     -4.39      0.00
  -16   26    9      2.06      0.00
  -13   26    9     -2.08      0.00
  -10   26    9     -0.23      0.00
   -7   26    9      3.94      0.00
   -4   26    9      1.03      0.00
   -1   26    9     -3.13      0.00
    2   26    9      4.16      0.00
    5   26    9      3.44      0.00
    8   26    9     -0.65      0.00
   11   26    9      3.06      0.00
  -36   27    9      2.42      0.00
  -33   27    9      0.41      0.00
  -30   27    9     -3.69      0.00
  -27   27    9     -4.97      0.00
  -24   27    9     -1.88      0.00
  -21   27    9     -0.60      0.00
  -18   27    9     -2.65      0.00
  -15   27    9     -1.97      0.00
  -12   27    9      0.68      0.00
   -9   27    9     -2.12      0.00
   -6   27    9     -1.52      0.00
   -3   27    9     -0.39      0.00
    0   27    9     -1.61      0.00
    3   27    9      1.34      0.00
    6   27    9      0.34      0.00
    9   27    9     -0.84      0.00
  -38   28    9     11.65      0.00
  -35   28    9     -0.51      0.00
  -32   28    9     -0.85      0.00
  -29   28    9     -1.73      0.00
  -26   28    9      2.44      0.00
  -23   28    9      0.20      0.00
  -20   28    9      0.14      0.00
  -17   28    9      0.80      0.00
  -14   28    9      0.65      0.00
  -11   28    9     -1.64      0.00
   -8   28    9      1.49      0.00
   -5   28    9     -0.65      0.00
   -2   28    9     -4.02      0.00
    1   28    9     -0.40      0.00
    4   28    9      0.55      0.00
    7   28    9     -1.83      0.00
  -37   29    9      0.89      0.00
  -34   29    9      1.79      0.00
  -31   29    9     -1.39      0.00
  -28   29    9      1.45      0.00
  -25   29    9      3.24      0.00
  -22   29    9      3.22      0.00
  -19   29    9      3.45      0.00
  -16   29    9      2.93      0.00
  -13   29    9     -0.56      0.00
  -10   29    9      2.58      0.00
   -7   29    9      2.94      0.00
   -4   29    9      1.32      0.00
   -1   29    9     -4.59      0.00
    2   29    9      1.19      0.00
    5   29    9      0.45      0.00
    8   29    9     -4.04      0.00
  -36   30    9     -1.82      0.00
  -33   30    9     -1.88      0.00
  -30   30    9     -0.09      0.00
  -27   30    9      1.03      0.00
  -24   30    9      2.48      0.00
  -21   30    9      3.24      0.00
  -18   30    9     -0.17      0.00
  -15   30    9      4.21      0.00
  -12   30    9      0.55      0.00
   -9   30    9      1.44      0.00
   -6   30    9      2.47      0.00
   -3   30    9      1.08      0.00
    0   30    9     -1.54      0.00
    3   30    9     -1.44      0.00
    6   30    9      0.52      0.00
  -35   31    9     -1.57      0.00
  -32   31    9     -2.09      0.00
  -29   31    9      0.93      0.00
  -26   31    9      0.32      0.00
  -23   31    9     -1.04      0.00
  -20   31    9      1.06      0.00
  -17   31    9      1.99      0.00
  -14   31    9     -1.50      0.00
  -11   31    9      0.92      0.00
   -8   31    9     -0.50      0.00
   -5   31    9      2.15      0.00
   -2   31    9     -2.90      0.00
    1   31    9     -1.22      0.00
    4   31    9      0.53      0.00
  -34   32    9      2.73      0.00
  -31   32    9      0.06      0.00
  -28   32    9     -2.00      0.00
  -25   32    9     -0.02      0.00
  -22   32    9      0.43      0.00
  -19   32    9     -0.80      0.00
  -16   32    9      2.58      0.00
  -13   32    9     -0.76      0.00
  -10   32    9     -3.11      0.00
   -7   32    9     -2.09      0.00
   -4   32    9      1.26      0.00
   -1   32    9     -0.20      0.00
    2   32    9     -0.96      0.00
  -33   33    9      1.35      0.00
  -30   33    9      0.74      0.00
  -27   33    9     -1.11      0.00
  -24   33    9     -0.39      0.00
  -21   33    9     -0.15      0.00
  -18   33    9      1.20      0.00
  -15   33    9      1.07      0.00
  -12   33    9     -2.91      0.00
   -9   33    9     -2.34      0.00
   -6   33    9      0.34      0.00
   -3   33    9      1.84      0.00
    0   33    9      1.39      0.00
  -29   34    9      0.13      0.00
  -26   34    9     -0.64      0.00
  -23   34    9     -1.33      0.00
  -20   34    9     -0.15      0.00
  -17   34    9      1.61      0.00
  -14   34    9     -2.20      0.00
  -11   34    9     -0.30      0.00
   -8   34    9     -1.09      0.00
   -5   34    9      1.99      0.00
   -2   34    9      1.30      0.00
  -28   35    9     -2.44      0.00
  -25   35    9      1.24      0.00
  -22   35    9     -0.06      0.00
  -19   35    9     -0.65      0.00
  -16   35    9      1.71      0.00
  -13   35    9     -1.59      0.00
  -10   35    9      1.40      0.00
   -7   35    9     -0.50      0.00
   -4   35    9      0.58      0.00
  -27   36    9     -0.48      0.00
  -24   36    9      0.80      0.00
  -21   36    9      1.93      0.00
  -18   36    9      2.66      0.00
  -15   36    9     -2.33      0.00
  -12   36    9      1.68      0.00
   -9   36    9      0.36      0.00
   -6   36    9      0.63      0.00
  -26   37    9     -0.01      0.00
  -23   37    9      2.07      0.00
  -20   37    9     -0.26      0.00
  -17   37    9      1.92      0.00
  -14   37    9     -0.47      0.00
  -11   37    9     -1.64      0.00
   -8   37    9     -0.97      0.00
  -25   38    9     -0.65      0.00
  -22   38    9      0.06      0.00
  -19   38    9     -0.71      0.00
  -16   38    9     -1.67      0.00
  -13   38    9     -1.91      0.00
  -18   39    9      0.57      0.00
   -1    1   10      5.08      0.00
   -3    2   10     -2.57      0.00
    0    2   10      2.18      0.00
   -5    3   10     13.77      0.00
   -2    3   10     13.56      0.00
    1    3   10     -0.73      0.00
   -7    4   10      2.13      0.00
   -4    4   10      4.98      0.00
   -1    4   10      2.15      0.00
    2    4   10      7.34      0.00
   -9    5   10      0.43      0.00
   -6    5   10     -1.55      0.00
   -3    5   10    -12.41      0.00
    0    5   10     -5.37      0.00
    3    5   10      2.01      0.00
  -11    6   10     -3.39      0.00
   -8    6   10    -11.44      0.00
   -5    6   10      3.79      0.00
   -2    6   10     -6.77      0.00
    1    6   10    -14.73      0.00
    4    6   10      1.65      0.00
  -13    7   10     -1.48      0.00
  -10    7   10      8.21      0.00
   -7    7   10      3.21      0.00
   -4    7   10     -4.05      0.00
   -1    7   10      5.01      0.00
    2    7   10      3.37      0.00
    5    7   10    -10.74      0.00
  -15    8   10      4.03      0.00
  -12    8   10      0.48      0.00
   -9    8   10      2.96      0.00
   -6    8   10      9.64      0.00
   -3    8   10      2.69      0.00
    0    8   10      1.49      0.00
    3    8   10      6.71      0.00
    6    8   10      1.48      0.00
  -17    9   10     -1.64      0.00
  -14    9   10      6.76      0.00
  -11    9   10     -4.40      0.00
   -8    9   10     -5.59      0.00
   -5    9   10      4.85      0.00
   -2    9   10      1.03      0.00
    1    9   10      0.56      0.00
    4    9   10      3.40      0.00
    7    9   10     -1.87      0.00
  -19   10   10      1.66      0.00
  -16   10   10     -3.30      0.00
  -13   10   10     -5.27      0.00
  -10   10   10      3.15      0.00
   -7   10   10     -5.89      0.00
   -4   10   10     -8.16      0.00
   -1   10   10      4.42      0.00
    2   10   10     -3.34      0.00
    5   10   10     -4.02      0.00
    8   10   10      1.90      0.00
  -21   11   10     -1.67      0.00
  -18   11   10      0.68      0.00
  -15   11   10      5.62      0.00
  -12   11   10     -6.23      0.00
   -9   11   10     -0.09      0.00
   -6   11   10      8.11      0.00
   -3   11   10     -5.47      0.00
    0   11   10     -4.34      0.00
    3   11   10      4.79      0.00
    6   11   10     -7.89      0.00
    9   11   10     -2.05      0.00
  -23   12   10      3.70      0.00
  -20   12   10      3.10      0.00
  -17   12   10      0.63      0.00
  -14   12   10      3.36      0.00
  -11   12   10      3.30      0.00
   -8   12   10      3.95      0.00
   -5   12   10      2.59      0.00
   -2   12   10      6.30      0.00
    1   12   10     -0.56      0.00
    4   12   10     -3.73      0.00
    7   12   10      0.57      0.00
   10   12   10     -0.04      0.00
  -25   13   10     -0.33      0.00
  -22   13   10      1.38      0.00
  -19   13   10      5.19      0.00
  -16   13   10     -2.47      0.00
  -13   13   10     -1.78      0.00
  -10   13   10      6.25      0.00
   -7   13   10      0.90      0.00
   -4   13   10      0.17      0.00
   -1   13   10      3.99      0.00
    2   13   10      0.46      0.00
    5   13   10     -1.00      0.00
    8   13   10      0.63      0.00
   11   13   10      3.27      0.00
  -27   14   10     -3.74      0.00
  -24   14   10     -2.12      0.00
  -21   14   10     -2.04      0.00
  -18   14   10     -0.95      0.00
  -15   14   10      1.04      0.00
  -12   14   10    -10.39      0.00
   -9   14   10      2.45      0.00
   -6   14   10     -0.27      0.00
   -3   14   10     -5.58      0.00
    0   14   10      2.49      0.00
    3   14   10      1.35      0.00
    6   14   10     -2.36      0.00
    9   14   10      2.60      0.00
   12   14   10      0.67      0.00
  -29   15   10     -2.00      0.00
  -26   15   10     -2.82      0.00
  -23   15   10     -0.61      0.00
  -20   15   10      0.08      0.00
  -17   15   10     -6.44      0.00
  -14   15   10     -0.90      0.00
  -11   15   10      0.90      0.00
   -8   15   10     -7.13      0.00
   -5   15   10     -1.30      0.00
   -2   15   10      3.41      0.00
    1   15   10     -5.18      0.00
    4   15   10      3.38      0.00
    7   15   10      2.03      0.00
   10   15   10     -1.47      0.00
   13   15   10     -0.18      0.00
  -31   16   10     -2.73      0.00
  -28   16   10     -0.53      0.00
  -25   16   10     -0.22      0.00
  -22   16   10      1.47      0.00
  -19   16   10      1.85      0.00
  -16   16   10      1.26      0.00
  -13   16   10     -2.63      0.00
  -10   16   10      4.82      0.00
   -7   16   10      1.23      0.00
   -4   16   10     -2.06      0.00
   -1   16   10      4.09      0.00
    2   16   10      2.72      0.00
    5   16   10     -1.32      0.00
    8   16   10      0.29      0.00
   11   16   10      0.13      0.00
   14   16   10      0.21      0.00
  -33   17   10     -0.19      0.00
  -30   17   10     -1.17      0.00
  -27   17   10      2.25      0.00
  -24   17   10      1.04      0.00
  -21   17   10      0.17      0.00
  -18   17   10      3.22      0.00
  -15   17   10      3.58      0.00
  -12   17   10     -0.26      0.00
   -9   17   10      3.82      0.00
   -6   17   10      1.97      0.00
   -3   17   10      5.56      0.00
    0   17   10      0.34      0.00
    3   17   10      2.26      0.00
    6   17   10      0.46      0.00
    9   17   10     -2.53      0.00
   12   17   10      0.88      0.00
   15   17   10     -1.17      0.00
  -32   18   10     -3.05      0.00
  -29   18   10      2.91      0.00
  -26   18   10     -1.05      0.00
  -23   18   10      0.37      0.00
  -20   18   10     -0.69      0.00
  -17   18   10     -1.83      0.00
  -14   18   10      1.93      0.00
  -11   18   10     -2.01      0.00
   -8   18   10     -1.20      0.00
   -5   18   10      5.84      0.00
   -2   18   10      2.04      0.00
    1   18   10     -1.28      0.00
    4   18   10      1.23      0.00
    7   18   10     -0.98      0.00
   10   18   10      0.68      0.00
   13   18   10     -1.40      0.00
   16   18   10      0.14      0.00
  -34   19   10      2.09      0.00
  -31   19   10      1.76      0.00
  -28   19   10      2.75      0.00
  -25   19   10     -2.54      0.00
  -22   19   10     -2.95      0.00
  -19   19   10      0.18      0.00
  -16   19   10     -3.27      0.00
  -13   19   10     -6.25      0.00
  -10   19   10      3.18      0.00
   -7   19   10     -2.07      0.00
   -4   19   10      2.07      0.00
   -1   19   10      3.03      0.00
    2   19   10     -2.13      0.00
    5   19   10     -2.93      0.00
    8   19   10      2.85      0.00
   11   19   10     -0.17      0.00
   14   19   10      2.11      0.00
  -33   20   10     -0.08      0.00
  -30   20   10      4.66      0.00
  -27   20   10      2.47      0.00
  -24   20   10     -0.40      0.00
  -21   20   10     -0.88      0.00
  -18   20   10     -0.48      0.00
  -15   20   10      0.73      0.00
  -12   20   10     -2.26      0.00
   -9   20   10      0.81      0.00
   -6   20   10      6.05      0.00
   -3   20   10      0.83      0.00
    0   20   10     -2.53      0.00
    3   20   10      0.75      0.00
    6   20   10     -0.30      0.00
    9   20   10      2.08      0.00
   12   20   10      0.19      0.00
  -32   21   10      2.23      0.00
  -29   21   10      0.91      0.00
  -26   21   10     -0.29      0.00
  -23   21   10      2.42      0.00
  -20   21   10      2.21      0.00
  -17   21   10      0.30      0.00
  -14   21   10      1.99      0.00
  -11   21   10      4.72      0.00
   -8   21   10      2.64      0.00
   -5   21   10      1.96      0.00
   -2   21   10      3.08      0.00
    1   21   10     -0.64      0.00
    4   21   10     -3.96      0.00
    7   21   10      4.01      0.00
   10   21   10     -1.02      0.00
  -34   22   10     -0.18      0.00
  -31   22   10     -1.02      0.00
  -28   22   10      3.06      0.00
  -25   22   10     -3.58      0.00
  -22   22   10     -1.16      0.00
  -19   22   10      0.59      0.00
  -16   22   10     -0.79      0.00
  -13   22   10      2.11      0.00
  -10   22   10      3.86      0.00
   -7   22   10     -1.10      0.00
   -4   22   10      0.23      0.00
   -1   22   10      0.95      0.00
    2   22   10     -0.62      0.00
    5   22   10     -0.33      0.00
    8   22   10      1.89      0.00
  -33   23   10      2.94      0.00
  -30   23   10     -0.78      0.00
  -27   23   10     -0.26      0.00
  -24   23   10     -2.23      0.00
  -21   23   10     -3.60      0.00
  -18   23   10     -1.94      0.00
  -15   23   10     -0.25      0.00
  -12   23   10     -2.73      0.00
   -9   23   10     -0.02      0.00
   -6   23   10     -2.27      0.00
   -3   23   10     -2.45      0.00
    0   23   10      1.11      0.00
    3   23   10     -0.32      0.00
    6   23   10      3.09      0.00
    9   23   10      1.40      0.00
  -32   24   10      0.96      0.00
  -29   24   10      4.74      0.00
  -26   24   10     -1.54      0.00
  -23   24   10     -1.60      0.00
  -20   24   10     -1.08      0.00
  -17   24   10     -2.65      0.00
  -14   24   10      1.02      0.00
  -11   24   10      1.27      0.00
   -8   24   10     -5.30      0.00
   -5   24   10     -0.45      0.00
   -2   24   10      3.58      0.00
    1   24   10     -1.01      0.00
    4   24   10     -0.56      0.00
    7   24   10      5.87      0.00
  -34   25   10      3.26      0.00
  -31   25   10      2.08      0.00
  -28   25   10      5.94      0.00
  -25   25   10     -1.16      0.00
  -22   25   10     -2.18      0.00
  -19   25   10      2.59      0.00
  -16   25   10      1.79      0.00
  -13   25   10      0.07      0.00
  -10   25   10      2.84      0.00
   -7   25   10      1.40      0.00
   -4   25   10     -0.01      0.00
   -1   25   10      2.50      0.00
    2   25   10      1.02      0.00
    5   25   10      0.26      0.00
  -33   26   10      2.68      0.00
  -30   26   10      0.25      0.00
  -27   26   10      0.69      0.00
  -24   26   10     -0.41      0.00
  -21   26   10      0.98      0.00
  -18   26   10      0.40      0.00
  -15   26   10      2.51      0.00
  -12   26   10      2.55      0.00
   -9   26   10     -0.21      0.00
   -6   26   10      1.86      0.00
   -3   26   10      3.19      0.00
    0   26   10     -0.07      0.00
    3   26   10     -3.87      0.00
  -32   27   10     -0.77      0.00
  -29   27   10      5.05      0.00
  -26   27   10     -2.26      0.00
  -23   27   10     -2.64      0.00
  -20   27   10      0.44      0.00
  -17   27   10     -0.96      0.00
  -14   27   10      1.24      0.00
  -11   27   10      0.67      0.00
   -8   27   10     -1.27      0.00
   -5   27   10      0.25      0.00
   -2   27   10      1.40      0.00
    1   27   10     -2.51      0.00
    4   27   10     -4.69      0.00
  -31   28   10      0.25      0.00
  -28   28   10      2.34      0.00
  -25   28   10      0.17      0.00
  -22   28   10     -1.66      0.00
  -19   28   10      0.14      0.00
  -16   28   10     -1.94      0.00
  -13   28   10      0.31      0.00
  -10   28   10     -1.61      0.00
   -7   28   10      0.53      0.00
   -4   28   10     -1.20      0.00
   -1   28   10      1.64      0.00
    2   28   10     -2.04      0.00
  -27   29   10     -0.41      0.00
  -24   29   10     -0.24      0.00
  -21   29   10     -0.19      0.00
  -18   29   10     -2.99      0.00
  -15   29   10      2.31      0.00
  -12   29   10     -1.39      0.00
   -9   29   10     -2.03      0.00
   -6   29   10      2.41      0.00
   -3   29   10      4.21      0.00
    0   29   10      0.39      0.00
  -26   30   10     -0.49      0.00
  -23   30   10     -4.83      0.00
  -20   30   10      0.04      0.00
  -17   30   10     -3.43      0.00
  -14   30   10      0.08      0.00
  -11   30   10     -2.17      0.00
   -8   30   10      3.35      0.00
   -5   30   10      0.95      0.00
   -2   30   10      3.88      0.00
  -25   31   10     -1.62      0.00
  -22   31   10     -1.48      0.00
  -19   31   10     -4.58      0.00
  -16   31   10     -0.14      0.00
  -13   31   10     -3.48      0.00
  -10   31   10     -1.60      0.00
   -7   31   10      2.41      0.00
   -4   31   10      1.75      0.00
  -24   32   10     -1.39      0.00
  -21   32   10     -1.29      0.00
  -18   32   10     -0.81      0.00
  -15   32   10     -1.38      0.00
  -12   32   10     -2.34      0.00
   -9   32   10      0.90      0.00
   -6   32   10     -0.69      0.00
  -23   33   10      0.76      0.00
  -20   33   10      0.98      0.00
  -17   33   10      0.32      0.00
  -14   33   10      0.23      0.00
  -11   33   10     -0.04      0.00
   -8   33   10      1.13      0.00
  -22   34   10     -0.46      0.00
  -19   34   10      4.20      0.00
  -16   34   10      0.81      0.00
  -13   34   10      1.98      0.00
  -10   34   10      0.59      0.00
    0    1   11      2.88      0.00
   -2    2   11     -0.41      0.00
    1    2   11     -2.64      0.00
   -4    3   11      0.83      0.00
   -1    3   11      0.69      0.00
    2    3   11     -0.89      0.00
   -6    4   11     -2.91      0.00
   -3    4   11     -0.79      0.00
    0    4   11      4.75      0.00
    3    4   11      0.29      0.00
   -8    5   11     -2.17      0.00
   -5    5   11      1.18      0.00
   -2    5   11      0.56      0.00
    1    5   11     -0.59      0.00
    4    5   11      4.92      0.00
  -10    6   11      0.45      0.00
   -7    6   11     -0.61      0.00
   -4    6   11     -1.64      0.00
   -1    6   11      0.44      0.00
    2    6   11      1.61      0.00
  -12    7   11      1.43      0.00
   -9    7   11      2.17      0.00
   -6    7   11     -0.92      0.00
   -3    7   11      2.18      0.00
    0    7   11     -1.78      0.00
    3    7   11     -1.54      0.00
    6    7   11      1.04      0.00
  -14    8   11      0.02      0.00
  -11    8   11     -4.04      0.00
   -8    8   11      2.76      0.00
   -5    8   11      5.60      0.00
   -2    8   11     -3.89      0.00
    1    8   11      0.59      0.00
    4    8   11     -0.91      0.00
    7    8   11     -6.39      0.00
  -16    9   11     -1.96      0.00
  -13    9   11     -1.03      0.00
  -10    9   11      3.38      0.00
   -7    9   11     -3.98      0.00
   -4    9   11      2.26      0.00
   -1    9   11      1.71      0.00
    2    9   11     -4.37      0.00
    5    9   11     -1.23      0.00
    8    9   11     -2.23      0.00
  -18   10   11     -0.06      0.00
  -15   10   11     -1.14      0.00
  -12   10   11     -1.29      0.00
   -9   10   11     -2.51      0.00
   -6   10   11      2.09      0.00
   -3   10   11     -2.30      0.00
    0   10   11     -0.90      0.00
    3   10   11     -1.06      0.00
    6   10   11     -2.88      0.00
    9   10   11     -0.89      0.00
  -20   11   11     -4.06      0.00
  -17   11   11      0.42      0.00
  -14   11   11     -2.32      0.00
  -11   11   11     -1.17      0.00
   -8   11   11     -1.10      0.00
   -5   11   11     -0.45      0.00
   -2   11   11     -0.79      0.00
    1   11   11      0.69      0.00
    4   11   11     -2.69      0.00
    7   11   11      0.42      0.00
   10   11   11      1.51      0.00
  -22   12   11      1.00      0.00
  -19   12   11     -2.24      0.00
  -16   12   11     -3.93      0.00
  -13   12   11      3.12      0.00
  -10   12   11     -2.03      0.00
   -7   12   11     -2.36      0.00
   -4   12   11      3.66      0.00
   -1   12   11     -1.34      0.00
    2   12   11     -1.91      0.00
    5   12   11      4.18      0.00
    8   12   11      1.91      0.00
   11   12   11      1.07      0.00
  -24   13   11      1.29      0.00
  -21   13   11      0.06      0.00
  -18   13   11      2.30      0.00
  -15   13   11     -0.17      0.00
  -12   13   11     -2.09      0.00
   -9   13   11      3.45      0.00
   -6   13   11      0.66      0.00
   -3   13   11     -3.47      0.00
    0   13   11      4.99      0.00
    3   13   11     -2.27      0.00
    6   13   11      2.34      0.00
    9   13   11      4.20      0.00
   12   13   11      1.52      0.00
  -26   14   11      0.18      0.00
  -23   14   11      2.90      0.00
  -20   14   11     -0.20      0.00
  -17   14   11     -0.35      0.00
  -14   14   11      1.21      0.00
  -11   14   11      1.04      0.00
   -8   14   11     -1.13      0.00
   -5   14   11      2.80      0.00
   -2   14   11      0.58      0.00
    1   14   11     -1.50      0.00
    4   14   11      1.88      0.00
    7   14   11      2.94      0.00
   10   14   11      0.13      0.00
   13   14   11     -0.19      0.00
  -28   15   11      0.75      0.00
  -25   15   11      1.39      0.00
  -22   15   11      3.30      0.00
  -19   15   11      0.32      0.00
  -16   15   11     -2.51      0.00
  -13   15   11     -1.31      0.00
  -10   15   11     -0.74      0.00
   -7   15   11      2.18      0.00
   -4   15   11     -0.09      0.00
   -1   15   11      3.03      0.00
    2   15   11     -0.29      0.00
    5   15   11      0.14      0.00
    8   15   11     -0.65      0.00
   11   15   11      2.68      0.00
   14   15   11      1.09      0.00
  -27   16   11      0.00      0.00
  -24   16   11      4.29      0.00
  -21   16   11      1.03      0.00
  -18   16   11      2.55      0.00
  -15   16   11     -4.80      0.00
  -12   16   11     -0.16      0.00
   -9   16   11      0.75      0.00
   -6   16   11     -1.24      0.00
   -3   16   11      4.27      0.00
    0   16   11      2.81      0.00
    3   16   11     -1.98      0.00
    6   16   11     -0.84      0.00
    9   16   11     -1.06      0.00
   12   16   11      2.54      0.00
  -29   17   11      2.93      0.00
  -26   17   11      0.38      0.00
  -23   17   11      5.41      0.00
  -20   17   11      1.63      0.00
  -17   17   11     -0.52      0.00
  -14   17   11      2.54      0.00
  -11   17   11     -2.11      0.00
   -8   17   11      1.59      0.00
   -5   17   11      2.14      0.00
   -2   17   11     -0.29      0.00
    1   17   11      3.58      0.00
    4   17   11     -0.73      0.00
    7   17   11     -4.36      0.00
   10   17   11      0.61      0.00
  -28   18   11     -3.43      0.00
  -25   18   11      1.43      0.00
  -22   18   11      1.16      0.00
  -19   18   11      2.93      0.00
  -16   18   11     -1.23      0.00
  -13   18   11      3.56      0.00
  -10   18   11      2.15      0.00
   -7   18   11     -2.12      0.00
   -4   18   11      0.59      0.00
   -1   18   11      2.35      0.00
    2   18   11      1.05      0.00
    5   18   11     -2.45      0.00
    8   18   11     -2.10      0.00
   11   18   11      1.71      0.00
  -27   19   11     -2.82      0.00
  -24   19   11      0.05      0.00
  -21   19   11     -1.43      0.00
  -18   19   11     -0.99      0.00
  -15   19   11      1.49      0.00
  -12   19   11      1.00      0.00
   -9   19   11      0.86      0.00
   -6   19   11      0.03      0.00
   -3   19   11     -2.28      0.00
    0   19   11      2.73      0.00
    3   19   11      1.36      0.00
    6   19   11      1.05      0.00
    9   19   11     -2.34      0.00
  -26   20   11      0.24      0.00
  -23   20   11      3.24      0.00
  -20   20   11     -1.86      0.00
  -17   20   11     -1.09      0.00
  -14   20   11     -0.06      0.00
  -11   20   11     -0.41      0.00
   -8   20   11      1.36      0.00
   -5   20   11     -1.01      0.00
   -2   20   11     -0.05      0.00
    1   20   11      3.22      0.00
    4   20   11     -0.04      0.00
    7   20   11      0.93      0.00
  -28   21   11      1.14      0.00
  -25   21   11      2.58      0.00
  -22   21   11      2.72      0.00
  -19   21   11      1.80      0.00
  -16   21   11     -0.86      0.00
  -13   21   11     -0.83      0.00
  -10   21   11     -0.39      0.00
   -7   21   11      0.91      0.00
   -4   21   11      1.48      0.00
   -1   21   11      0.09      0.00
    2   21   11     -0.83      0.00
    5   21   11      3.38      0.00
  -27   22   11     -0.81      0.00
  -24   22   11      5.43      0.00
  -21   22   11     -0.19      0.00
  -18   22   11      2.18      0.00
  -15   22   11     -2.19      0.00
  -12   22   11     -2.02      0.00
   -9   22   11      1.63      0.00
   -6   22   11      0.23      0.00
   -3   22   11      0.10      0.00
    0   22   11     -0.28      0.00
    3   22   11      1.42      0.00
    6   22   11     -0.79      0.00
  -26   23   11      1.45      0.00
  -23   23   11      0.15      0.00
  -20   23   11     -0.13      0.00
  -17   23   11     -1.61      0.00
  -14   23   11     -1.09      0.00
  -11   23   11     -0.70      0.00
   -8   23   11     -0.48      0.00
   -5   23   11      0.85      0.00
   -2   23   11     -0.63      0.00
    1   23   11      0.16      0.00
    4   23   11      2.44      0.00
  -25   24   11      0.34      0.00
  -22   24   11     -2.00      0.00
  -19   24   11     -0.75      0.00
  -16   24   11     -1.29      0.00
  -13   24   11      0.05      0.00
  -10   24   11      2.04      0.00
   -7   24   11     -0.69      0.00
   -4   24   11     -0.08      0.00
   -1   24   11     -1.80      0.00
    2   24   11      5.91      0.00
  -24   25   11      0.03      0.00
  -21   25   11     -0.68      0.00
  -18   25   11     -0.98      0.00
  -15   25   11      1.79      0.00
  -12   25   11      1.46      0.00
   -9   25   11      1.00      0.00
   -6   25   11     -0.11      0.00
   -3   25   11     -1.77      0.00
    0   25   11      2.40      0.00
  -23   26   11      0.62      0.00
  -20   26   11     -0.27      0.00
  -17   26   11      1.95      0.00
  -14   26   11     -0.26      0.00
  -11   26   11      1.90      0.00
   -8   26   11     -1.29      0.00
   -5   26   11     -0.68      0.00
  -22   27   11     -0.12      0.00
  -19   27   11      0.15      0.00
  -16   27   11     -0.32      0.00
  -13   27   11     -2.34      0.00
  -10   27   11     -0.31      0.00
   -7   27   11     -1.43      0.00
  -21   28   11     -1.38      0.00
  -18   28   11      1.18      0.00
  -15   28   11     -3.26      0.00
  -12   28   11     -1.45      0.00
  -17   29   11     -2.38      0.00
  -14   29   11     -0.87      0.00
    1    1   12     -4.10      0.00
   -1    2   12     -4.02      0.00
    2    2   12     -0.44      0.00
   -3    3   12     -0.77      0.00
    0    3   12      1.31      0.00
    3    3   12     -1.53      0.00
   -5    4   12     -1.13      0.00
   -2    4   12      2.44      0.00
    1    4   12     -0.54      0.00
    4    4   12     -1.30      0.00
   -7    5   12     -1.31      0.00
   -4    5   12     -1.01      0.00
   -1    5   12      3.67      0.00
    2    5   12      0.43      0.00
    5    5   12      0.82      0.00
   -9    6   12     -0.15      0.00
   -6    6   12     -1.86      0.00
   -3    6   12      4.63      0.00
    0    6   12      0.71      0.00
    3    6   12      0.44      0.00
    6    6   12      2.89      0.00
  -11    7   12      3.37      0.00
   -8    7   12      0.26      0.00
   -5    7   12      2.00      0.00
   -2    7   12      1.79      0.00
    1    7   12      1.44      0.00
    4    7   12      0.71      0.00
    7    7   12      0.87      0.00
  -13    8   12      0.10      0.00
  -10    8   12      2.55      0.00
   -7    8   12     -1.00      0.00
   -4    8   12      2.47      0.00
   -1    8   12      1.76      0.00
    2    8   12      0.28      0.00
    5    8   12      1.54      0.00
    8    8   12     -1.27      0.00
  -15    9   12     -0.99      0.00
  -12    9   12      2.28      0.00
   -9    9   12     -1.83      0.00
   -6    9   12      1.88      0.00
   -3    9   12     -0.23      0.00
    0    9   12     -0.62      0.00
    3    9   12      0.89      0.00
    9    9   12     -1.71      0.00
  -17   10   12     -3.05      0.00
  -14   10   12     -0.04      0.00
  -11   10   12      3.51      0.00
   -8   10   12      0.75      0.00
   -5   10   12     -1.61      0.00
   -2   10   12     -0.36      0.00
    1   10   12     -0.58      0.00
    4   10   12      1.42      0.00
    7   10   12      1.71      0.00
   10   10   12      1.97      0.00
  -19   11   12     -0.73      0.00
  -16   11   12     -0.70      0.00
  -13   11   12      1.96      0.00
  -10   11   12      0.00      0.00
   -7   11   12      1.08      0.00
   -4   11   12      2.00      0.00
   -1   11   12     -3.41      0.00
    2   11   12     -0.58      0.00
    5   11   12      3.01      0.00
    8   11   12     -1.70      0.00
   11   11   12     -1.38      0.00
  -21   12   12      0.03      0.00
  -18   12   12     -2.16      0.00
  -15   12   12     -0.29      0.00
  -12   12   12     -0.16      0.00
   -9   12   12      0.11      0.00
   -6   12   12      0.11      0.00
   -3   12   12      2.20      0.00
    0   12   12     -0.76      0.00
    3   12   12     -2.12      0.00
    6   12   12     -0.04      0.00
    9   12   12     -4.28      0.00
  -20   13   12      0.28      0.00
  -17   13   12     -0.64      0.00
  -11   13   12     -0.57      0.00
   -8   13   12     -2.15      0.00
   -5   13   12      4.46      0.00
   -2   13   12      0.79      0.00
    1   13   12      0.43      0.00
    4   13   12     -1.22      0.00
    7   13   12     -4.48      0.00
  -19   14   12      1.15      0.00
  -16   14   12      2.02      0.00
  -10   14   12     -1.63      0.00
   -7   14   12      1.09      0.00
   -4   14   12      4.97      0.00
   -1   14   12      0.71      0.00
    2   14   12      0.84      0.00
    5   14   12      0.33      0.00
  -21   15   12     -0.26      0.00
  -18   15   12      0.66      0.00
  -15   15   12      2.08      0.00
   -9   15   12     -0.44      0.00
   -6   15   12      3.08      0.00
   -3   15   12      1.39      0.00
    0   15   12      1.28      0.00
    3   15   12     -0.60      0.00
    6   15   12      1.50      0.00
  -20   16   12     -0.69      0.00
  -17   16   12     -0.53      0.00
  -11   16   12      0.85      0.00
   -8   16   12      2.61      0.00
   -5   16   12      1.86      0.00
   -2   16   12     -4.11      0.00
    1   16   12      0.27      0.00
    4   16   12      0.44      0.00
  -19   17   12     -1.19      0.00
  -16   17   12     -1.09      0.00
  -10   17   12      0.82      0.00
   -7   17   12      2.13      0.00
   -4   17   12     -2.54      0.00
   -1   17   12     -2.79      0.00
    2   17   12     -6.09      0.00
  -18   18   12     -0.89      0.00
  -15   18   12     -0.13      0.00
   -9   18   12      1.78      0.00
   -6   18   12      0.56      0.00
   -3   18   12     -3.81      0.00
    0   18   12     -3.66      0.00
  -17   19   12      0.19      0.00
  -11   19   12      0.70      0.00
   -8   19   12      0.74      0.00
   -5   19   12     -0.98      0.00
   -2   19   12      0.53      0.00
  -16   20   12     -0.08      0.00
   -7   20   12     -0.70      0.00
   -4   20   12      0.50      0.00
   -6   21   12     -0.54      0.00
  -45   48    0     -0.44      0.00
  -44   49    0     -0.67      0.00
   -5   49    0      2.89      0.00
  -43   50    0      2.66      0.00
   -7   50    0      0.31      0.00
  -38   52    0      1.49      0.00
  -14   52    0     -0.63      0.00
  -37   53    0      0.26      0.00
  -16   53    0     -1.26      0.00
   26   28    1      2.62      0.00
   23   31    1     -1.11      0.00
   18   35    1      0.56      0.00
  -53   36    1      2.14      0.00
   13   39    1     -3.27      0.00
   11   40    1     -0.87      0.00
  -51   41    1      0.12      0.00
  -50   42    1     -0.94      0.00
  -49   43    1      1.47      0.00
  -43   49    1     -0.46      0.00
  -42   50    1     -2.25      0.00
  -41   51    1      0.28      0.00
  -11   51    1      0.78      0.00
  -37   52    1     -0.83      0.00
  -13   52    1      2.56      0.00
  -36   53    1      0.75      0.00
  -30   53    1      0.13      0.00
  -27   53    1      1.31      0.00
  -24   53    1      2.13      0.00
  -21   53    1      0.27      0.00
  -18   53    1     -1.96      0.00
  -53   32    2      0.99      0.00
   20   33    2     -3.24      0.00
  -52   36    2      1.33      0.00
   15   37    2     -0.13      0.00
  -51   40    2      0.93      0.00
  -50   41    2      0.15      0.00
    8   42    2      1.08      0.00
    6   43    2      1.69      0.00
    4   44    2      2.60      0.00
    2   45    2     -0.76      0.00
    0   46    2      0.85      0.00
   -2   47    2     -0.95      0.00
   -7   48    2      0.78      0.00
   -4   48    2     -0.40      0.00
  -12   49    2     -4.45      0.00
   -9   49    2      0.65      0.00
   -6   49    2     -1.19      0.00
  -41   50    2     -2.73      0.00
  -11   50    2     -0.47      0.00
   -8   50    2     -1.78      0.00
  -40   51    2     -3.76      0.00
  -13   51    2     -2.33      0.00
  -36   52    2     -0.52      0.00
  -18   52    2      4.08      0.00
  -15   52    2      1.54      0.00
  -32   53    2      1.92      0.00
  -29   53    2      1.42      0.00
  -23   53    2      2.12      0.00
  -20   53    2      2.34      0.00
   23   29    3      1.32      0.00
  -52   32    3     -0.74      0.00
   20   32    3      1.14      0.00
  -51   36    3     -0.78      0.00
   15   36    3     -0.58      0.00
  -50   40    3      2.61      0.00
   10   40    3      1.33      0.00
  -49   41    3     -1.26      0.00
    8   41    3     -0.22      0.00
   -2   46    3      0.61      0.00
  -43   47    3      2.33      0.00
   -4   47    3     -0.61      0.00
   -9   48    3     -3.05      0.00
   -6   48    3     -0.65      0.00
  -41   49    3      1.40      0.00
  -11   49    3      0.03      0.00
   -8   49    3     -3.31      0.00
  -40   50    3     -0.64      0.00
  -19   50    3     -3.53      0.00
  -16   50    3     -0.83      0.00
  -13   50    3     -0.66      0.00
  -10   50    3      0.07      0.00
  -36   51    3     -0.18      0.00
  -15   51    3      0.93      0.00
  -32   52    3      0.99      0.00
  -20   52    3     -1.96      0.00
   14   25    4      1.23      0.00
  -51   26    4      2.59      0.00
   23   28    4     -0.79      0.00
  -51   29    4     -3.26      0.00
   20   31    4     -1.60      0.00
  -51   32    4     -1.24      0.00
   18   32    4      1.33      0.00
   15   35    4     -2.40      0.00
  -50   36    4     -0.99      0.00
  -49   37    4     -1.51      0.00
   10   39    4      0.23      0.00
    8   40    4      1.92      0.00
  -48   41    4     -0.09      0.00
  -47   42    4     -3.53      0.00
  -46   43    4     -2.52      0.00
  -45   44    4      0.81      0.00
  -44   45    4      1.28      0.00
  -43   46    4      1.19      0.00
  -10   46    4      2.64      0.00
   -7   46    4     -0.93      0.00
   -4   46    4      1.24      0.00
  -42   47    4     -0.67      0.00
   -6   47    4      1.62      0.00
  -41   48    4     -2.44      0.00
  -20   48    4     -2.38      0.00
  -11   48    4      2.41      0.00
   -8   48    4      0.03      0.00
  -37   49    4     -0.40      0.00
  -19   49    4     -4.20      0.00
  -16   49    4     -1.20      0.00
  -13   49    4     -1.39      0.00
  -10   49    4      1.25      0.00
  -36   50    4     -1.69      0.00
  -15   50    4     -2.88      0.00
  -32   51    4     -0.89      0.00
  -29   51    4      3.68      0.00
  -23   51    4     -0.28      0.00
  -20   51    4      0.14      0.00
  -50   26    5     -0.50      0.00
   23   27    5      0.55      0.00
   21   28    5     -1.82      0.00
  -50   29    5      5.67      0.00
   19   29    5     -0.03      0.00
   20   30    5      0.02      0.00
   18   31    5     -2.86      0.00
   16   32    5     -4.17      0.00
  -49   33    5      0.77      0.00
  -22   33    5      5.53      0.00
  -21   34    5     -6.39      0.00
   15   34    5     -0.69      0.00
   13   35    5     -1.46      0.00
   11   36    5     -1.58      0.00
  -48   37    5     -0.65      0.00
  -39   37    5      4.93      0.00
  -47   38    5      1.28      0.00
  -38   38    5      0.64      0.00
  -46   39    5      5.22      0.00
  -40   39    5      1.49      0.00
  -37   39    5     -0.17      0.00
    8   39    5     -1.07      0.00
  -39   40    5      3.12      0.00
  -36   40    5     -3.58      0.00
    6   40    5     -0.73      0.00
  -38   41    5      2.33      0.00
  -35   41    5     -0.46      0.00
    4   41    5      2.13      0.00
  -37   42    5      2.33      0.00
  -34   42    5      4.44      0.00
  -39   43    5      4.27      0.00
  -36   43    5      3.50      0.00
  -33   43    5      5.96      0.00
    0   43    5      1.96      0.00
  -38   44    5     -3.13      0.00
  -35   44    5      5.40      0.00
  -32   44    5      1.24      0.00
  -34   45    5      0.84      0.00
  -31   45    5     -3.44      0.00
  -13   45    5      3.93      0.00
   -4   45    5      0.37      0.00
  -33   46    5     -2.63      0.00
  -30   46    5     -5.39      0.00
  -27   46    5     -2.22      0.00
  -12   46    5     -1.26      0.00
   -6   46    5     -0.71      0.00
  -38   47    5      0.13      0.00
  -35   47    5     -0.07      0.00
  -26   47    5     -5.16      0.00
  -11   47    5     -2.78      0.00
   -8   47    5     -1.90      0.00
  -37   48    5      2.36      0.00
  -34   48    5     -2.23      0.00
  -31   48    5     -4.14      0.00
  -28   48    5     -2.74      0.00
  -25   48    5      0.05      0.00
  -22   48    5      0.14      0.00
  -19   48    5      1.50      0.00
  -13   48    5     -1.55      0.00
  -33   49    5      0.04      0.00
  -30   49    5     -2.49      0.00
  -27   49    5     -0.23      0.00
  -24   49    5      2.71      0.00
  -21   49    5      2.90      0.00
  -18   49    5      4.99      0.00
  -15   49    5      1.08      0.00
  -29   50    5      0.47      0.00
  -26   50    5      0.47      0.00
  -23   50    5      2.67      0.00
  -20   50    5      4.19      0.00
   24   24    6     -1.90      0.00
  -48   27    6     -2.60      0.00
   21   27    6      0.03      0.00
  -48   30    6      1.12      0.00
   18   30    6      1.08      0.00
  -47   31    6     -1.05      0.00
   16   31    6      2.65      0.00
   14   32    6      1.74      0.00
   12   33    6     -0.99      0.00
  -46   35    6      0.79      0.00
   11   35    6     -0.49      0.00
  -45   36    6      1.65      0.00
    9   36    6     -1.21      0.00
  -42   42    6      1.83      0.00
    0   42    6     -1.56      0.00
  -34   44    6     -5.90      0.00
  -36   45    6     -2.72      0.00
  -35   46    6     -3.26      0.00
  -32   46    6      3.10      0.00
  -29   46    6      1.48      0.00
  -26   46    6      2.34      0.00
  -23   46    6     -2.05      0.00
  -14   46    6      2.72      0.00
  -11   46    6      2.91      0.00
  -31   47    6      3.65      0.00
  -28   47    6      3.96      0.00
  -25   47    6     -0.76      0.00
  -22   47    6      1.45      0.00
  -19   47    6     -0.64      0.00
  -16   47    6      3.77      0.00
  -30   48    6      3.19      0.00
  -27   48    6      2.60      0.00
  -24   48    6     -0.87      0.00
  -21   48    6      3.24      0.00
  -18   48    6      0.37      0.00
   22   24    7      1.41      0.00
  -46   25    7     -0.99      0.00
   19   27    7      0.88      0.00
  -45   29    7      2.30      0.00
   14   31    7      1.71      0.00
   12   32    7      3.88      0.00
  -44   33    7      3.69      0.00
    7   36    7      3.60      0.00
    5   37    7      2.90      0.00
    3   38    7      1.06      0.00
  -41   39    7     -1.60      0.00
    1   39    7      0.23      0.00
  -40   40    7     -1.14      0.00
   -1   40    7      1.37      0.00
  -39   41    7     -0.09      0.00
  -33   41    7      3.21      0.00
   -3   41    7      2.16      0.00
  -35   42    7     -0.18      0.00
  -23   42    7      1.24      0.00
   -5   42    7      1.77      0.00
  -34   43    7      6.58      0.00
  -31   43    7      1.83      0.00
  -28   43    7      0.64      0.00
  -22   43    7     -1.28      0.00
   -7   43    7      1.23      0.00
  -33   44    7      2.35      0.00
  -30   44    7      1.15      0.00
  -27   44    7      0.34      0.00
  -12   44    7     -1.72      0.00
  -29   45    7     -0.02      0.00
  -26   45    7     -0.82      0.00
  -23   45    7      2.42      0.00
  -20   45    7      1.71      0.00
  -17   45    7      0.92      0.00
  -14   45    7     -3.16      0.00
  -25   46    7      3.75      0.00
  -22   46    7      0.27      0.00
  -19   46    7      2.98      0.00
   21   22    8     -3.59      0.00
  -43   24    8      1.20      0.00
   18   25    8      2.13      0.00
  -42   28    8      0.91      0.00
   13   29    8      1.39      0.00
  -41   32    8      2.08      0.00
    6   34    8      2.80      0.00
    4   35    8      0.98      0.00
    2   36    8      1.87      0.00
    0   37    8      1.54      0.00
  -32   38    8      2.29      0.00
   -2   38    8      2.37      0.00
  -34   39    8      0.71      0.00
   -4   39    8      3.05      0.00
  -33   40    8      0.26      0.00
  -30   40    8      0.89      0.00
  -27   40    8      2.75      0.00
   -6   40    8      0.50      0.00
  -32   41    8     -1.83      0.00
  -29   41    8      0.59      0.00
  -26   41    8     -1.05      0.00
  -28   42    8     -0.67      0.00
  -25   42    8     -2.73      0.00
  -13   42    8     -3.18      0.00
  -24   43    8     -1.89      0.00
  -21   43    8      0.09      0.00
  -18   43    8     -1.97      0.00
   20   20    9     -2.67      0.00
  -39   21    9     -1.85      0.00
  -39   24    9      1.01      0.00
   15   24    9     -4.99      0.00
   13   25    9     -3.24      0.00
  -39   27    9      4.05      0.00
   12   27    9      3.26      0.00
   10   28    9     -0.26      0.00
  -36   33    9      2.75      0.00
    3   33    9     -0.06      0.00
  -35   34    9      3.71      0.00
  -32   34    9     -0.76      0.00
    1   34    9      2.16      0.00
  -34   35    9     -1.02      0.00
  -31   35    9      0.44      0.00
   -1   35    9      0.49      0.00
  -33   36    9     -2.76      0.00
  -30   36    9     -0.54      0.00
   -3   36    9     -3.58      0.00
  -29   37    9     -2.79      0.00
  -28   38    9     -3.66      0.00
  -10   38    9     -2.52      0.00
  -27   39    9     -3.73      0.00
  -24   39    9     -2.09      0.00
  -21   39    9     -3.91      0.00
  -15   39    9     -1.47      0.00
  -12   39    9     -4.02      0.00
  -20   40    9     -3.34      0.00
  -35   18   10      2.61      0.00
   15   20   10      1.80      0.00
  -35   21   10      0.22      0.00
   13   21   10      2.57      0.00
   11   22   10     -1.70      0.00
   12   23   10     -1.04      0.00
  -35   24   10      1.90      0.00
   10   24   10      0.83      0.00
    8   25   10      3.67      0.00
    6   26   10      1.05      0.00
    5   28   10     -3.71      0.00
  -30   29   10      4.39      0.00
    3   29   10     -1.14      0.00
  -32   30   10      2.43      0.00
  -29   30   10      2.09      0.00
    1   30   10      2.69      0.00
  -31   31   10      1.45      0.00
  -28   31   10     -0.91      0.00
   -1   31   10      1.04      0.00
  -30   32   10      1.40      0.00
  -27   32   10     -0.18      0.00
   -3   32   10     -0.23      0.00
  -26   33   10      0.86      0.00
   -5   33   10     -2.02      0.00
  -25   34   10      2.87      0.00
  -24   35   10     -0.23      0.00
  -21   35   10      2.88      0.00
  -18   35   10      1.10      0.00
  -15   35   10      3.04      0.00
  -12   35   10      1.13      0.00
    5    6   11      0.78      0.00
  -30   16   11      3.76      0.00
   13   17   11      0.41      0.00
  -30   19   11     -0.74      0.00
  -29   20   11     -0.99      0.00
   10   20   11      1.41      0.00
    8   21   11     -3.15      0.00
  -28   24   11     -0.31      0.00
  -27   25   11      3.73      0.00
  -26   26   11     -1.26      0.00
   -2   26   11     -2.16      0.00
  -25   27   11     -1.87      0.00
   -4   27   11     -2.78      0.00
  -24   28   11     -0.21      0.00
   -9   28   11     -1.53      0.00
   -6   28   11     -1.56      0.00
  -20   29   11     -0.24      0.00
  -11   29   11      1.72      0.00
   -8   29   11     -1.64      0.00
  -19   30   11     -0.17      0.00
  -16   30   11     -2.64      0.00
  -13   30   11      0.42      0.00
  -10   30   11      2.46      0.00
    0    0   12     -7.86      0.00
    6    9   12      4.30      0.00
  -23   13   12     -1.16      0.00
  -14   13   12     -0.11      0.00
   10   13   12     -5.20      0.00
  -22   14   12     -1.78      0.00
  -13   14   12      1.22      0.00
    8   14   12     -6.79      0.00
  -12   15   12      3.45      0.00
  -14   16   12      2.73      0.00
  -22   17   12     -0.58      0.00
  -13   17   12      0.97      0.00
    5   17   12      2.17      0.00
  -21   18   12     -1.08      0.00
  -12   18   12     -0.10      0.00
    3   18   12     -3.49      0.00
  -20   19   12     -1.18      0.00
  -14   19   12     -0.05      0.00
    1   19   12     -3.35      0.00
  -19   20   12      0.31      0.00
  -13   20   12      1.02      0.00
  -10   20   12     -0.11      0.00
   -1   20   12      0.37      0.00
  -18   21   12      0.80      0.00
  -15   21   12      1.10      0.00
  -12   21   12      1.01      0.00
   -9   21   12     -2.07      0.00
   -3   21   12     -0.32      0.00
  -17   22   12      0.81      0.00
  -14   22   12      1.73      0.00
  -11   22   12     -0.65      0.00
   -8   22   12     -2.21      0.00
   -5   22   12     -0.63      0.00
  -13   23   12      0.74      0.00
  -10   23   12     -1.67      0.00
    0    0    0      0.00      0.00
# SQUEEZE RESULTS
# Note: Data are Listed for all Voids in the P1 Unit Cell
# i.e. Centre of Gravity, Solvent Accessible Volume,
# Recovered number of Electrons in the Void and
# Details about the Squeezed Material
loop_
  _platon_squeeze_void_nr
  _platon_squeeze_void_average_x
  _platon_squeeze_void_average_y
  _platon_squeeze_void_average_z
  _platon_squeeze_void_volume
  _platon_squeeze_void_count_electrons
  _platon_squeeze_void_content
   1  0.000  0.000 -0.012      2273       689 ' '
   2  0.333  0.667  0.827      2269       688 ' '
   3  0.667  0.333  0.493      2266       687 ' '
_platon_squeeze_void_probe_radius                  1.20
_platon_squeeze_details
)
TITL 2         R -3         R = 0.13
CELL   42.4897   42.4897   10.4000     90.00     90.00    120.00
SPGR R-3
# Solvent Accessible Volume =    6942.9
# Electrons Found in S.A.V. =    2061.9
# Note: Atoms in Void as Cxxx and Qxxx all others
C101 0.556 0.673 0.376 !       4.29 eA-3
C102 0.655 0.557 0.249 !       3.57 eA-3
C103 0.760 0.976 0.193 !       1.78 eA-3
C104 0.360 0.530 0.179 !       1.56 eA-3
C105 0.448 0.118 0.152 !       1.42 eA-3
C106 0.136 0.151 0.437 !       1.28 eA-3
C107 0.338 0.523 0.141 !       1.23 eA-3
C108 0.242 0.039 0.025 !       1.04 eA-3
C109 0.476 0.663 0.066 !       0.97 eA-3
C110 0.868 0.313 0.277 !       0.97 eA-3
C111 0.021 0.149 0.392 !       0.95 eA-3
C112 0.128 0.977 0.371 !       0.95 eA-3
Q113 0.760 0.546 0.218 !       0.95 eA-3
Q114 0.846 0.863 0.301 !       0.94 eA-3
C115 0.783 0.779 0.059 !       0.90 eA-3
C116 0.658 0.366 0.033 !       0.88 eA-3
C117 0.126 0.978 0.470 !       0.84 eA-3
C118 0.671 0.383 0.004 !       0.84 eA-3
C119 0.290 0.639 0.366 !       0.79 eA-3
C120 0.011 0.952 0.359 !       0.77 eA-3
C121 0.731 0.353 0.996 !       0.77 eA-3
C122 0.288 0.616 0.134 !       0.75 eA-3
C123 0.328 0.638 0.398 !       0.75 eA-3
C124 0.362 0.686 0.406 !       0.75 eA-3
C125 1.000 1.001 0.283 !       0.75 eA-3
C126 0.306 0.681 0.343 !       0.74 eA-3
C127 0.992 0.965 0.761 !       0.74 eA-3
C128 0.729 0.334 0.048 !       0.74 eA-3
C129 0.692 0.294 0.048 !       0.74 eA-3
C130 0.227 0.718 0.241 !       0.73 eA-3
C131 0.175 0.565 0.046 !       0.73 eA-3
C132 0.274 0.652 0.281 !       0.71 eA-3
C133 0.708 0.382 0.031 !       0.71 eA-3
C134 0.611 0.327 0.957 !       0.71 eA-3
C135 0.716 0.390 0.977 !       0.71 eA-3
C136 0.372 0.704 0.285 !       0.67 eA-3
Q137 0.898 0.087 0.188 !       0.67 eA-3
C138 0.293 0.688 0.272 !       0.63 eA-3
C139 0.079 0.925 0.408 !       0.62 eA-3
C140 0.703 0.380 0.119 !       0.62 eA-3
C141 0.394 0.740 0.051 !       0.62 eA-3
C142 0.321 0.632 0.171 !       0.62 eA-3
Q143 0.262 0.485 0.867 !       0.59 eA-3
C144 0.258 0.570 0.351 !       0.59 eA-3
Q145 0.578 0.244 0.337 !       0.59 eA-3
Q146 0.093 0.094 0.970 !       0.57 eA-3
C147 0.362 0.593 0.088 !       0.56 eA-3
Q148 0.454 0.212 0.343 !       0.56 eA-3
Q149 0.907 0.094 0.240 !       0.55 eA-3
C150 0.245 0.561 0.276 !       0.54 eA-3
C151 0.409 0.691 0.153 !       0.54 eA-3
C152 0.319 0.731 0.133 !       0.54 eA-3
C153 0.925 0.983 0.484 !       0.53 eA-3
C154 0.421 0.717 0.290 !       0.53 eA-3
Q155 0.905 0.844 0.228 !       0.52 eA-3
C156 0.898 0.943 0.419 !       0.52 eA-3
C157 0.102 0.093 0.483 !       0.51 eA-3
Q158 0.993 0.064 0.205 !       0.51 eA-3
Q159 0.094 0.999 0.117 !       0.51 eA-3
Q160 0.376 0.556 0.365 !       0.50 eA-3
C161 0.968 0.935 0.137 !       0.50 eA-3
Q162 0.512 0.295 0.076 !       0.50 eA-3
Q163 0.844 0.446 0.260 !       0.50 eA-3
C164 0.384 0.791 0.028 !       0.50 eA-3
)
;
_shelx_shelxl_version_number     2014/7
_olex2_submission_special_instructions 'No special instructions were received'
loop_
_space_group_symop_operation_xyz
'x, y, z'
'-y, x-y, z'
'-x+y, -x, z'
'x+2/3, y+1/3, z+1/3'
'-y+2/3, x-y+1/3, z+1/3'
'-x+y+2/3, -x+1/3, z+1/3'
'x+1/3, y+2/3, z+2/3'
'-y+1/3, x-y+2/3, z+2/3'
'-x+y+1/3, -x+2/3, z+2/3'
'-x, -y, -z'
'y, -x+y, -z'
'x-y, x, -z'
'-x+2/3, -y+1/3, -z+1/3'
'y+2/3, -x+y+1/3, -z+1/3'
'x-y+2/3, x+1/3, -z+1/3'
'-x+1/3, -y+2/3, -z+2/3'
'y+1/3, -x+y+2/3, -z+2/3'
'x-y+1/3, x+2/3, -z+2/3'
loop_
_atom_site_label
_atom_site_type_symbol
_atom_site_fract_x
_atom_site_fract_y
_atom_site_fract_z
_atom_site_U_iso_or_equiv
_atom_site_adp_type
_atom_site_occupancy
_atom_site_site_symmetry_order
_atom_site_calc_flag
_atom_site_refinement_flags_posn
_atom_site_refinement_flags_adp
_atom_site_refinement_flags_occupancy
_atom_site_disorder_assembly
_atom_site_disorder_group
Zn1 Zn 0.8333 0.6667 0.1667 0.0683(2) Uani 1 2 d S T P . .
Zn2 Zn 0.76210(2) 0.62789(2) -0.01921(4) 0.0728(2) Uani 1 1 d . . . . .
O2 O 0.65777(8) 0.84075(7) 0.0366(2) 0.0779(6) Uani 1 1 d . . . . .
O4 O 0.74197(7) 0.64744(8) 0.1059(2) 0.0867(8) Uani 1 1 d . . . . .
O3 O 0.79395(7) 0.67857(9) 0.2139(2) 0.0856(8) Uani 1 1 d . . . . .
O1 O 0.67886(9) 0.88863(8) 0.1622(3) 0.0925(8) Uani 1 1 d . . . . .
O6 O 0.76071(8) 0.58403(8) 0.0482(3) 0.0932(8) Uani 1 1 d . . . . .
O5 O 0.80067(8) 0.61245(9) 0.2082(3) 0.0898(8) Uani 1 1 d . . . . .
N1 N 0.73079(9) 0.78071(8) 0.5330(3) 0.0699(7) Uani 1 1 d . . . . .
H1 H 0.7462 0.7761 0.5910 0.084 Uiso 1 1 calc R . . . .
C13 C 0.74529(10) 0.68686(10) 0.2722(3) 0.0692(8) Uani 1 1 d . . . . .
C2 C 0.70053(10) 0.84777(9) 0.2013(3) 0.0703(8) Uani 1 1 d . . . . .
C1 C 0.67905(11) 0.86075(10) 0.1297(3) 0.0739(9) Uani 1 1 d . . . . .
C16 C 0.76180(10) 0.66956(11) 0.1914(3) 0.0723(9) Uani 1 1 d . . . . .
C10 C 0.71793(10) 0.72377(10) 0.4126(3) 0.0700(8) Uani 1 1 d . . . . .
C5 C 0.73703(11) 0.82131(10) 0.3497(3) 0.0727(9) Uani 1 1 d . . . . .
C6 C 0.71823(13) 0.80314(11) 0.2391(3) 0.0833(11) Uani 1 1 d . . . . .
H6 H 0.7178 0.7819 0.2143 0.100 Uiso 1 1 calc R . . . .
C7 C 0.70044(12) 0.81617(10) 0.1667(3) 0.0806(10) Uani 1 1 d . . . . .
H7 H 0.6881 0.8037 0.0930 0.097 Uiso 1 1 calc R . . . .
C14 C 0.71242(11) 0.68410(12) 0.2391(4) 0.0809(10) Uani 1 1 d . . . . .
H14 H 0.6992 0.6695 0.1702 0.097 Uiso 1 1 calc R . . . .
C3 C 0.71963(11) 0.86640(10) 0.3102(3) 0.0757(9) Uani 1 1 d . . . . .
H3 H 0.7204 0.8878 0.3343 0.091 Uiso 1 1 calc R . . . .
C12 C 0.76412(11) 0.70742(11) 0.3773(3) 0.0762(9) Uani 1 1 d . . . . .
H12 H 0.7863 0.7095 0.4001 0.091 Uiso 1 1 calc R . . . .
C11 C 0.74986(11) 0.72502(11) 0.4491(3) 0.0792(10) Uani 1 1 d . . . . .
H11 H 0.7620 0.7378 0.5226 0.095 Uiso 1 1 calc R . . . .
C15 C 0.69932(10) 0.70270(11) 0.3071(4) 0.0777(9) Uani 1 1 d . . . . .
H15 H 0.6776 0.7012 0.2821 0.093 Uiso 1 1 calc R . . . .
C4 C 0.73759(11) 0.85286(10) 0.3828(4) 0.0768(9) Uani 1 1 d . . . . .
H4 H 0.7503 0.8655 0.4558 0.092 Uiso 1 1 calc R . . . .
C9 C 0.70293(11) 0.74429(10) 0.4834(4) 0.0743(9) Uani 1 1 d . . . . .
H9A H 0.6867 0.7475 0.4263 0.089 Uiso 1 1 calc R . . . .
H9B H 0.6886 0.7296 0.5555 0.089 Uiso 1 1 calc R . . . .
C17B C 0.5310(3) 0.4442(5) 0.5098(16) 0.064(3) Uani 0.5 1 d . . . A -1
C8 C 0.75566(11) 0.80618(11) 0.4339(4) 0.0780(9) Uani 1 1 d . . . . .
H8A H 0.7645 0.7936 0.3803 0.094 Uiso 1 1 calc R . . . .
H8B H 0.7764 0.8261 0.4761 0.094 Uiso 1 1 calc R . . . .
C19B C 0.7425(4) 0.5169(4) 0.1437(10) 0.179(2) Uani 0.5 1 d . . . A -1
H19B H 0.7402 0.5184 0.0553 0.215 Uiso 0.5 1 calc R . . A -1
C18B C 0.7626(3) 0.5484(3) 0.2155(13) 0.179(2) Uani 0.5 1 d G . . A -1
C23B C 0.7660(3) 0.5461(3) 0.3476(13) 0.179(2) Uani 0.5 1 d G . . A -1
H23B H 0.7794 0.5671 0.3957 0.215 Uiso 0.5 1 calc R . . A -1
C22B C 0.7493(4) 0.5124(3) 0.4079(10) 0.179(2) Uani 0.5 1 d G . . A -1
H22B H 0.7515 0.5109 0.4963 0.215 Uiso 0.5 1 calc R . . A -1
C21B C 0.7292(3) 0.4809(3) 0.3361(12) 0.179(2) Uani 0.5 1 d DG . . A -1
C20B C 0.7258(3) 0.4832(3) 0.2039(12) 0.179(2) Uani 0.5 1 d G . . A -1
H20B H 0.7123 0.4622 0.1559 0.215 Uiso 0.5 1 calc R . . A -1
N2 N 0.6775(4) 0.4428(6) 0.447(2) 0.264(12) Uani 0.5 1 d D . . A -1
H2 H 0.6740 0.4463 0.5260 0.317 Uiso 0.5 1 calc R . . A -1
C19A C 0.5664(4) 0.4157(4) 0.5275(12) 0.179(2) Uani 0.5 1 d . . . A -1
H19A H 0.5533 0.4019 0.5980 0.215 Uiso 0.5 1 calc R . . A -1
C18A C 0.5566(3) 0.4388(4) 0.4677(13) 0.179(2) Uani 0.5 1 d G . . A -1
C23A C 0.5763(3) 0.4594(3) 0.3624(12) 0.179(2) Uani 0.5 1 d G . . A -1
H23A H 0.5697 0.4749 0.3223 0.215 Uiso 0.5 1 calc R . . A -1
C22A C 0.6057(3) 0.4569(3) 0.3170(11) 0.179(2) Uani 0.5 1 d G . . A -1
H22A H 0.6189 0.4707 0.2466 0.215 Uiso 0.5 1 calc R . . A -1
C21A C 0.6155(3) 0.4338(4) 0.3769(13) 0.179(2) Uani 0.5 1 d DG . . A -1
C20A C 0.5959(4) 0.4132(3) 0.4821(13) 0.179(2) Uani 0.5 1 d G . . A -1
H20A H 0.6024 0.3978 0.5222 0.215 Uiso 0.5 1 calc R . . A -1
C24B C 0.7107(5) 0.4442(4) 0.3961(19) 0.179(2) Uani 0.5 1 d D . . A -1
H24A H 0.7049 0.4252 0.3331 0.215 Uiso 0.5 1 calc R . . A -1
H24B H 0.7252 0.4423 0.4642 0.215 Uiso 0.5 1 calc R . . A -1
C24A C 0.6527(4) 0.4348(5) 0.346(2) 0.179(2) Uani 0.5 1 d D . . A -1
H24C H 0.6467 0.4113 0.3113 0.215 Uiso 0.5 1 calc R . . A -1
H24D H 0.6649 0.4526 0.2788 0.215 Uiso 0.5 1 calc R . . A -1
C17A C 0.7777(6) 0.5898(4) 0.1442(19) 0.073(3) Uani 0.5 1 d . . . A -1
loop_
_atom_site_aniso_label
_atom_site_aniso_U_11
_atom_site_aniso_U_22
_atom_site_aniso_U_33
_atom_site_aniso_U_23
_atom_site_aniso_U_13
_atom_site_aniso_U_12
Zn1 0.0663(4) 0.1012(5) 0.0540(4) -0.0201(3) -0.0109(2) 0.0542(4)
Zn2 0.0674(3) 0.1017(4) 0.0603(3) -0.0271(2) -0.01588(18) 0.0504(3)
O2 0.1062(18) 0.0805(15) 0.0528(12) 0.0083(11) 0.0142(12) 0.0509(15)
O4 0.0778(15) 0.121(2) 0.0734(15) -0.0392(14) -0.0159(12) 0.0589(16)
O3 0.0845(16) 0.129(2) 0.0714(14) -0.0327(14) -0.0167(12) 0.0742(17)
O1 0.118(2) 0.0974(19) 0.0896(18) -0.0124(15) -0.0002(16) 0.0747(18)
O6 0.100(2) 0.107(2) 0.0806(18) -0.0188(15) -0.0223(15) 0.0569(17)
O5 0.0987(19) 0.101(2) 0.0694(16) -0.0139(14) -0.0185(14) 0.0496(17)
N1 0.0916(19) 0.0753(17) 0.0576(15) 0.0086(12) 0.0163(13) 0.0527(16)
C13 0.076(2) 0.094(2) 0.0562(17) -0.0132(15) -0.0047(14) 0.0563(19)
C2 0.091(2) 0.0711(19) 0.0536(16) 0.0088(14) 0.0179(15) 0.0444(18)
C1 0.091(2) 0.078(2) 0.0543(17) 0.0101(15) 0.0210(16) 0.0440(19)
C16 0.081(2) 0.103(3) 0.0558(17) -0.0137(17) -0.0070(15) 0.064(2)
C10 0.083(2) 0.079(2) 0.0632(18) 0.0010(15) 0.0074(16) 0.0519(18)
C5 0.094(2) 0.079(2) 0.0545(17) 0.0138(15) 0.0229(16) 0.0504(19)
C6 0.130(3) 0.082(2) 0.0568(19) 0.0010(16) 0.0131(19) 0.067(2)
C7 0.125(3) 0.076(2) 0.0514(17) 0.0013(15) 0.0099(18) 0.058(2)
C14 0.077(2) 0.106(3) 0.078(2) -0.024(2) -0.0089(17) 0.059(2)
C3 0.100(3) 0.068(2) 0.0624(19) 0.0021(15) 0.0104(17) 0.0448(19)
C12 0.087(2) 0.104(3) 0.0620(19) -0.0129(17) -0.0116(16) 0.066(2)
C11 0.104(3) 0.096(3) 0.0656(19) -0.0242(18) -0.0148(18) 0.071(2)
C15 0.073(2) 0.100(3) 0.078(2) -0.0137(19) -0.0028(17) 0.057(2)
C4 0.094(2) 0.073(2) 0.0633(19) 0.0029(16) 0.0095(17) 0.0416(19)
C9 0.088(2) 0.082(2) 0.069(2) 0.0026(16) 0.0169(17) 0.055(2)
C17B 0.032(6) 0.091(5) 0.069(5) 0.011(3) 0.026(5) 0.031(5)
C8 0.090(2) 0.083(2) 0.070(2) 0.0124(17) 0.0206(18) 0.050(2)
C19B 0.186(5) 0.167(4) 0.197(4) 0.064(4) 0.040(4) 0.098(4)
C18B 0.186(5) 0.167(4) 0.197(4) 0.064(4) 0.040(4) 0.098(4)
C23B 0.186(5) 0.167(4) 0.197(4) 0.064(4) 0.040(4) 0.098(4)
C22B 0.186(5) 0.167(4) 0.197(4) 0.064(4) 0.040(4) 0.098(4)
C21B 0.186(5) 0.167(4) 0.197(4) 0.064(4) 0.040(4) 0.098(4)
C20B 0.186(5) 0.167(4) 0.197(4) 0.064(4) 0.040(4) 0.098(4)
N2 0.131(10) 0.34(2) 0.34(3) 0.21(2) 0.058(13) 0.129(13)
C19A 0.186(5) 0.167(4) 0.197(4) 0.064(4) 0.040(4) 0.098(4)
C18A 0.186(5) 0.167(4) 0.197(4) 0.064(4) 0.040(4) 0.098(4)
C23A 0.186(5) 0.167(4) 0.197(4) 0.064(4) 0.040(4) 0.098(4)
C22A 0.186(5) 0.167(4) 0.197(4) 0.064(4) 0.040(4) 0.098(4)
C21A 0.186(5) 0.167(4) 0.197(4) 0.064(4) 0.040(4) 0.098(4)
C20A 0.186(5) 0.167(4) 0.197(4) 0.064(4) 0.040(4) 0.098(4)
C24B 0.186(5) 0.167(4) 0.197(4) 0.064(4) 0.040(4) 0.098(4)
C24A 0.186(5) 0.167(4) 0.197(4) 0.064(4) 0.040(4) 0.098(4)
C17A 0.104(6) 0.063(8) 0.088(8) 0.015(6) -0.004(5) 0.069(6)
loop_
_atom_type_symbol
_atom_type_description
_atom_type_scat_dispersion_real
_atom_type_scat_dispersion_imag
_atom_type_scat_source
C C 0.0181 0.0091 'International Tables Vol C Tables 4.2.6.8 and 6.1.1.4'
H H 0.0000 0.0000 'International Tables Vol C Tables 4.2.6.8 and 6.1.1.4'
N N 0.0311 0.0180 'International Tables Vol C Tables 4.2.6.8 and 6.1.1.4'
O O 0.0492 0.0322 'International Tables Vol C Tables 4.2.6.8 and 6.1.1.4'
Zn Zn -1.5491 0.6778 'International Tables Vol C Tables 4.2.6.8 and 6.1.1.4'
loop_
_geom_angle_atom_site_label_1
_geom_angle_atom_site_label_2
_geom_angle_atom_site_label_3
_geom_angle
_geom_angle_site_symmetry_1
_geom_angle_site_symmetry_3
O2 Zn1 O2 180.0 12_655 6_565
O3 Zn1 O2 92.70(9) . 12_655
O3 Zn1 O2 87.30(9) . 6_565
O3 Zn1 O2 92.71(9) 13_665 6_565
O3 Zn1 O2 87.30(9) 13_665 12_655
O3 Zn1 O3 180.0 . 13_665
O3 Zn1 O5 92.84(13) . .
O3 Zn1 O5 92.83(13) 13_665 13_665
O3 Zn1 O5 87.17(13) 13_665 .
O3 Zn1 O5 87.16(13) . 13_665
O5 Zn1 O2 91.80(11) 13_665 6_565
O5 Zn1 O2 88.20(11) . 6_565
O5 Zn1 O2 88.20(11) 13_665 12_655
O5 Zn1 O2 91.80(11) . 12_655
O5 Zn1 O5 180.0(3) 13_665 .
O2 Zn2 O1 58.79(10) 12_655 12_655
O2 Zn2 N1 139.53(10) 12_655 6_564
O2 Zn2 C1 30.38(11) 12_655 12_655
O4 Zn2 O2 113.80(10) . 12_655
O4 Zn2 O1 98.94(13) . 12_655
O4 Zn2 O6 110.71(13) . .
O4 Zn2 N1 96.36(10) . 6_564
O4 Zn2 C1 111.00(12) . 12_655
O1 Zn2 C1 28.63(10) 12_655 12_655
O6 Zn2 O2 96.04(12) . 12_655
O6 Zn2 O1 147.55(12) . 12_655
O6 Zn2 N1 97.78(12) . 6_564
O6 Zn2 C1 122.59(13) . 12_655
N1 Zn2 O1 91.57(11) 6_564 12_655
N1 Zn2 C1 114.71(12) 6_564 12_655
Zn2 O2 Zn1 100.75(10) 11_565 8_654
C1 O2 Zn1 133.9(2) . 8_654
C1 O2 Zn2 97.8(2) . 11_565
C16 O4 Zn2 120.9(2) . .
C16 O3 Zn1 142.3(2) . .
C1 O1 Zn2 83.1(3) . 11_565
C17A O6 Zn2 112.1(6) . .
C17A O5 Zn1 128.0(7) . .
Zn2 N1 H1 105.6 8_655 .
C9 N1 Zn2 108.8(2) . 8_655
C9 N1 H1 105.6 . .
C8 N1 Zn2 115.3(2) . 8_655
C8 N1 H1 105.6 . .
C8 N1 C9 115.0(3) . .
C14 C13 C16 121.2(3) . .
C12 C13 C16 119.3(3) . .
C12 C13 C14 119.5(3) . .
C7 C2 C1 121.7(3) . .
C3 C2 C1 119.4(3) . .
C3 C2 C7 118.8(3) . .
O2 C1 Zn2 51.82(18) . 11_565
O2 C1 C2 119.0(3) . .
O1 C1 Zn2 68.3(2) . 11_565
O1 C1 O2 119.5(4) . .
O1 C1 C2 121.3(4) . .
C2 C1 Zn2 164.4(3) . 11_565
O4 C16 C13 117.2(3) . .
O3 C16 O4 125.7(3) . .
O3 C16 C13 117.0(3) . .
C11 C10 C15 118.2(3) . .
C11 C10 C9 122.3(3) . .
C15 C10 C9 119.4(3) . .
C6 C5 C8 121.1(3) . .
C4 C5 C6 118.3(3) . .
C4 C5 C8 120.6(4) . .
C5 C6 H6 119.6 . .
C7 C6 C5 120.7(3) . .
C7 C6 H6 119.6 . .
C2 C7 H7 119.5 . .
C6 C7 C2 121.0(4) . .
C6 C7 H7 119.5 . .
C13 C14 H14 119.8 . .
C15 C14 C13 120.4(3) . .
C15 C14 H14 119.8 . .
C2 C3 H3 120.2 . .
C4 C3 C2 119.6(3) . .
C4 C3 H3 120.2 . .
C13 C12 H12 120.2 . .
C13 C12 C11 119.7(3) . .
C11 C12 H12 120.2 . .
C10 C11 C12 120.9(3) . .
C10 C11 H11 119.5 . .
C12 C11 H11 119.5 . .
C10 C15 H15 119.5 . .
C14 C15 C10 121.1(3) . .
C14 C15 H15 119.5 . .
C5 C4 C3 121.6(4) . .
C5 C4 H4 119.2 . .
C3 C4 H4 119.2 . .
N1 C9 C10 115.0(3) . .
N1 C9 H9A 108.5 . .
N1 C9 H9B 108.5 . .
C10 C9 H9A 108.5 . .
C10 C9 H9B 108.5 . .
H9A C9 H9B 107.5 . .
N1 C8 C5 112.1(3) . .
N1 C8 H8A 109.2 . .
N1 C8 H8B 109.2 . .
C5 C8 H8A 109.2 . .
C5 C8 H8B 109.2 . .
H8A C8 H8B 107.9 . .
C18B C19B H19B 120.0 . .
C18B C19B C20B 120.0 . .
C20B C19B H19B 120.0 . .
C19B C18B C17A 119.3(11) . .
C23B C18B C19B 120.0 . .
C23B C18B C17A 120.1(11) . .
C18B C23B H23B 120.0 . .
C18B C23B C22B 120.0 . .
C22B C23B H23B 120.0 . .
C23B C22B H22B 120.0 . .
C21B C22B C23B 120.0 . .
C21B C22B H22B 120.0 . .
C22B C21B C20B 120.0 . .
C22B C21B C24B 122.1(12) . .
C20B C21B C24B 117.9(12) . .
C19B C20B H20B 120.0 . .
C21B C20B C19B 120.0 . .
C21B C20B H20B 120.0 . .
C24B N2 H2 125.4 . .
C24A N2 H2 125.4 . .
C24A N2 C24B 109(2) . .
C18A C19A H19A 120.0 . .
C18A C19A C20A 120.0 . .
C20A C19A H19A 120.0 . .
C17B C18A C19A 123.2(11) . .
C17B C18A C23A 116.6(11) . .
C19A C18A C23A 120.0 . .
C18A C23A H23A 120.0 . .
C18A C23A C22A 120.0 . .
C22A C23A H23A 120.0 . .
C23A C22A H22A 120.0 . .
C21A C22A C23A 120.0 . .
C21A C22A H22A 120.0 . .
C22A C21A C20A 120.0 . .
C22A C21A C24A 122.4(9) . .
C20A C21A C24A 116.8(10) . .
C19A C20A H20A 120.0 . .
C21A C20A C19A 120.0 . .
C21A C20A H20A 120.0 . .
C21B C24B H24A 111.6 . .
C21B C24B H24B 111.6 . .
N2 C24B C21B 100.7(11) . .
N2 C24B H24A 111.6 . .
N2 C24B H24B 111.6 . .
H24A C24B H24B 109.4 . .
N2 C24A C21A 118.2(17) . .
N2 C24A H24C 107.8 . .
N2 C24A H24D 107.8 . .
C21A C24A H24C 107.8 . .
C21A C24A H24D 107.8 . .
H24C C24A H24D 107.1 . .
O6 C17A C18B 106.0(14) . .
O5 C17A O6 145.1(12) . .
O5 C17A C18B 109.0(12) . .
loop_
_geom_bond_atom_site_label_1
_geom_bond_atom_site_label_2
_geom_bond_distance
_geom_bond_site_symmetry_2
Zn1 O2 2.198(2) 6_565
Zn1 O2 2.198(2) 12_655
Zn1 O3 2.036(2) .
Zn1 O3 2.035(2) 13_665
Zn1 O5 2.055(3) .
Zn1 O5 2.055(3) 13_665
Zn2 O2 2.032(3) 12_655
Zn2 O4 1.956(2) .
Zn2 O1 2.396(3) 12_655
Zn2 O6 1.964(3) .
Zn2 N1 2.058(3) 6_564
Zn2 C1 2.561(4) 12_655
O2 Zn1 2.198(2) 8_654
O2 Zn2 2.032(3) 11_565
O2 C1 1.307(5) .
O4 C16 1.261(4) .
O3 C16 1.243(4) .
O1 Zn2 2.396(3) 11_565
O1 C1 1.235(4) .
O6 C17A 1.18(2) .
O5 C17A 1.18(2) .
N1 Zn2 2.058(3) 8_655
N1 H1 0.9800 .
N1 C9 1.493(5) .
N1 C8 1.485(4) .
C13 C16 1.501(4) .
C13 C14 1.385(5) .
C13 C12 1.378(5) .
C2 C1 1.482(5) .
C2 C7 1.388(5) .
C2 C3 1.388(5) .
C1 Zn2 2.561(4) 11_565
C10 C11 1.384(5) .
C10 C15 1.386(5) .
C10 C9 1.505(4) .
C5 C6 1.393(5) .
C5 C4 1.373(5) .
C5 C8 1.522(5) .
C6 H6 0.9300 .
C6 C7 1.365(6) .
C7 H7 0.9300 .
C14 H14 0.9300 .
C14 C15 1.369(5) .
C3 H3 0.9300 .
C3 C4 1.386(5) .
C12 H12 0.9300 .
C12 C11 1.392(5) .
C11 H11 0.9300 .
C15 H15 0.9300 .
C4 H4 0.9300 .
C9 H9A 0.9700 .
C9 H9B 0.9700 .
C17B C18A 1.295(13) .
C8 H8A 0.9700 .
C8 H8B 0.9700 .
C19B H19B 0.9300 .
C19B C18B 1.3900 .
C19B C20B 1.3900 .
C18B C23B 1.3900 .
C18B C17A 1.714(14) .
C23B H23B 0.9300 .
C23B C22B 1.3900 .
C22B H22B 0.9300 .
C22B C21B 1.3900 .
C21B C20B 1.3900 .
C21B C24B 1.489(13) .
C20B H20B 0.9300 .
N2 H2 0.8600 .
N2 C24B 1.478(15) .
N2 C24A 1.41(3) .
C19A H19A 0.9300 .
C19A C18A 1.3900 .
C19A C20A 1.3900 .
C18A C23A 1.3900 .
C23A H23A 0.9300 .
C23A C22A 1.3900 .
C22A H22A 0.9300 .
C22A C21A 1.3900 .
C21A C20A 1.3900 .
C21A C24A 1.590(14) .
C20A H20A 0.9300 .
C24B H24A 0.9700 .
C24B H24B 0.9700 .
C24A H24C 0.9700 .
C24A H24D 0.9700 .
