#------------------------------------------------------------------------------
#$Date: 2018-08-14 01:52:36 +0300 (Tue, 14 Aug 2018) $
#$Revision: 209658 $
#$URL: file:///home/coder/svn-repositories/cod/cif/7/23/13/7231362.cif $
#------------------------------------------------------------------------------
#
# This file is available in the Crystallography Open Database (COD),
# http://www.crystallography.net/
#
# All data on this site have been placed in the public domain by the
# contributors.
#
data_7231362
loop_
_publ_author_name
'Peng, Hai-Yue'
'Yang, Xiao-Jian'
'Ma, Yuan-Yuan'
'Liu, Jia-Ning'
'Wang, Yong-Hui'
'Tan, Huaqiao'
'Li, Yang-Guang'
_publ_section_title
;
 Polyoxometalate-based metal-organic framework loading with ultra-low
 amount of Pt as efficient electrocatalyst for hydrogen production
;
_journal_name_full               CrystEngComm
_journal_paper_doi               10.1039/C8CE01151F
_journal_year                    2018
_chemical_formula_moiety         '0.5(C96 H80 Mo48 N32 O144 Zn16), 4(O2 P0.5)'
_chemical_formula_sum            'C48 H40 Mo24 N16 O80 P2 Zn8'
_chemical_formula_weight         5008.42
_space_group_crystal_system      tetragonal
_space_group_IT_number           141
_space_group_name_Hall           '-I 4bd 2'
_space_group_name_H-M_alt        'I 41/a m d'
_symmetry_space_group_name_Hall  '-I 4bd 2'
_symmetry_space_group_name_H-M   'I 41/a m d :2'
_atom_sites_solution_hydrogens   geom
_atom_sites_solution_primary     direct
_audit_creation_date             2018-06-06
_audit_creation_method
;
Olex2 1.2
(compiled 2018.05.29 svn.r3508 for OlexSys, GUI svn.r5506)
;
_audit_update_record
;
2018-07-08 deposited with the CCDC.
2018-08-13 downloaded from the CCDC.
;
_cell_angle_alpha                90
_cell_angle_beta                 90
_cell_angle_gamma                90
_cell_formula_units_Z            2
_cell_length_a                   27.560(4)
_cell_length_b                   27.560(4)
_cell_length_c                   12.012(2)
_cell_measurement_reflns_used    33264
_cell_measurement_temperature    293(2)
_cell_measurement_theta_max      25.05
_cell_measurement_theta_min      3.16
_cell_volume                     9124(2)
_computing_molecular_graphics    'Olex2 (Dolomanov et al., 2009)'
_computing_publication_material  'Olex2 (Dolomanov et al., 2009)'
_computing_structure_refinement  'ShelXL (Sheldrick, 2015)'
_computing_structure_solution    'ShelXS (Sheldrick, 2008)'
_diffrn_ambient_temperature      293(2)
_diffrn_measured_fraction_theta_full 0.980
_diffrn_measured_fraction_theta_max 0.980
_diffrn_measurement_device_type  'Bruker P4'
_diffrn_measurement_method       '\w scans'
_diffrn_radiation_monochromator  graphite
_diffrn_radiation_type           MoK\a
_diffrn_radiation_wavelength     0.71073
_diffrn_reflns_av_R_equivalents  0.1198
_diffrn_reflns_av_unetI/netI     0.0659
_diffrn_reflns_Laue_measured_fraction_full 0.980
_diffrn_reflns_Laue_measured_fraction_max 0.980
_diffrn_reflns_limit_h_max       32
_diffrn_reflns_limit_h_min       -32
_diffrn_reflns_limit_k_max       32
_diffrn_reflns_limit_k_min       -32
_diffrn_reflns_limit_l_max       12
_diffrn_reflns_limit_l_min       -14
_diffrn_reflns_number            32676
_diffrn_reflns_point_group_measured_fraction_full 0.980
_diffrn_reflns_point_group_measured_fraction_max 0.980
_diffrn_reflns_theta_full        24.991
_diffrn_reflns_theta_max         24.991
_diffrn_reflns_theta_min         3.159
_exptl_absorpt_coefficient_mu    2.700
_exptl_absorpt_correction_type   none
_exptl_crystal_colour            black
_exptl_crystal_colour_primary    black
_exptl_crystal_density_diffrn    1.823
_exptl_crystal_description       block
_exptl_crystal_F_000             4716
_exptl_crystal_size_max          0.03
_exptl_crystal_size_mid          0.02
_exptl_crystal_size_min          0.02
_refine_diff_density_max         1.217
_refine_diff_density_min         -1.409
_refine_diff_density_rms         0.180
_refine_ls_extinction_method     none
_refine_ls_goodness_of_fit_ref   1.035
_refine_ls_hydrogen_treatment    constr
_refine_ls_matrix_type           full
_refine_ls_number_parameters     123
_refine_ls_number_reflns         2068
_refine_ls_number_restraints     180
_refine_ls_restrained_S_all      1.011
_refine_ls_R_factor_all          0.0778
_refine_ls_R_factor_gt           0.0669
_refine_ls_shift/su_max          0.000
_refine_ls_shift/su_mean         0.000
_refine_ls_structure_factor_coef Fsqd
_refine_ls_weighting_details
'w=1/[\s^2^(Fo^2^)+(0.0870P)^2^+155.9737P] where P=(Fo^2^+2Fc^2^)/3'
_refine_ls_weighting_scheme      calc
_refine_ls_wR_factor_gt          0.1675
_refine_ls_wR_factor_ref         0.1782
_reflns_Friedel_coverage         0.000
_reflns_number_gt                1720
_reflns_number_total             2068
_reflns_threshold_expression     'I > 2\s(I)'
_cod_data_source_file            c8ce01151f2.cif
_cod_data_source_block           4_sq
_cod_original_cell_volume        9124(3)
_cod_database_code               7231362
_shelx_shelxl_version_number     2018/1
_shelx_space_group_comment
;
The symmetry employed for this shelxl refinement is uniquely defined
by the following loop, which should always be used as a source of
symmetry information in preference to the above space-group names.
They are only intended as comments.
;
_shelx_estimated_absorpt_t_max   0.948
_shelx_estimated_absorpt_t_min   0.923
_olex2_refinement_description
;
1. Fixed Uiso
 At 1 times of:
  H4 of C4, H3 of C3
 At 1.2 times of:
  H1 of C1, H7 of C7, H5 of C5
2. Uiso/Uaniso restraints and constraints
C1 \\sim C2 \\sim C3 \\sim C4 \\sim C5 \\sim C7 \\sim N1 \\sim N2: within 3.8A
with sigma of 0.01 and sigma for terminal atoms of 0.02
Uanis(N1) \\sim Ueq, Uanis(N2) \\sim Ueq, Uanis(C5) \\sim Ueq, Uanis(C7) \\sim
Ueq, Uanis(C3) \\sim Ueq, Uanis(C4) \\sim Ueq: with sigma of 0.01 and sigma for
terminal atoms of 0.02
3.a Aromatic/amide H refined with riding coordinates:
 C1(H1), C3(H3), C4(H4), C5(H5), C7(H7)
;
_shelx_res_file
;
TITL 4 in Fddd New: I41/amd
    4_sq.res
    created by SHELXL-2018/1 at 10:00:36 on 06-Jun-2018
CELL 0.71073 27.56 27.56 12.012 90 90 90
ZERR 2 0.004 0.004 0.002 0 0 0
LATT 2
SYMM 0.25-Y,0.75+X,0.25+Z
SYMM 0.5-X,-Y,0.5+Z
SYMM 0.25+Y,0.25-X,0.75+Z
SYMM +X,-Y,-Z
SYMM 0.25+Y,0.75+X,0.25-Z
SYMM 0.5-X,+Y,0.5-Z
SYMM 0.25-Y,0.25-X,0.75-Z
SFAC C H Mo N O P Zn
UNIT 96 80 48 32 160 4 16
SIMU 0.01 0.02 3.8 $C $N
ISOR 0.01 0.02 N1 N2 C5 C7 C3 C4

L.S. 50 0 34
PLAN  20
SIZE 0.02 0.02 0.03
BOND $H
CONF
ABIN
fmap 2
ACTA
OMIT -3 50
OMIT 2 8 0
OMIT 0 12 2
OMIT 0 12 0
OMIT 2 10 0
OMIT 0 14 0
OMIT 2 7 1
OMIT 2 14 0
OMIT 2 12 0
OMIT 4 12 0
OMIT 4 12 6
OMIT 1 10 3
OMIT 0 6 0
OMIT 3 4 1
OMIT 3 6 5
OMIT 0 11 3
OMIT 2 17 3
OMIT 2 16 0
OMIT 15 15 6
OMIT 4 10 6
OMIT 5 12 1
OMIT 1 16 1
OMIT 4 4 0
OMIT 2 19 3
OMIT 0 24 0
OMIT 3 14 1
OMIT 4 10 0
OMIT 1 2 3
OMIT 4 26 0
OMIT 6 9 3
OMIT 1 8 1
OMIT 5 15 2
OMIT 6 12 2
OMIT 7 14 1
OMIT 12 12 8
OMIT 3 14 5
OMIT 4 14 0
OMIT 4 9 3
REM <olex2.extras>
REM <HklSrc "%.\\4_sq.hkl">
REM </olex2.extras>

WGHT    0.087000  155.973709
FVAR       0.04101
MO1   3    0.053977    0.250000    0.167078    10.50000    0.05589    0.05288 =
         0.02959    0.00000   -0.00256    0.00000
MO2   3    0.113488    0.188191   -0.042641    11.00000    0.04338    0.06405 =
         0.04781    0.00761    0.00440    0.01394
ZN1   7    0.000000    0.146966    0.052404    10.50000    0.07113    0.04963 =
         0.04120    0.01673    0.00000    0.00000
P1    6    0.000000    0.250000   -0.125000    10.12500    0.02870    0.02870 =
         0.02427    0.00000    0.00000    0.00000
O1    5    0.066746    0.250000    0.302750    10.50000    0.07119    0.07502 =
         0.03770    0.00000   -0.00004    0.00000
O2    5    0.095477    0.200373    0.112596    11.00000    0.05177    0.05621 =
         0.03331    0.00312   -0.00577    0.01072
O3    5    0.057428    0.145185   -0.045701    11.00000    0.06573    0.04077 =
         0.05127    0.00861   -0.00821    0.00158
O4    5    0.045405    0.250000   -0.049870    10.50000    0.03111    0.04893 =
         0.03654    0.00000   -0.00041    0.00000
O5    5    0.000000    0.296025    0.149224    10.50000    0.03473    0.04853 =
         0.03540   -0.00659    0.00000    0.00000
O6    5    0.160840    0.151442   -0.025704    11.00000    0.06044    0.08790 =
         0.07448    0.00708   -0.00308    0.03154
O9    5    0.145341    0.250000   -0.047845    10.50000    0.02494    0.06368 =
         0.04365    0.00000   -0.00343    0.00000
N1    4    0.000000    0.088533    0.145660    10.50000    0.11744    0.07704 =
         0.07109    0.01066    0.00000    0.00000
N2    4    0.000000    0.038540    0.283001    10.50000    0.11819    0.07821 =
         0.07356    0.00796    0.00000    0.00000
C1    1    0.000000    0.081679    0.250634    10.50000    0.11758    0.07574 =
         0.06961    0.00935    0.00000    0.00000
AFIX  43
H1    2    0.000000    0.107451    0.300613    10.50000   -1.20000
AFIX   0
C2    1    0.000000    0.018673    0.395937    10.50000    0.11833    0.07490 =
         0.06839    0.00714    0.00000    0.00000
C3    1    0.000000   -0.028965    0.405556    10.50000    0.11944    0.08094 =
         0.07344    0.00772    0.00000    0.00000
AFIX  43
H3    2    0.000000   -0.048906    0.343097    10.50000   -1.00000
AFIX   0
C4    1    0.000000    0.048645    0.485876    10.50000    0.11852    0.07977 =
         0.07244    0.01081    0.00000    0.00000
AFIX  43
H4    2    0.000000    0.082108    0.475889    10.50000   -1.00000
AFIX   0
C5    1    0.000000    0.011669    0.189597    10.50000    0.12084    0.08515 =
         0.07820    0.00792    0.00000    0.00000
AFIX  43
H5    2    0.000000   -0.022029    0.185521    10.50000   -1.20000
AFIX   0
C7    1    0.000000    0.043680    0.100385    10.50000    0.12154    0.08483 =
         0.07864    0.00590    0.00000    0.00000
AFIX  43
H7    2    0.000000    0.035862    0.025069    10.50000   -1.20000
AFIX   0
HKLF 4 1 0 0.5 0.5 0 0.5 -0.5 -1 0 0




REM  4 in Fddd New: I41/amd
REM R1 =  0.0669 for    1720 Fo > 4sig(Fo)  and  0.0778 for all    2068 data
REM    123 parameters refined using    180 restraints

END

WGHT      0.0850    163.7729

REM Highest difference peak  1.217,  deepest hole -1.409,  1-sigma level  0.180
Q1    1  -0.0400  0.0472  0.1150  11.00000  0.05    1.22
Q2    1   0.0268  0.2500  0.1670  10.50000  0.05    1.20
Q3    1   0.0379  0.0158  0.1967  11.00000  0.05    0.92
Q4    1   0.0659  0.2500  0.2167  10.50000  0.05    0.88
Q5    1   0.0000  0.1188  0.0887  10.50000  0.05    0.85
Q6    1   0.1419  0.1830  0.0055  11.00000  0.05    0.84
Q7    1   0.1060  0.2096  0.0135  11.00000  0.05    0.83
Q8    1   0.0201  0.0880  0.1449  11.00000  0.05    0.83
Q9    1   0.1218  0.1619  0.0110  11.00000  0.05    0.82
Q10   1  -0.0267  0.0388  0.2859  11.00000  0.05    0.77
Q11   1   0.0473  0.2774  0.1309  11.00000  0.05    0.76
Q12   1   0.0307 -0.0300  0.4069  11.00000  0.05    0.76
Q13   1   0.0318  0.0508  0.4928  11.00000  0.05    0.75
Q14   1   0.0896  0.1919  0.0082  11.00000  0.05    0.74
Q15   1   0.1134  0.2171 -0.0770  11.00000  0.05    0.65
Q16   1   0.1828  0.2500 -0.0785  10.50000  0.05    0.59
Q17   1   0.0175  0.0130  0.3960  11.00000  0.05    0.56
Q18   1   0.1433  0.1871 -0.0720  11.00000  0.05    0.53
Q19   1   0.0318  0.2500 -0.0044  10.50000  0.05    0.51
Q20   1   0.1102  0.1508 -0.0889  11.00000  0.05    0.50
;
_shelx_res_checksum              74291
_shelx_fab_file
;
    0    0    4     32.20      0.00
    0    0    8      2.63      0.00
    0    0   12     -0.37      0.00
    0    1    3     -5.50      0.00
    0    1    5      2.67      0.00
    0    1    7     -4.34      0.00
    0    1    9      5.80      0.00
    0    1   11      1.86      0.00
    0    1   13      1.82      0.00
    0    1   15     -4.61      0.00
    1    1    2     34.81      0.00
    1    1    6      1.58      0.00
    1    1   10     -1.52      0.00
    1    1   14      2.37      0.00
    0    2    2     43.04      0.00
    0    2    4     16.53      0.00
    0    2    6      1.71      0.00
    0    2    8      2.78      0.00
    0    2   10     -5.23      0.00
    0    2   12      1.14      0.00
    0    2   14      7.11      0.00
    1    2    3     -5.02      0.00
    1    2    5     -0.61      0.00
    1    2    7      0.20      0.00
    1    2    9      4.37      0.00
    1    2   11     -0.13      0.00
    1    2   13      2.09      0.00
    1    2   15      2.26      0.00
    2    2    4      3.67      0.00
    2    2    8      4.44      0.00
    2    2   12     -1.01      0.00
    0    3    3      2.23      0.00
    0    3    5     -2.69      0.00
    0    3    7     -0.17      0.00
    0    3    9      3.89      0.00
    0    3   11      2.32      0.00
    0    3   13     -2.63      0.00
    0    3   15     -2.35      0.00
    1    3    2      5.30      0.00
    1    3    4      6.65      0.00
    1    3    6     -0.29      0.00
    1    3    8      2.86      0.00
    1    3   10      0.37      0.00
    1    3   12      2.12      0.00
    1    3   14      0.49      0.00
    2    3    1    -45.54      0.00
    2    3    3     -2.20      0.00
    2    3    5      3.72      0.00
    2    3    7     -3.78      0.00
    2    3    9     -5.38      0.00
    2    3   11     -2.14      0.00
    2    3   13      3.86      0.00
    2    3   15      3.21      0.00
    3    3    2     21.73      0.00
    3    3    6      8.04      0.00
    3    3   10      0.21      0.00
    3    3   14     -1.13      0.00
    0    4    2     76.09      0.00
    0    4    4    -10.11      0.00
    0    4    6     -8.26      0.00
    0    4    8      0.50      0.00
    0    4   10     -5.46      0.00
    0    4   12      5.11      0.00
    0    4   14      3.46      0.00
    1    4    1    120.57      0.00
    1    4    3      2.56      0.00
    1    4    5     -3.22      0.00
    1    4    7      3.16      0.00
    1    4    9      6.02      0.00
    1    4   11      1.12      0.00
    1    4   13      2.89      0.00
    1    4   15      1.11      0.00
    2    4    0     71.93      0.00
    2    4    2    -23.51      0.00
    2    4    4     17.83      0.00
    2    4    6      1.97      0.00
    2    4    8      6.15      0.00
    2    4   10      2.15      0.00
    2    4   12     -0.11      0.00
    2    4   14      0.68      0.00
    3    4    1   -137.12      0.00
    3    4    3    -13.10      0.00
    3    4    5      5.83      0.00
    3    4    7     -0.28      0.00
    3    4    9     -6.72      0.00
    3    4   11     -0.72      0.00
    3    4   13      1.24      0.00
    3    4   15     -2.00      0.00
    4    4    0     26.47      0.00
    4    4    4     -5.03      0.00
    4    4    8     -3.84      0.00
    4    4   12     -4.88      0.00
    0    5    1     31.24      0.00
    0    5    3     -5.33      0.00
    0    5    5     -5.42      0.00
    0    5    7      1.35      0.00
    0    5    9      3.55      0.00
    0    5   11      3.73      0.00
    0    5   13      1.28      0.00
    0    5   15      3.61      0.00
    1    5    2    -53.89      0.00
    1    5    4      6.68      0.00
    1    5    6      0.26      0.00
    1    5    8      3.26      0.00
    1    5   10      1.49      0.00
    1    5   12      1.22      0.00
    1    5   14     -5.24      0.00
    2    5    1    -13.85      0.00
    2    5    3     11.25      0.00
    2    5    5      0.72      0.00
    2    5    7      1.65      0.00
    2    5    9     -4.66      0.00
    2    5   11     -2.62      0.00
    2    5   13      0.55      0.00
    2    5   15      5.02      0.00
    3    5    2     41.41      0.00
    3    5    4     -8.17      0.00
    3    5    6      5.59      0.00
    3    5    8     -0.26      0.00
    3    5   10      0.00      0.00
    3    5   12      3.51      0.00
    3    5   14     -0.16      0.00
    4    5    1     11.34      0.00
    4    5    3     -9.72      0.00
    4    5    5     -2.54      0.00
    4    5    7      0.03      0.00
    4    5    9      0.11      0.00
    4    5   11     -4.65      0.00
    4    5   13     -0.99      0.00
    4    5   15     -6.15      0.00
    5    5    2     34.11      0.00
    5    5    6     -3.01      0.00
    5    5   10      6.02      0.00
    5    5   14     11.83      0.00
    0    6    0     72.53      0.00
    0    6    2     41.99      0.00
    0    6    4    -14.11      0.00
    0    6    6     -8.70      0.00
    0    6    8     -2.51      0.00
    0    6   10      3.51      0.00
    0    6   12      0.10      0.00
    0    6   14     -0.28      0.00
    1    6    1     -1.83      0.00
    1    6    3     24.79      0.00
    1    6    5     -7.29      0.00
    1    6    7     10.09      0.00
    1    6    9      6.37      0.00
    1    6   11      5.00      0.00
    1    6   13      1.26      0.00
    1    6   15      4.21      0.00
    2    6    0    -20.18      0.00
    2    6    2     -5.57      0.00
    2    6    4      9.04      0.00
    2    6    6     -0.23      0.00
    2    6    8      0.88      0.00
    2    6   10     -5.41      0.00
    2    6   12      2.04      0.00
    2    6   14      5.25      0.00
    3    6    1      0.15      0.00
    3    6    3    -26.84      0.00
    3    6    5     18.27      0.00
    3    6    7     -9.29      0.00
    3    6    9     -1.12      0.00
    3    6   11     -7.81      0.00
    3    6   13     -2.46      0.00
    3    6   15      1.00      0.00
    4    6    0    -24.86      0.00
    4    6    2    -24.52      0.00
    4    6    4      6.65      0.00
    4    6    6      7.75      0.00
    4    6    8      1.49      0.00
    4    6   10      5.98      0.00
    4    6   12      1.06      0.00
    4    6   14     -3.69      0.00
    5    6    1     22.57      0.00
    5    6    3     -0.64      0.00
    5    6    5    -18.12      0.00
    5    6    7     -2.36      0.00
    5    6    9     -7.90      0.00
    5    6   11      6.17      0.00
    5    6   13     -0.73      0.00
    5    6   15     -7.47      0.00
    6    6    0     19.50      0.00
    6    6    4    -10.08      0.00
    6    6    8      0.98      0.00
    6    6   12     -4.40      0.00
    0    7    1     47.55      0.00
    0    7    3    -16.67      0.00
    0    7    5      4.72      0.00
    0    7    7      0.74      0.00
    0    7    9      6.24      0.00
    0    7   11      7.97      0.00
    0    7   13     11.71      0.00
    0    7   15      7.58      0.00
    1    7    2    -12.56      0.00
    1    7    4    -12.77      0.00
    1    7    6      3.23      0.00
    1    7    8     -0.57      0.00
    1    7   10      0.68      0.00
    1    7   12     -5.22      0.00
    1    7   14     -3.39      0.00
    2    7    1    -27.11      0.00
    2    7    3      3.71      0.00
    2    7    5     -4.21      0.00
    2    7    7      7.92      0.00
    2    7    9     -3.70      0.00
    2    7   11     -2.31      0.00
    2    7   13     -7.49      0.00
    2    7   15     -2.54      0.00
    3    7    2     11.91      0.00
    3    7    4     10.44      0.00
    3    7    6     -3.71      0.00
    3    7    8      7.76      0.00
    3    7   10     -4.18      0.00
    3    7   12     11.31      0.00
    3    7   14     -0.18      0.00
    4    7    1     13.44      0.00
    4    7    3     14.80      0.00
    4    7    5     -4.95      0.00
    4    7    7     -8.75      0.00
    4    7    9      1.42      0.00
    4    7   11     -5.49      0.00
    4    7   13      1.45      0.00
    4    7   15     -0.76      0.00
    5    7    2      7.87      0.00
    5    7    4      6.01      0.00
    5    7    6      5.17      0.00
    5    7    8     -5.04      0.00
    5    7   10      9.86      0.00
    5    7   12     -6.66      0.00
    5    7   14      8.02      0.00
    6    7    1    -19.87      0.00
    6    7    3    -11.61      0.00
    6    7    5     17.35      0.00
    6    7    7      0.20      0.00
    6    7    9      0.79      0.00
    6    7   11      3.08      0.00
    6    7   13      4.19      0.00
    6    7   15     -2.79      0.00
    7    7    2     -6.63      0.00
    7    7    6     -5.44      0.00
    7    7   10     -0.93      0.00
    7    7   14     -4.01      0.00
    0    8    0     69.49      0.00
    0    8    2      6.55      0.00
    0    8    4     12.51      0.00
    0    8    6      3.73      0.00
    0    8    8     -2.91      0.00
    0    8   10      4.85      0.00
    0    8   12      1.94      0.00
    0    8   14      9.73      0.00
    1    8    1    -13.01      0.00
    1    8    3      6.66      0.00
    1    8    5     -9.08      0.00
    1    8    7      2.59      0.00
    1    8    9      1.75      0.00
    1    8   11      3.06      0.00
    1    8   13     -3.48      0.00
    1    8   15      8.21      0.00
    2    8    0     -1.69      0.00
    2    8    2     -9.29      0.00
    2    8    4      0.34      0.00
    2    8    6      0.80      0.00
    2    8    8      3.71      0.00
    2    8   10     -3.07      0.00
    2    8   12     -1.27      0.00
    2    8   14     -2.58      0.00
    3    8    1     15.15      0.00
    3    8    3    -10.08      0.00
    3    8    5     23.73      0.00
    3    8    7     -0.94      0.00
    3    8    9     -0.31      0.00
    3    8   11     -3.83      0.00
    3    8   13      2.35      0.00
    3    8   15     -2.21      0.00
    4    8    0    -46.25      0.00
    4    8    2     -0.92      0.00
    4    8    4    -10.18      0.00
    4    8    6     -3.45      0.00
    4    8    8     -2.11      0.00
    4    8   10      3.72      0.00
    4    8   12      3.40      0.00
    4    8   14      0.25      0.00
    5    8    1      7.16      0.00
    5    8    3      1.18      0.00
    5    8    5    -17.72      0.00
    5    8    7      0.55      0.00
    5    8    9     -4.48      0.00
    5    8   11      1.02      0.00
    5    8   13     -1.36      0.00
    5    8   15    -10.13      0.00
    6    8    0     23.11      0.00
    6    8    2     14.51      0.00
    6    8    4      0.46      0.00
    6    8    6     -0.05      0.00
    6    8    8     -1.29      0.00
    6    8   10     -3.42      0.00
    6    8   12     -0.86      0.00
    6    8   14     -4.22      0.00
    7    8    1     -9.69      0.00
    7    8    3     12.17      0.00
    7    8    5      6.36      0.00
    7    8    7     -2.03      0.00
    7    8    9     10.33      0.00
    7    8   11     -0.36      0.00
    7    8   13      7.01      0.00
    8    8    0    -23.28      0.00
    8    8    4      6.90      0.00
    8    8    8     -0.07      0.00
    8    8   12     -1.41      0.00
    0    9    1    -22.11      0.00
    0    9    3     -3.42      0.00
    0    9    5      3.52      0.00
    0    9    7      5.16      0.00
    0    9    9     -3.27      0.00
    0    9   11      4.10      0.00
    0    9   13     -1.57      0.00
    0    9   15     11.65      0.00
    1    9    2      9.31      0.00
    1    9    4    -14.82      0.00
    1    9    6     -0.61      0.00
    1    9    8      0.22      0.00
    1    9   10      1.44      0.00
    1    9   12     -1.77      0.00
    1    9   14      4.71      0.00
    2    9    1     -5.09      0.00
    2    9    3     -2.80      0.00
    2    9    5     -6.97      0.00
    2    9    7      4.68      0.00
    2    9    9      3.83      0.00
    2    9   11     -2.49      0.00
    2    9   13      5.89      0.00
    2    9   15    -15.86      0.00
    3    9    2     -0.10      0.00
    3    9    4     18.86      0.00
    3    9    6      0.74      0.00
    3    9    8      1.93      0.00
    3    9   10     -1.63      0.00
    3    9   12     -2.42      0.00
    3    9   14     -5.94      0.00
    4    9    1     12.24      0.00
    4    9    3     16.11      0.00
    4    9    5      0.64      0.00
    4    9    7     -5.82      0.00
    4    9    9      1.02      0.00
    4    9   11      0.46      0.00
    4    9   13     -5.32      0.00
    5    9    2    -13.44      0.00
    5    9    4     -1.85      0.00
    5    9    6      0.14      0.00
    5    9    8      4.34      0.00
    5    9   10     -1.34      0.00
    5    9   12      4.66      0.00
    5    9   14      3.24      0.00
    6    9    1     14.85      0.00
    6    9    3    -15.84      0.00
    6    9    5     14.32      0.00
    6    9    7     -3.01      0.00
    6    9    9      0.10      0.00
    6    9   11      1.38      0.00
    6    9   13     -1.55      0.00
    7    9    2      7.19      0.00
    7    9    4     -0.44      0.00
    7    9    6      3.74      0.00
    7    9    8    -11.53      0.00
    7    9   10      6.40      0.00
    7    9   12      1.31      0.00
    7    9   14     -2.62      0.00
    8    9    1     -8.35      0.00
    8    9    3     10.20      0.00
    8    9    5     -6.08      0.00
    8    9    7     -0.11      0.00
    8    9    9    -10.77      0.00
    8    9   11      0.43      0.00
    8    9   13     -1.01      0.00
    9    9    2     -8.87      0.00
    9    9    6     -5.80      0.00
    9    9   10     -5.35      0.00
    9    9   14      1.54      0.00
    0   10    0    -30.01      0.00
    0   10    2     -2.71      0.00
    0   10    4     14.45      0.00
    0   10    6     -2.92      0.00
    0   10    8     -3.53      0.00
    0   10   10      2.38      0.00
    0   10   12     10.10      0.00
    0   10   14      1.47      0.00
    1   10    1     20.28      0.00
    1   10    3    -11.01      0.00
    1   10    5      1.96      0.00
    1   10    7     -3.24      0.00
    1   10    9      1.31      0.00
    1   10   11     -4.68      0.00
    1   10   13     -3.09      0.00
    2   10    0      4.34      0.00
    2   10    2      0.78      0.00
    2   10    4     -3.96      0.00
    2   10    6     10.61      0.00
    2   10    8      2.68      0.00
    2   10   10      2.31      0.00
    2   10   12     -3.49      0.00
    2   10   14     -3.48      0.00
    3   10    1    -21.22      0.00
    3   10    3      0.75      0.00
    3   10    5      1.73      0.00
    3   10    7      6.23      0.00
    3   10    9     -4.87      0.00
    3   10   11      4.92      0.00
    3   10   13      4.89      0.00
    4   10    0     11.63      0.00
    4   10    2     -0.54      0.00
    4   10    4     -6.87      0.00
    4   10    6     -9.50      0.00
    4   10    8      2.04      0.00
    4   10   10     -4.53      0.00
    4   10   12     -3.57      0.00
    4   10   14      1.63      0.00
    5   10    1     -1.25      0.00
    5   10    3      5.75      0.00
    5   10    5     -5.95      0.00
    5   10    7     -1.91      0.00
    5   10    9      0.87      0.00
    5   10   11      4.65      0.00
    5   10   13      1.38      0.00
    6   10    0      9.05      0.00
    6   10    2      9.53      0.00
    6   10    4      1.86      0.00
    6   10    6     -1.18      0.00
    6   10    8     -4.14      0.00
    6   10   10      2.71      0.00
    6   10   12     -1.20      0.00
    6   10   14      2.59      0.00
    7   10    1     -2.35      0.00
    7   10    3     17.87      0.00
    7   10    5      4.64      0.00
    7   10    7     -0.37      0.00
    7   10    9     11.94      0.00
    7   10   11     -7.20      0.00
    7   10   13     -0.19      0.00
    8   10    0     -2.29      0.00
    8   10    2     -8.21      0.00
    8   10    4      4.14      0.00
    8   10    6     -4.21      0.00
    8   10    8      0.69      0.00
    8   10   10     -1.96      0.00
    8   10   12      6.50      0.00
    8   10   14      0.45      0.00
    9   10    1      1.14      0.00
    9   10    3    -10.22      0.00
    9   10    5      2.16      0.00
    9   10    7      1.09      0.00
    9   10    9     -7.80      0.00
    9   10   11     -1.49      0.00
    9   10   13     -5.84      0.00
   10   10    0    -22.89      0.00
   10   10    4     -2.91      0.00
   10   10    8    -12.15      0.00
   10   10   12     -1.32      0.00
    0   11    1    -13.91      0.00
    0   11    3     -6.56      0.00
    0   11    5    -10.83      0.00
    0   11    7     -3.83      0.00
    0   11    9     -0.92      0.00
    0   11   11      4.67      0.00
    0   11   13     -5.49      0.00
    1   11    2     -8.75      0.00
    1   11    4      4.77      0.00
    1   11    6     -1.39      0.00
    1   11    8      0.25      0.00
    1   11   10     -2.67      0.00
    1   11   12      4.60      0.00
    1   11   14      7.83      0.00
    2   11    1     11.77      0.00
    2   11    3      4.02      0.00
    2   11    5     -5.75      0.00
    2   11    7      7.34      0.00
    2   11    9      3.11      0.00
    2   11   11     -3.13      0.00
    2   11   13      4.79      0.00
    3   11    2      3.13      0.00
    3   11    4      6.06      0.00
    3   11    6      0.66      0.00
    3   11    8     -0.02      0.00
    3   11   10      6.01      0.00
    3   11   12    -10.30      0.00
    3   11   14     -8.45      0.00
    4   11    1     -4.92      0.00
    4   11    3      1.93      0.00
    4   11    5     17.19      0.00
    4   11    7     -1.53      0.00
    4   11    9     -1.72      0.00
    4   11   11     -2.65      0.00
    4   11   13     -1.51      0.00
    5   11    2      6.24      0.00
    5   11    4    -16.71      0.00
    5   11    6      0.96      0.00
    5   11    8      5.40      0.00
    5   11   10     -0.16      0.00
    5   11   12      5.66      0.00
    5   11   14      1.23      0.00
    6   11    1      4.99      0.00
    6   11    3     -3.98      0.00
    6   11    5     -4.99      0.00
    6   11    7     -4.74      0.00
    6   11    9      1.99      0.00
    6   11   11      5.39      0.00
    6   11   13     -2.09      0.00
    7   11    2     10.23      0.00
    7   11    4     10.86      0.00
    7   11    6      1.58      0.00
    7   11    8    -13.93      0.00
    7   11   10     -6.96      0.00
    7   11   12      2.18      0.00
    7   11   14     -5.27      0.00
    8   11    1     -9.47      0.00
    8   11    3     -0.62      0.00
    8   11    5      4.72      0.00
    8   11    7     -1.59      0.00
    8   11    9      0.86      0.00
    8   11   11      0.61      0.00
    8   11   13      2.80      0.00
    9   11    2     -4.54      0.00
    9   11    4     -7.22      0.00
    9   11    6     -1.50      0.00
    9   11    8      6.92      0.00
    9   11   10      0.74      0.00
    9   11   12      0.95      0.00
    9   11   14      4.64      0.00
   10   11    1      4.76      0.00
   10   11    3      1.01      0.00
   10   11    5    -12.54      0.00
   10   11    7      1.21      0.00
   10   11    9     -9.66      0.00
   10   11   11     -3.94      0.00
   10   11   13      1.23      0.00
   11   11    2    -14.44      0.00
   11   11    6      3.55      0.00
   11   11   10      9.10      0.00
   11   11   14     -0.43      0.00
    0   12    0     14.90      0.00
    0   12    2      6.08      0.00
    0   12    4    -16.21      0.00
    0   12    6      0.18      0.00
    0   12    8     -3.04      0.00
    0   12   10      0.80      0.00
    0   12   12     -5.10      0.00
    0   12   14     -8.49      0.00
    1   12    1      0.24      0.00
    1   12    3      8.47      0.00
    1   12    5      2.05      0.00
    1   12    7      0.51      0.00
    1   12    9     -0.02      0.00
    1   12   11      1.85      0.00
    1   12   13      2.60      0.00
    2   12    0    -22.92      0.00
    2   12    2     -6.20      0.00
    2   12    4      3.66      0.00
    2   12    6      3.64      0.00
    2   12    8     -2.46      0.00
    2   12   10     -0.22      0.00
    2   12   12      2.85      0.00
    2   12   14     -1.69      0.00
    3   12    1     -1.52      0.00
    3   12    3    -10.91      0.00
    3   12    5     -4.34      0.00
    3   12    7     -1.63      0.00
    3   12    9      0.44      0.00
    3   12   11     -2.82      0.00
    3   12   13     -1.03      0.00
    4   12    0     14.23      0.00
    4   12    2     -5.18      0.00
    4   12    4      4.79      0.00
    4   12    6      6.45      0.00
    4   12    8      3.07      0.00
    4   12   10     -2.51      0.00
    4   12   12     -2.22      0.00
    4   12   14      2.66      0.00
    5   12    1      4.41      0.00
    5   12    3      0.00      0.00
    5   12    5    -10.90      0.00
    5   12    7     -0.41      0.00
    5   12    9      0.15      0.00
    5   12   11      3.44      0.00
    5   12   13      2.42      0.00
    6   12    0      3.63      0.00
    6   12    2     10.61      0.00
    6   12    4      2.75      0.00
    6   12    6    -11.47      0.00
    6   12    8      6.05      0.00
    6   12   10      3.97      0.00
    6   12   12      1.68      0.00
    6   12   14     11.20      0.00
    7   12    1     -1.24      0.00
    7   12    3     -0.19      0.00
    7   12    5     25.45      0.00
    7   12    7     -0.32      0.00
    7   12    9      2.31      0.00
    7   12   11     -7.74      0.00
    7   12   13     -6.37      0.00
    8   12    0      8.69      0.00
    8   12    2      3.00      0.00
    8   12    4     -0.19      0.00
    8   12    6     -6.66      0.00
    8   12    8      3.15      0.00
    8   12   10     -1.30      0.00
    8   12   12      2.30      0.00
    8   12   14     -4.72      0.00
    9   12    1     -4.76      0.00
    9   12    3      4.01      0.00
    9   12    5    -10.52      0.00
    9   12    7      2.43      0.00
    9   12    9     -1.58      0.00
    9   12   11      5.65      0.00
    9   12   13     -2.58      0.00
   10   12    0    -17.95      0.00
   10   12    2     -2.45      0.00
   10   12    4     -4.20      0.00
   10   12    6      6.00      0.00
   10   12    8    -25.27      0.00
   10   12   10     -2.25      0.00
   10   12   12      4.72      0.00
   10   12   14     -5.82      0.00
   11   12    1      0.41      0.00
   11   12    3     -0.55      0.00
   11   12    5     -2.43      0.00
   11   12    7      3.01      0.00
   11   12    9     -6.42      0.00
   11   12   11      0.72      0.00
   11   12   13      5.73      0.00
   12   12    0      5.49      0.00
   12   12    4      1.17      0.00
   12   12    8     23.67      0.00
   12   12   12    -13.22      0.00
    0   13    1      5.99      0.00
    0   13    3      0.56      0.00
    0   13    5    -13.99      0.00
    0   13    7     -4.22      0.00
    0   13    9      4.06      0.00
    0   13   11      9.99      0.00
    0   13   13     10.11      0.00
    1   13    2     -2.11      0.00
    1   13    4      1.61      0.00
    1   13    6      1.14      0.00
    1   13    8     -4.16      0.00
    1   13   10     -1.28      0.00
    1   13   12      0.89      0.00
    1   13   14      2.34      0.00
    2   13    1      4.01      0.00
    2   13    3     -3.81      0.00
    2   13    5      4.34      0.00
    2   13    7     -0.12      0.00
    2   13    9     -0.99      0.00
    2   13   11     -7.67      0.00
    2   13   13     -8.04      0.00
    3   13    2     -0.41      0.00
    3   13    4      3.19      0.00
    3   13    6      1.52      0.00
    3   13    8     13.16      0.00
    3   13   10      1.23      0.00
    3   13   12      0.07      0.00
    3   13   14     -1.70      0.00
    4   13    1     -1.12      0.00
    4   13    3      3.94      0.00
    4   13    5      9.46      0.00
    4   13    7     -0.89      0.00
    4   13    9     -0.68      0.00
    4   13   11      1.21      0.00
    4   13   13     -2.56      0.00
    5   13    2      1.78      0.00
    5   13    4     -9.15      0.00
    5   13    6     -1.75      0.00
    5   13    8     -5.25      0.00
    5   13   10      1.98      0.00
    5   13   12     -0.42      0.00
    5   13   14     -2.26      0.00
    6   13    1    -11.04      0.00
    6   13    3     -2.63      0.00
    6   13    5    -12.04      0.00
    6   13    7      6.99      0.00
    6   13    9     -1.07      0.00
    6   13   11      1.66      0.00
    6   13   13     12.60      0.00
    7   13    2      3.14      0.00
    7   13    4     11.32      0.00
    7   13    6     -3.93      0.00
    7   13    8     -8.15      0.00
    7   13   10     -3.59      0.00
    7   13   12     -1.69      0.00
    7   13   14      1.20      0.00
    8   13    1      3.80      0.00
    8   13    3      8.52      0.00
    8   13    5     10.62      0.00
    8   13    7     -1.45      0.00
    8   13    9      2.47      0.00
    8   13   11      1.41      0.00
    8   13   13     -6.90      0.00
    9   13    2     -0.88      0.00
    9   13    4     -7.75      0.00
    9   13    6      0.94      0.00
    9   13    8     -1.14      0.00
    9   13   10     -1.49      0.00
    9   13   12      6.60      0.00
   10   13    1      0.60      0.00
   10   13    3     -7.74      0.00
   10   13    5     -7.91      0.00
   10   13    7     -5.04      0.00
   10   13    9     -3.38      0.00
   10   13   11      2.15      0.00
   10   13   13     -0.94      0.00
   11   13    2     -1.91      0.00
   11   13    4     -2.59      0.00
   11   13    6      5.69      0.00
   11   13    8      6.91      0.00
   11   13   10     10.28      0.00
   11   13   12     -8.99      0.00
   12   13    1      1.59      0.00
   12   13    3     -3.44      0.00
   12   13    5     -0.43      0.00
   12   13    7      6.76      0.00
   12   13    9      3.13      0.00
   12   13   11     -5.18      0.00
   12   13   13     -1.42      0.00
   13   13    2      0.81      0.00
   13   13    6     -4.79      0.00
   13   13   10     -9.61      0.00
    0   14    0    -34.34      0.00
    0   14    2      9.14      0.00
    0   14    4     -4.80      0.00
    0   14    6      7.21      0.00
    0   14    8      3.15      0.00
    0   14   10     -1.58      0.00
    0   14   12     -4.68      0.00
    0   14   14     -3.75      0.00
    1   14    1      8.26      0.00
    1   14    3      9.97      0.00
    1   14    5     -9.05      0.00
    1   14    7     -3.39      0.00
    1   14    9     -3.76      0.00
    1   14   11      4.17      0.00
    1   14   13     -2.12      0.00
    2   14    0     22.95      0.00
    2   14    2    -23.17      0.00
    2   14    4     -1.70      0.00
    2   14    6      1.31      0.00
    2   14    8     -2.00      0.00
    2   14   10      4.78      0.00
    2   14   12      0.52      0.00
    2   14   14     -1.17      0.00
    3   14    1    -14.51      0.00
    3   14    3     -4.51      0.00
    3   14    5      8.52      0.00
    3   14    7     -2.58      0.00
    3   14    9     -0.25      0.00
    3   14   11     -2.84      0.00
    3   14   13      2.27      0.00
    4   14    0     -9.89      0.00
    4   14    2      9.35      0.00
    4   14    4      5.31      0.00
    4   14    6     -3.38      0.00
    4   14    8     -0.05      0.00
    4   14   10     -4.71      0.00
    4   14   12     -0.92      0.00
    4   14   14      0.16      0.00
    5   14    1      6.09      0.00
    5   14    3     -7.28      0.00
    5   14    5     -5.18      0.00
    5   14    7     10.26      0.00
    5   14    9      4.30      0.00
    5   14   11     -3.34      0.00
    5   14   13      3.47      0.00
    6   14    0     11.81      0.00
    6   14    2     13.78      0.00
    6   14    4     -1.32      0.00
    6   14    6     -3.38      0.00
    6   14    8      3.14      0.00
    6   14   10     -0.79      0.00
    6   14   12      6.35      0.00
    6   14   14      9.86      0.00
    7   14    1      2.43      0.00
    7   14    3     -3.56      0.00
    7   14    5     10.98      0.00
    7   14    7     -3.48      0.00
    7   14    9      6.18      0.00
    7   14   11     -1.53      0.00
    7   14   13     -4.29      0.00
    8   14    0     -8.55      0.00
    8   14    2      2.54      0.00
    8   14    4      4.46      0.00
    8   14    6      3.38      0.00
    8   14    8     -0.94      0.00
    8   14   10     -0.26      0.00
    8   14   12     -3.13      0.00
    9   14    1     -3.08      0.00
    9   14    3      6.00      0.00
    9   14    5     -8.69      0.00
    9   14    7     -1.91      0.00
    9   14    9     -6.12      0.00
    9   14   11      6.15      0.00
    9   14   13     -2.76      0.00
   10   14    0      1.97      0.00
   10   14    2      0.75      0.00
   10   14    4     -5.93      0.00
   10   14    6     -5.22      0.00
   10   14    8     -5.56      0.00
   10   14   10      0.18      0.00
   10   14   12      2.46      0.00
   11   14    1     -2.29      0.00
   11   14    3     -3.07      0.00
   11   14    5      9.51      0.00
   11   14    7      2.04      0.00
   11   14    9     -4.17      0.00
   11   14   11     -1.37      0.00
   11   14   13      4.75      0.00
   12   14    0     -6.81      0.00
   12   14    2    -10.35      0.00
   12   14    4      0.88      0.00
   12   14    6      4.84      0.00
   12   14    8      4.02      0.00
   12   14   10      3.40      0.00
   12   14   12     -5.20      0.00
   13   14    1      5.50      0.00
   13   14    3      6.57      0.00
   13   14    5     -5.42      0.00
   13   14    7     -3.58      0.00
   13   14    9      4.26      0.00
   13   14   11      0.83      0.00
   13   14   13     -2.43      0.00
   14   14    0      7.02      0.00
   14   14    4     -2.11      0.00
   14   14    8     -2.00      0.00
   14   14   12     -1.72      0.00
    0   15    1      0.71      0.00
    0   15    3     -2.02      0.00
    0   15    5     -0.27      0.00
    0   15    7     -3.52      0.00
    0   15    9      0.08      0.00
    0   15   11     -1.79      0.00
    0   15   13      6.64      0.00
    1   15    2      8.45      0.00
    1   15    4     -7.64      0.00
    1   15    6      0.70      0.00
    1   15    8     -3.95      0.00
    1   15   10      5.30      0.00
    1   15   12      1.46      0.00
    1   15   14      1.32      0.00
    2   15    1      5.11      0.00
    2   15    3      7.09      0.00
    2   15    5      0.90      0.00
    2   15    7     -4.01      0.00
    2   15    9     -0.66      0.00
    2   15   11     -3.68      0.00
    2   15   13     -5.58      0.00
    3   15    2     -7.10      0.00
    3   15    4      4.39      0.00
    3   15    6      6.16      0.00
    3   15    8     11.76      0.00
    3   15   10     -4.67      0.00
    3   15   12     -6.43      0.00
    3   15   14      0.49      0.00
    4   15    1     -8.87      0.00
    4   15    3     -1.81      0.00
    4   15    5      0.62      0.00
    4   15    7      0.95      0.00
    4   15    9      2.10      0.00
    4   15   11      4.19      0.00
    4   15   13     -5.29      0.00
    5   15    2     -2.76      0.00
    5   15    4     -0.72      0.00
    5   15    6     -9.47      0.00
    5   15    8     -6.53      0.00
    5   15   10     -6.04      0.00
    5   15   12     12.91      0.00
    6   15    1     -2.54      0.00
    6   15    3     -9.57      0.00
    6   15    5     -5.12      0.00
    6   15    7     10.96      0.00
    6   15    9     -0.66      0.00
    6   15   11      1.36      0.00
    6   15   13     14.29      0.00
    7   15    2     -0.45      0.00
    7   15    4     11.28      0.00
    7   15    6      1.60      0.00
    7   15    8     -0.61      0.00
    7   15   10      5.17      0.00
    7   15   12     -8.52      0.00
    8   15    1      6.60      0.00
    8   15    3      7.73      0.00
    8   15    5      6.81      0.00
    8   15    7     -5.11      0.00
    8   15    9     -8.50      0.00
    8   15   11      3.82      0.00
    8   15   13     -1.70      0.00
    9   15    2      0.11      0.00
    9   15    4     -5.06      0.00
    9   15    6      1.44      0.00
    9   15    8     -2.92      0.00
    9   15   10      2.66      0.00
    9   15   12     -0.13      0.00
   10   15    1      3.85      0.00
   10   15    3     -3.13      0.00
   10   15    5      0.30      0.00
   10   15    7     -2.00      0.00
   10   15    9     11.28      0.00
   10   15   11     -0.97      0.00
   10   15   13     -7.63      0.00
   11   15    2      2.02      0.00
   11   15    4     -6.01      0.00
   11   15    6     -1.64      0.00
   11   15    8      2.40      0.00
   11   15   10      2.74      0.00
   11   15   12     -2.85      0.00
   12   15    1     -4.53      0.00
   12   15    3     -1.45      0.00
   12   15    5     -3.15      0.00
   12   15    7      3.72      0.00
   12   15    9     -2.50      0.00
   12   15   11     -8.64      0.00
   12   15   13     -1.65      0.00
   13   15    2      2.11      0.00
   13   15    4      4.01      0.00
   13   15    6     -2.67      0.00
   13   15    8     -1.79      0.00
   13   15   10     -3.43      0.00
   13   15   12      2.64      0.00
   14   15    1      0.99      0.00
   14   15    3      0.44      0.00
   14   15    5     -0.25      0.00
   14   15    7     -3.58      0.00
   14   15    9      0.64      0.00
   14   15   11      0.65      0.00
   15   15    2     -1.54      0.00
   15   15    6      8.29      0.00
   15   15   10     -6.57      0.00
    0   16    0     24.84      0.00
    0   16    2      4.48      0.00
    0   16    4      7.89      0.00
    0   16    6      2.20      0.00
    0   16    8      3.63      0.00
    0   16   10      5.32      0.00
    0   16   12      9.29      0.00
    1   16    1      6.22      0.00
    1   16    3     -7.01      0.00
    1   16    5     -6.20      0.00
    1   16    7     -8.63      0.00
    1   16    9     -1.39      0.00
    1   16   11     -3.89      0.00
    1   16   13    -10.90      0.00
    2   16    0    -19.29      0.00
    2   16    2     -6.60      0.00
    2   16    4     -5.41      0.00
    2   16    6      5.30      0.00
    2   16    8      3.44      0.00
    2   16   10      3.26      0.00
    2   16   12     -4.38      0.00
    3   16    1     -5.19      0.00
    3   16    3      6.88      0.00
    3   16    5      4.08      0.00
    3   16    7      0.34      0.00
    3   16    9     -6.73      0.00
    3   16   11      7.84      0.00
    3   16   13     12.31      0.00
    4   16    0      4.03      0.00
    4   16    2     -3.34      0.00
    4   16    4      0.70      0.00
    4   16    6    -11.09      0.00
    4   16    8     -1.07      0.00
    4   16   10     -8.49      0.00
    4   16   12     -5.21      0.00
    5   16    1     -2.75      0.00
    5   16    3     -0.60      0.00
    5   16    5      7.29      0.00
    5   16    7     14.78      0.00
    5   16    9      4.81      0.00
    5   16   11     -2.20      0.00
    5   16   13      2.80      0.00
    6   16    0      3.80      0.00
    6   16    2     10.50      0.00
    6   16    4     -2.95      0.00
    6   16    6      1.89      0.00
    6   16    8     -9.24      0.00
    6   16   10      3.57      0.00
    6   16   12      2.78      0.00
    7   16    1     -1.28      0.00
    7   16    3      4.07      0.00
    7   16    5     -6.61      0.00
    7   16    7      2.40      0.00
    7   16    9     10.49      0.00
    7   16   11     -1.57      0.00
    7   16   13      0.31      0.00
    8   16    0     -1.12      0.00
    8   16    2      4.12      0.00
    8   16    4      4.98      0.00
    8   16    6      2.25      0.00
    8   16    8     -3.75      0.00
    8   16   10     -4.18      0.00
    8   16   12      6.38      0.00
    9   16    1      3.61      0.00
    9   16    3     -3.78      0.00
    9   16    5      1.86      0.00
    9   16    7     -9.95      0.00
    9   16    9     -5.61      0.00
    9   16   11     -4.80      0.00
    9   16   13     -8.24      0.00
   10   16    0      5.62      0.00
   10   16    2     -4.37      0.00
   10   16    4      2.02      0.00
   10   16    6      1.38      0.00
   10   16    8     14.51      0.00
   10   16   10      6.51      0.00
   10   16   12     -1.54      0.00
   11   16    1     -3.41      0.00
   11   16    3     -0.54      0.00
   11   16    5     -0.07      0.00
   11   16    7     -2.83      0.00
   11   16    9     -1.60      0.00
   11   16   11      3.43      0.00
   11   16   13      2.91      0.00
   12   16    0    -11.04      0.00
   12   16    2     -6.32      0.00
   12   16    4      0.72      0.00
   12   16    6      1.00      0.00
   12   16    8     -1.39      0.00
   12   16   10     -5.78      0.00
   12   16   12     -4.01      0.00
   13   16    1      6.33      0.00
   13   16    3     -0.90      0.00
   13   16    5     -1.68      0.00
   13   16    7      1.75      0.00
   13   16    9      2.46      0.00
   13   16   11      3.22      0.00
   14   16    0      7.67      0.00
   14   16    2      3.21      0.00
   14   16    4     -8.32      0.00
   14   16    6     -0.81      0.00
   14   16    8     -5.20      0.00
   14   16   10      2.76      0.00
   14   16   12     -0.98      0.00
   15   16    1      0.07      0.00
   15   16    3      5.26      0.00
   15   16    5      3.60      0.00
   15   16    7      2.30      0.00
   15   16    9     -2.54      0.00
   15   16   11      2.45      0.00
   16   16    0     -1.79      0.00
   16   16    4      4.91      0.00
   16   16    8     -2.22      0.00
   16   16   12      2.45      0.00
    0   17    1      8.85      0.00
    0   17    3    -10.08      0.00
    0   17    5      2.99      0.00
    0   17    7     -6.44      0.00
    0   17    9     -1.24      0.00
    0   17   11     -5.14      0.00
    0   17   13     -4.66      0.00
    1   17    2      1.39      0.00
    1   17    4      1.98      0.00
    1   17    6     -4.28      0.00
    1   17    8     -0.52      0.00
    1   17   10      2.86      0.00
    1   17   12      1.52      0.00
    2   17    1      1.29      0.00
    2   17    3     15.64      0.00
    2   17    5     -2.79      0.00
    2   17    7      4.10      0.00
    2   17    9     -2.49      0.00
    2   17   11      2.21      0.00
    2   17   13      1.08      0.00
    3   17    2     -3.22      0.00
    3   17    4     -6.80      0.00
    3   17    6      4.60      0.00
    3   17    8      2.60      0.00
    3   17   10     -0.05      0.00
    3   17   12    -14.36      0.00
    4   17    1     -7.66      0.00
    4   17    3     -6.17      0.00
    4   17    5      2.80      0.00
    4   17    7     -1.47      0.00
    4   17    9      4.19      0.00
    4   17   11     -6.13      0.00
    4   17   13      0.38      0.00
    5   17    2     -0.05      0.00
    5   17    4     -0.44      0.00
    5   17    6      0.22      0.00
    5   17    8     -7.60      0.00
    5   17   10     -2.65      0.00
    5   17   12     23.78      0.00
    6   17    1     -2.77      0.00
    6   17    3     -7.82      0.00
    6   17    5     -8.14      0.00
    6   17    7      2.78      0.00
    6   17    9      3.06      0.00
    6   17   11      7.04      0.00
    6   17   13      1.35      0.00
    7   17    2      1.73      0.00
    7   17    4     11.76      0.00
    7   17    6      4.57      0.00
    7   17    8      6.73      0.00
    7   17   10     -5.14      0.00
    7   17   12     -4.56      0.00
    8   17    1      3.16      0.00
    8   17    3     -5.11      0.00
    8   17    5     10.83      0.00
    8   17    7     -4.65      0.00
    8   17    9     -6.04      0.00
    8   17   11      4.85      0.00
    8   17   13     10.12      0.00
    9   17    2      7.43      0.00
    9   17    4     -4.83      0.00
    9   17    6     -5.04      0.00
    9   17    8      3.28      0.00
    9   17   10      9.79      0.00
    9   17   12     -9.47      0.00
   10   17    1      3.84      0.00
   10   17    3      9.37      0.00
   10   17    5     -0.67      0.00
   10   17    7      4.25      0.00
   10   17    9      1.03      0.00
   10   17   11     -3.88      0.00
   10   17   13    -16.92      0.00
   11   17    2    -12.67      0.00
   11   17    4     -3.07      0.00
   11   17    6     -2.15      0.00
   11   17    8     -3.92      0.00
   11   17   10     -2.62      0.00
   11   17   12      0.06      0.00
   12   17    1     -0.09      0.00
   12   17    3      6.97      0.00
   12   17    5     -3.02      0.00
   12   17    7     -2.05      0.00
   12   17    9     -0.88      0.00
   12   17   11      0.31      0.00
   13   17    2      2.59      0.00
   13   17    4      0.00      0.00
   13   17    6     -2.40      0.00
   13   17    8     -1.05      0.00
   13   17   10     -4.53      0.00
   13   17   12     -2.63      0.00
   14   17    1     -0.19      0.00
   14   17    3     -9.16      0.00
   14   17    5      0.40      0.00
   14   17    7      1.77      0.00
   14   17    9      3.66      0.00
   14   17   11     -8.04      0.00
   15   17    2      4.65      0.00
   15   17    4      2.40      0.00
   15   17    6      4.78      0.00
   15   17    8     -1.45      0.00
   15   17   10      0.05      0.00
   15   17   12      7.90      0.00
   16   17    1     -2.14      0.00
   16   17    3     -0.08      0.00
   16   17    5     -2.55      0.00
   16   17    7     -2.39      0.00
   16   17    9     -0.16      0.00
   16   17   11      6.37      0.00
   17   17    2     -0.07      0.00
   17   17    6      4.90      0.00
   17   17   10      1.58      0.00
    0   18    0     99.55      0.00
    0   18    2     -2.11      0.00
    0   18    4    -12.48      0.00
    0   18    6      5.11      0.00
    0   18    8     -3.75      0.00
    0   18   10     13.49      0.00
    0   18   12     -5.23      0.00
    1   18    1    -11.57      0.00
    1   18    3      0.38      0.00
    1   18    5     -1.55      0.00
    1   18    7     -1.66      0.00
    1   18    9      2.48      0.00
    1   18   11     -2.62      0.00
    1   18   13     -3.92      0.00
    2   18    0    -52.28      0.00
    2   18    2      9.19      0.00
    2   18    4      4.57      0.00
    2   18    6     -4.96      0.00
    2   18    8      3.61      0.00
    2   18   10     -5.44      0.00
    2   18   12      0.60      0.00
    3   18    1     18.50      0.00
    3   18    3     -4.35      0.00
    3   18    5      0.14      0.00
    3   18    7     -3.29      0.00
    3   18    9     -4.15      0.00
    3   18   11      4.55      0.00
    3   18   13      7.13      0.00
    4   18    0     -4.65      0.00
    4   18    2    -12.14      0.00
    4   18    4     -2.52      0.00
    4   18    6      6.20      0.00
    4   18    8     -0.82      0.00
    4   18   10     -4.87      0.00
    4   18   12      1.61      0.00
    5   18    1     -7.67      0.00
    5   18    3      4.74      0.00
    5   18    5      1.29      0.00
    5   18    7      5.25      0.00
    5   18    9      1.74      0.00
    5   18   11     -0.68      0.00
    5   18   13     -5.26      0.00
    6   18    0      0.80      0.00
    6   18    2      4.04      0.00
    6   18    4      5.38      0.00
    6   18    6     -4.58      0.00
    6   18    8     -2.90      0.00
    6   18   10      2.47      0.00
    6   18   12      2.64      0.00
    7   18    1     -2.14      0.00
    7   18    3     -3.93      0.00
    7   18    5      3.33      0.00
    7   18    7      1.03      0.00
    7   18    9     -1.90      0.00
    7   18   11      2.38      0.00
    7   18   13      3.04      0.00
    8   18    0      6.12      0.00
    8   18    2      3.54      0.00
    8   18    4     -1.01      0.00
    8   18    6     -4.75      0.00
    8   18    8     -2.18      0.00
    8   18   10      0.41      0.00
    8   18   12      1.72      0.00
    9   18    1      4.80      0.00
    9   18    3      6.26      0.00
    9   18    5     -0.14      0.00
    9   18    7      1.65      0.00
    9   18    9      1.69      0.00
    9   18   11    -11.41      0.00
   10   18    0      4.04      0.00
   10   18    2     -5.99      0.00
   10   18    4      4.10      0.00
   10   18    6      5.84      0.00
   10   18    8      5.31      0.00
   10   18   10      4.85      0.00
   10   18   12     -0.80      0.00
   11   18    1     -3.21      0.00
   11   18    3     -2.24      0.00
   11   18    5     -4.05      0.00
   11   18    7      1.80      0.00
   11   18    9      4.53      0.00
   11   18   11      6.56      0.00
   12   18    0     -8.28      0.00
   12   18    2      0.33      0.00
   12   18    4     -1.39      0.00
   12   18    6     -0.27      0.00
   12   18    8      3.65      0.00
   12   18   10     -6.21      0.00
   12   18   12    -13.24      0.00
   13   18    1      2.34      0.00
   13   18    3     -1.31      0.00
   13   18    5     -0.96      0.00
   13   18    7     -9.29      0.00
   13   18    9     -0.10      0.00
   13   18   11      4.83      0.00
   14   18    0     10.69      0.00
   14   18    2      2.35      0.00
   14   18    4     -7.26      0.00
   14   18    6      2.54      0.00
   14   18    8     -2.80      0.00
   14   18   10      4.26      0.00
   14   18   12     11.86      0.00
   15   18    1     -0.89      0.00
   15   18    3      2.70      0.00
   15   18    5      0.44      0.00
   15   18    7      3.89      0.00
   15   18    9     -9.06      0.00
   15   18   11     -2.79      0.00
   16   18    0     -0.19      0.00
   16   18    2      1.75      0.00
   16   18    4      3.22      0.00
   16   18    6     -0.82      0.00
   16   18    8     -4.34      0.00
   16   18   10     -4.06      0.00
   17   18    1      1.43      0.00
   17   18    3     -0.29      0.00
   17   18    5      2.89      0.00
   17   18    7     -1.20      0.00
   17   18    9      2.30      0.00
   17   18   11      1.91      0.00
   18   18    0     -9.54      0.00
   18   18    4      2.50      0.00
   18   18    8      0.76      0.00
    0   19    1      3.66      0.00
    0   19    3      5.81      0.00
    0   19    5     -0.10      0.00
    0   19    7      2.18      0.00
    0   19    9     -0.28      0.00
    0   19   11     -0.19      0.00
    0   19   13     -5.26      0.00
    1   19    2      0.55      0.00
    1   19    4      1.83      0.00
    1   19    6     -5.79      0.00
    1   19    8     -2.74      0.00
    1   19   10     -0.78      0.00
    1   19   12     -2.87      0.00
    2   19    1     -2.74      0.00
    2   19    3     -4.16      0.00
    2   19    5      3.47      0.00
    2   19    7      0.38      0.00
    2   19    9      0.03      0.00
    2   19   11     -2.01      0.00
    2   19   13      5.18      0.00
    3   19    2      3.68      0.00
    3   19    4     -6.40      0.00
    3   19    6      2.69      0.00
    3   19    8      6.58      0.00
    3   19   10     -0.79      0.00
    3   19   12     -4.65      0.00
    4   19    1      2.97      0.00
    4   19    3      1.04      0.00
    4   19    5     -2.98      0.00
    4   19    7     -1.33      0.00
    4   19    9     -2.38      0.00
    4   19   11      1.45      0.00
    4   19   13     -3.24      0.00
    5   19    2     -7.80      0.00
    5   19    4      6.87      0.00
    5   19    6      3.97      0.00
    5   19    8     -6.97      0.00
    5   19   10      5.22      0.00
    5   19   12     11.01      0.00
    6   19    1     -1.48      0.00
    6   19    3     -3.01      0.00
    6   19    5     -4.94      0.00
    6   19    7     -2.10      0.00
    6   19    9      4.46      0.00
    6   19   11      0.24      0.00
    7   19    2      1.01      0.00
    7   19    4     -0.59      0.00
    7   19    6      5.31      0.00
    7   19    8      1.03      0.00
    7   19   10     -4.33      0.00
    7   19   12      4.11      0.00
    8   19    1      1.25      0.00
    8   19    3     -1.29      0.00
    8   19    5      5.08      0.00
    8   19    7      2.72      0.00
    8   19    9      4.61      0.00
    8   19   11      5.01      0.00
    9   19    2      5.35      0.00
    9   19    4      2.20      0.00
    9   19    6     -5.84      0.00
    9   19    8      3.61      0.00
    9   19   10     -0.54      0.00
    9   19   12     -5.02      0.00
   10   19    1     -5.35      0.00
   10   19    3     10.00      0.00
   10   19    5     -0.29      0.00
   10   19    7     -0.01      0.00
   10   19    9     -7.27      0.00
   10   19   11     -2.50      0.00
   11   19    2     -3.53      0.00
   11   19    4     -5.15      0.00
   11   19    6     -4.29      0.00
   11   19    8      1.70      0.00
   11   19   10      3.19      0.00
   11   19   12     -8.88      0.00
   12   19    1      6.48      0.00
   12   19    3     -1.88      0.00
   12   19    5      0.60      0.00
   12   19    7      1.09      0.00
   12   19    9     -5.89      0.00
   12   19   11     -3.67      0.00
   13   19    2     -0.11      0.00
   13   19    4     -1.34      0.00
   13   19    6      3.70      0.00
   13   19    8     -0.91      0.00
   13   19   10     -5.31      0.00
   14   19    1     -8.02      0.00
   14   19    3     -2.21      0.00
   14   19    5     -0.01      0.00
   14   19    7     -0.74      0.00
   14   19    9      5.75      0.00
   14   19   11     -2.95      0.00
   15   19    2      3.17      0.00
   15   19    4      1.63      0.00
   15   19    6      0.53      0.00
   15   19    8     -6.27      0.00
   15   19   10      4.82      0.00
   16   19    1      6.26      0.00
   16   19    3     -5.35      0.00
   16   19    5      1.06      0.00
   16   19    7     -3.62      0.00
   16   19    9      2.14      0.00
   16   19   11      3.80      0.00
   17   19    2      1.05      0.00
   17   19    4      0.20      0.00
   17   19    6      5.49      0.00
   17   19    8      3.16      0.00
   17   19   10      0.96      0.00
   18   19    1     -0.65      0.00
   18   19    3      2.97      0.00
   18   19    5     -5.01      0.00
   18   19    7     -2.67      0.00
   18   19    9      1.27      0.00
   19   19    2     -5.93      0.00
   19   19    6     -6.88      0.00
   19   19   10     -3.75      0.00
    0   20    0     19.67      0.00
    0   20    2      0.84      0.00
    0   20    4     -4.13      0.00
    0   20    6      6.16      0.00
    0   20    8      0.72      0.00
    0   20   10      8.34      0.00
    0   20   12    -10.71      0.00
    1   20    1     -0.20      0.00
    1   20    3      0.86      0.00
    1   20    5     -3.43      0.00
    1   20    7      1.12      0.00
    1   20    9     -0.44      0.00
    1   20   11      0.20      0.00
    2   20    0      3.85      0.00
    2   20    2      3.90      0.00
    2   20    4      0.36      0.00
    2   20    6     -4.47      0.00
    2   20    8     -2.51      0.00
    2   20   10     -1.97      0.00
    2   20   12      1.57      0.00
    3   20    1      0.53      0.00
    3   20    3      1.46      0.00
    3   20    5      0.89      0.00
    3   20    7      0.71      0.00
    3   20    9      0.18      0.00
    3   20   11      0.44      0.00
    4   20    0    -16.52      0.00
    4   20    2     -5.92      0.00
    4   20    4      0.26      0.00
    4   20    6      3.09      0.00
    4   20    8     -1.95      0.00
    4   20   10     -1.50      0.00
    4   20   12      2.58      0.00
    5   20    1     -2.24      0.00
    5   20    3     -3.94      0.00
    5   20    5      3.90      0.00
    5   20    7     -1.86      0.00
    5   20    9      4.09      0.00
    5   20   11     -1.80      0.00
    6   20    0     -0.28      0.00
    6   20    2      0.33      0.00
    6   20    4      2.27      0.00
    6   20    6     -3.36      0.00
    6   20    8      6.97      0.00
    6   20   10     -8.44      0.00
    6   20   12     11.61      0.00
    7   20    1      0.89      0.00
    7   20    3     -2.55      0.00
    7   20    5      1.20      0.00
    7   20    7     -8.90      0.00
    7   20    9     -6.68      0.00
    7   20   11      4.01      0.00
    8   20    0     -1.95      0.00
    8   20    2     -2.49      0.00
    8   20    4      1.32      0.00
    8   20    6      2.53      0.00
    8   20    8     -2.47      0.00
    8   20   10      7.08      0.00
    8   20   12    -11.42      0.00
    9   20    1      3.57      0.00
    9   20    3      9.71      0.00
    9   20    5     -6.90      0.00
    9   20    7      8.89      0.00
    9   20    9      3.31      0.00
    9   20   11     -2.51      0.00
   10   20    0      8.02      0.00
   10   20    2      4.45      0.00
   10   20    4     -1.29      0.00
   10   20    6     -1.87      0.00
   10   20    8      0.52      0.00
   10   20   10      1.24      0.00
   10   20   12      0.98      0.00
   11   20    1     -5.56      0.00
   11   20    3     -5.94      0.00
   11   20    5      8.49      0.00
   11   20    7     13.88      0.00
   11   20    9      0.13      0.00
   11   20   11     -3.87      0.00
   12   20    0     -5.33      0.00
   12   20    2      0.67      0.00
   12   20    4     -2.87      0.00
   12   20    6      0.89      0.00
   12   20    8      0.33      0.00
   12   20   10      6.33      0.00
   13   20    1      3.34      0.00
   13   20    3      2.88      0.00
   13   20    5     -2.61      0.00
   13   20    7    -16.85      0.00
   13   20    9      1.11      0.00
   13   20   11      2.38      0.00
   14   20    0      2.50      0.00
   14   20    2      0.56      0.00
   14   20    4     -0.32      0.00
   14   20    6      1.58      0.00
   14   20    8     -1.45      0.00
   14   20   10     -2.91      0.00
   15   20    1      2.57      0.00
   15   20    3     -5.88      0.00
   15   20    5     -3.39      0.00
   15   20    7     -0.76      0.00
   15   20    9     -3.18      0.00
   15   20   11      1.79      0.00
   16   20    0      1.75      0.00
   16   20    2      3.24      0.00
   16   20    4      5.28      0.00
   16   20    6     -0.29      0.00
   16   20    8     -0.29      0.00
   16   20   10     -9.42      0.00
   17   20    1     -1.66      0.00
   17   20    3      1.11      0.00
   17   20    5      1.93      0.00
   17   20    7     -0.25      0.00
   17   20    9     -1.71      0.00
   18   20    0      0.35      0.00
   18   20    2     -7.77      0.00
   18   20    4     -1.51      0.00
   18   20    6     -2.92      0.00
   18   20    8      0.62      0.00
   18   20   10      3.82      0.00
   19   20    1      1.10      0.00
   19   20    3      3.41      0.00
   19   20    5      0.28      0.00
   19   20    7      6.27      0.00
   19   20    9      3.81      0.00
   20   20    0     -6.71      0.00
   20   20    4     -2.85      0.00
   20   20    8     -2.15      0.00
    0   21    1     -8.87      0.00
    0   21    3     -0.87      0.00
    0   21    5      1.93      0.00
    0   21    7      2.24      0.00
    0   21    9     -0.96      0.00
    0   21   11    -17.49      0.00
    1   21    2      9.17      0.00
    1   21    4     -3.41      0.00
    1   21    6     -0.67      0.00
    1   21    8     -6.15      0.00
    1   21   10      3.57      0.00
    1   21   12      0.66      0.00
    2   21    1     -0.74      0.00
    2   21    3     -2.02      0.00
    2   21    5      0.74      0.00
    2   21    7     -0.59      0.00
    2   21    9      5.80      0.00
    2   21   11      1.70      0.00
    3   21    2     -5.53      0.00
    3   21    4      0.74      0.00
    3   21    6     -0.52      0.00
    3   21    8      8.85      0.00
    3   21   10     -7.60      0.00
    3   21   12     -0.38      0.00
    4   21    1      5.25      0.00
    4   21    3     -2.43      0.00
    4   21    5     -1.87      0.00
    4   21    7     -2.18      0.00
    4   21    9     -8.54      0.00
    4   21   11     13.51      0.00
    5   21    2     -3.82      0.00
    5   21    4      6.36      0.00
    5   21    6      0.73      0.00
    5   21    8      1.07      0.00
    5   21   10      3.47      0.00
    5   21   12     -2.61      0.00
    6   21    1      1.36      0.00
    6   21    3      5.88      0.00
    6   21    5      0.49      0.00
    6   21    7      0.29      0.00
    6   21    9      1.43      0.00
    6   21   11     -2.60      0.00
    7   21    2     -4.01      0.00
    7   21    4     -3.92      0.00
    7   21    6      0.97      0.00
    7   21    8     -4.54      0.00
    7   21   10      2.85      0.00
    7   21   12      2.20      0.00
    8   21    1      0.97      0.00
    8   21    3     -0.18      0.00
    8   21    5     -2.56      0.00
    8   21    7      2.93      0.00
    8   21    9      3.50      0.00
    8   21   11      4.41      0.00
    9   21    2     -0.65      0.00
    9   21    4      2.13      0.00
    9   21    6      3.99      0.00
    9   21    8      0.93      0.00
    9   21   10     -5.00      0.00
    9   21   12      2.51      0.00
   10   21    1     -2.50      0.00
   10   21    3      4.96      0.00
   10   21    5      3.40      0.00
   10   21    7     -4.05      0.00
   10   21    9      0.98      0.00
   10   21   11     -8.41      0.00
   11   21    2      9.97      0.00
   11   21    4     -2.70      0.00
   11   21    6    -10.14      0.00
   11   21    8     -0.47      0.00
   11   21   10      4.51      0.00
   12   21    1     -2.15      0.00
   12   21    3     -9.30      0.00
   12   21    5     -2.54      0.00
   12   21    7      8.11      0.00
   12   21    9     -4.90      0.00
   12   21   11    -12.62      0.00
   13   21    2     -3.72      0.00
   13   21    4      0.68      0.00
   13   21    6      6.66      0.00
   13   21    8     -1.06      0.00
   13   21   10     -0.66      0.00
   14   21    1      1.98      0.00
   14   21    3      2.74      0.00
   14   21    5      4.09      0.00
   14   21    7     -5.53      0.00
   14   21    9      3.57      0.00
   14   21   11      8.81      0.00
   15   21    2     -1.21      0.00
   15   21    4     -1.37      0.00
   15   21    6      0.55      0.00
   15   21    8     -0.04      0.00
   15   21   10     -2.54      0.00
   16   21    1      1.58      0.00
   16   21    3      1.57      0.00
   16   21    5     -1.27      0.00
   16   21    7     -1.39      0.00
   16   21    9     -2.70      0.00
   17   21    2     -1.41      0.00
   17   21    4      2.56      0.00
   17   21    6     -1.67      0.00
   17   21    8      0.28      0.00
   17   21   10      3.16      0.00
   18   21    1      2.60      0.00
   18   21    3     -1.51      0.00
   18   21    5     -5.15      0.00
   18   21    7     -2.30      0.00
   18   21    9     -0.01      0.00
   19   21    2     -1.47      0.00
   19   21    4     -1.55      0.00
   19   21    6      3.31      0.00
   19   21    8      3.82      0.00
   20   21    1     -7.36      0.00
   20   21    3      2.40      0.00
   20   21    5     -0.10      0.00
   20   21    7      2.82      0.00
   20   21    9      0.58      0.00
   21   21    2      3.25      0.00
   21   21    6     -7.88      0.00
    0   22    0    -16.93      0.00
    0   22    2     11.82      0.00
    0   22    4      5.24      0.00
    0   22    6      5.99      0.00
    0   22    8      5.80      0.00
    0   22   10      0.89      0.00
    0   22   12      2.73      0.00
    1   22    1      9.81      0.00
    1   22    3    -11.86      0.00
    1   22    5     -3.66      0.00
    1   22    7     -1.44      0.00
    1   22    9     -2.47      0.00
    1   22   11     -0.68      0.00
    2   22    0      6.86      0.00
    2   22    2     -4.57      0.00
    2   22    4      0.12      0.00
    2   22    6     -0.20      0.00
    2   22    8     -5.51      0.00
    2   22   10     -1.18      0.00
    2   22   12     -0.93      0.00
    3   22    1     -8.18      0.00
    3   22    3     15.53      0.00
    3   22    5      1.95      0.00
    3   22    7      5.61      0.00
    3   22    9      1.30      0.00
    3   22   11      5.11      0.00
    4   22    0      5.32      0.00
    4   22    2     -2.92      0.00
    4   22    4     -2.50      0.00
    4   22    6     -5.26      0.00
    4   22    8     -0.29      0.00
    4   22   10      1.77      0.00
    4   22   12     -8.27      0.00
    5   22    1     -1.04      0.00
    5   22    3     -4.63      0.00
    5   22    5      5.31      0.00
    5   22    7     -2.70      0.00
    5   22    9      0.57      0.00
    5   22   11     -4.00      0.00
    6   22    0     -5.97      0.00
    6   22    2     -3.00      0.00
    6   22    4     -0.48      0.00
    6   22    6      1.89      0.00
    6   22    8      5.84      0.00
    6   22   10     -1.00      0.00
    6   22   12     12.66      0.00
    7   22    1     -6.22      0.00
    7   22    3      2.90      0.00
    7   22    5     -2.77      0.00
    7   22    7     -7.09      0.00
    7   22    9     -0.20      0.00
    7   22   11     -4.18      0.00
    8   22    0      3.32      0.00
    8   22    2      4.58      0.00
    8   22    4     -0.37      0.00
    8   22    6     -4.03      0.00
    8   22    8     -5.33      0.00
    8   22   10      0.99      0.00
    9   22    1      5.74      0.00
    9   22    3      0.70      0.00
    9   22    5     -7.83      0.00
    9   22    7      2.91      0.00
    9   22    9      1.35      0.00
    9   22   11      7.70      0.00
   10   22    0     -0.06      0.00
   10   22    2     -1.01      0.00
   10   22    4      0.71      0.00
   10   22    6      9.43      0.00
   10   22    8      7.17      0.00
   10   22   10     -0.12      0.00
   11   22    1     -0.67      0.00
   11   22    3     -2.86      0.00
   11   22    5      8.19      0.00
   11   22    7     10.41      0.00
   11   22    9      0.97      0.00
   11   22   11     -7.88      0.00
   12   22    0     -3.35      0.00
   12   22    2      4.43      0.00
   12   22    4     -2.25      0.00
   12   22    6     -2.33      0.00
   12   22    8     -1.48      0.00
   12   22   10     -4.29      0.00
   13   22    1      0.87      0.00
   13   22    3      1.70      0.00
   13   22    5      3.03      0.00
   13   22    7     -8.25      0.00
   13   22    9      0.70      0.00
   14   22    0      1.08      0.00
   14   22    2     -0.70      0.00
   14   22    4      2.57      0.00
   14   22    6     -0.57      0.00
   14   22    8     -7.41      0.00
   14   22   10      6.66      0.00
   15   22    1      1.74      0.00
   15   22    3     -6.35      0.00
   15   22    5     -3.13      0.00
   15   22    7     -3.36      0.00
   15   22    9     -2.96      0.00
   16   22    0      2.99      0.00
   16   22    2      0.14      0.00
   16   22    4      3.75      0.00
   16   22    6     -4.45      0.00
   16   22    8      0.59      0.00
   16   22   10     -5.74      0.00
   17   22    1     -2.10      0.00
   17   22    3      2.64      0.00
   17   22    5     -3.35      0.00
   17   22    7      3.71      0.00
   17   22    9      0.02      0.00
   18   22    0      0.03      0.00
   18   22    2     -6.19      0.00
   18   22    4     -6.73      0.00
   18   22    6     -0.20      0.00
   18   22    8      5.01      0.00
   19   22    1      1.27      0.00
   19   22    3      6.06      0.00
   19   22    5      6.86      0.00
   19   22    7      1.06      0.00
   19   22    9      0.88      0.00
   20   22    0     -2.97      0.00
   20   22    2      0.38      0.00
   20   22    4     -1.87      0.00
   20   22    6      1.53      0.00
   20   22    8     -1.64      0.00
   21   22    1     -3.29      0.00
   21   22    3     -2.65      0.00
   21   22    5     -6.87      0.00
   21   22    7     -0.74      0.00
   22   22    0      0.62      0.00
   22   22    4      6.41      0.00
    0   23    1     -6.76      0.00
    0   23    3      0.66      0.00
    0   23    5     -1.54      0.00
    0   23    7     -2.71      0.00
    0   23    9      0.78      0.00
    0   23   11    -21.85      0.00
    1   23    2      0.87      0.00
    1   23    4      3.14      0.00
    1   23    6      0.81      0.00
    1   23    8     -4.38      0.00
    1   23   10      5.58      0.00
    2   23    1      8.09      0.00
    2   23    3     -1.71      0.00
    2   23    5      0.85      0.00
    2   23    7      1.85      0.00
    2   23    9      2.05      0.00
    2   23   11      8.22      0.00
    3   23    2     -2.84      0.00
    3   23    4     -3.98      0.00
    3   23    6     -0.98      0.00
    3   23    8      3.31      0.00
    3   23   10     -3.02      0.00
    4   23    1     -7.41      0.00
    4   23    3      0.72      0.00
    4   23    5     -1.05      0.00
    4   23    7     -1.53      0.00
    4   23    9     -2.50      0.00
    4   23   11      3.06      0.00
    5   23    2      4.55      0.00
    5   23    4      0.95      0.00
    5   23    6      2.91      0.00
    5   23    8      3.01      0.00
    5   23   10     -3.94      0.00
    6   23    1     -1.24      0.00
    6   23    3      4.08      0.00
    6   23    5     -1.58      0.00
    6   23    7     -0.86      0.00
    6   23    9     -1.49      0.00
    6   23   11      3.67      0.00
    7   23    2     -2.31      0.00
    7   23    4      0.97      0.00
    7   23    6     -3.47      0.00
    7   23    8     -0.01      0.00
    7   23   10      0.59      0.00
    8   23    1      4.14      0.00
    8   23    3     -3.95      0.00
    8   23    5      3.72      0.00
    8   23    7      5.12      0.00
    8   23    9      0.67      0.00
    8   23   11      0.57      0.00
    9   23    2     -2.04      0.00
    9   23    4     -6.22      0.00
    9   23    6      0.38      0.00
    9   23    8     -0.17      0.00
    9   23   10      1.86      0.00
   10   23    1      2.45      0.00
   10   23    3      1.33      0.00
   10   23    5      2.55      0.00
   10   23    7     -3.91      0.00
   10   23    9     -0.24      0.00
   10   23   11     -5.42      0.00
   11   23    2      2.41      0.00
   11   23    4      4.14      0.00
   11   23    6      0.24      0.00
   11   23    8     -3.90      0.00
   11   23   10     -4.04      0.00
   12   23    1     -4.78      0.00
   12   23    3     -1.07      0.00
   12   23    5     -4.81      0.00
   12   23    7     -0.54      0.00
   12   23    9      4.36      0.00
   13   23    2     -1.85      0.00
   13   23    4      1.17      0.00
   13   23    6     -2.36      0.00
   13   23    8     -0.02      0.00
   13   23   10      3.02      0.00
   14   23    1      6.31      0.00
   14   23    3     -2.28      0.00
   14   23    5      2.65      0.00
   14   23    7      4.69      0.00
   14   23    9      1.07      0.00
   15   23    2      2.90      0.00
   15   23    4      5.21      0.00
   15   23    6      2.92      0.00
   15   23    8      1.64      0.00
   15   23   10      0.63      0.00
   16   23    1     -2.92      0.00
   16   23    3      2.30      0.00
   16   23    5     -2.73      0.00
   16   23    7     -5.21      0.00
   16   23    9    -10.47      0.00
   17   23    2     -1.98      0.00
   17   23    4     -1.36      0.00
   17   23    6      0.19      0.00
   17   23    8      0.46      0.00
   18   23    1     -0.10      0.00
   18   23    3     -0.50      0.00
   18   23    5     -2.10      0.00
   18   23    7     -0.88      0.00
   18   23    9      4.99      0.00
   19   23    2     -0.16      0.00
   19   23    4     -5.65      0.00
   19   23    6      0.95      0.00
   19   23    8      4.20      0.00
   20   23    1     -5.36      0.00
   20   23    3      1.02      0.00
   20   23    5      3.36      0.00
   20   23    7      4.47      0.00
   21   23    2     -0.23      0.00
   21   23    4     -2.26      0.00
   21   23    6     -3.94      0.00
   22   23    1      1.30      0.00
   22   23    3      2.46      0.00
   22   23    5     -0.17      0.00
   22   23    7     -2.63      0.00
   23   23    2      2.26      0.00
   23   23    6      3.55      0.00
    0   24    0     18.08      0.00
    0   24    2     -1.54      0.00
    0   24    4     -3.01      0.00
    0   24    6      3.73      0.00
    0   24    8      0.02      0.00
    0   24   10     -3.34      0.00
    1   24    1      0.42      0.00
    1   24    3     -6.23      0.00
    1   24    5     -3.12      0.00
    1   24    7      2.67      0.00
    1   24    9      2.68      0.00
    1   24   11      0.68      0.00
    2   24    0    -18.50      0.00
    2   24    2      2.70      0.00
    2   24    4      2.17      0.00
    2   24    6     -2.65      0.00
    2   24    8     -5.43      0.00
    2   24   10     -2.85      0.00
    3   24    1      2.33      0.00
    3   24    3      6.49      0.00
    3   24    5      5.84      0.00
    3   24    7      0.05      0.00
    3   24    9     -4.60      0.00
    3   24   11      3.75      0.00
    4   24    0      9.39      0.00
    4   24    2     -2.48      0.00
    4   24    4     -1.50      0.00
    4   24    6      0.77      0.00
    4   24    8      7.55      0.00
    4   24   10      1.32      0.00
    5   24    1      2.31      0.00
    5   24    3     -0.22      0.00
    5   24    5     -3.40      0.00
    5   24    7     -4.74      0.00
    5   24    9      1.72      0.00
    5   24   11     -7.07      0.00
    6   24    0     -6.53      0.00
    6   24    2     -1.24      0.00
    6   24    4      3.34      0.00
    6   24    6      7.36      0.00
    6   24    8     -1.85      0.00
    6   24   10     11.25      0.00
    7   24    1     -9.72      0.00
    7   24    3     -0.67      0.00
    7   24    5      1.30      0.00
    7   24    7     -1.78      0.00
    7   24    9     -1.32      0.00
    7   24   11      1.60      0.00
    8   24    0     12.18      0.00
    8   24    2      3.45      0.00
    8   24    4     -4.20      0.00
    8   24    6    -19.65      0.00
    8   24    8     -1.87      0.00
    8   24   10     -5.91      0.00
    9   24    1      2.65      0.00
    9   24    3      1.72      0.00
    9   24    5     -1.30      0.00
    9   24    7      4.34      0.00
    9   24    9     -1.28      0.00
   10   24    0     -3.49      0.00
   10   24    2     -1.60      0.00
   10   24    4     -0.13      0.00
   10   24    6     13.12      0.00
   10   24    8      5.08      0.00
   10   24   10      1.48      0.00
   11   24    1      1.77      0.00
   11   24    3     -0.35      0.00
   11   24    5     -0.27      0.00
   11   24    7      2.91      0.00
   11   24    9      6.56      0.00
   12   24    0     -0.65      0.00
   12   24    2      0.83      0.00
   12   24    4      2.10      0.00
   12   24    6      3.74      0.00
   12   24    8      0.61      0.00
   12   24   10    -15.41      0.00
   13   24    1      0.06      0.00
   13   24    3     -0.39      0.00
   13   24    5      2.99      0.00
   13   24    7     -4.91      0.00
   13   24    9      1.32      0.00
   14   24    0     -1.22      0.00
   14   24    2      0.58      0.00
   14   24    4      3.95      0.00
   14   24    6     -0.46      0.00
   14   24    8     -5.80      0.00
   15   24    1      1.33      0.00
   15   24    3      0.46      0.00
   15   24    5     -6.05      0.00
   15   24    7      0.08      0.00
   15   24    9     -9.60      0.00
   16   24    0     -1.21      0.00
   16   24    2     -5.14      0.00
   16   24    4     -4.36      0.00
   16   24    6     -5.14      0.00
   16   24    8     -3.17      0.00
   17   24    1     -0.17      0.00
   17   24    3     -2.68      0.00
   17   24    5      5.98      0.00
   17   24    7      1.50      0.00
   18   24    0     -1.01      0.00
   18   24    2      2.04      0.00
   18   24    4     -2.20      0.00
   18   24    6     -1.18      0.00
   18   24    8      3.11      0.00
   19   24    1     -1.21      0.00
   19   24    3      4.76      0.00
   19   24    5     -2.16      0.00
   19   24    7      4.76      0.00
   20   24    0      5.43      0.00
   20   24    2     -1.14      0.00
   20   24    4      1.15      0.00
   20   24    6     -0.85      0.00
   21   24    1      0.41      0.00
   21   24    3     -4.88      0.00
   21   24    5      2.86      0.00
   21   24    7     -7.67      0.00
   22   24    0     -7.29      0.00
   22   24    2      9.43      0.00
   22   24    4     -2.28      0.00
   22   24    6      2.80      0.00
   23   24    1     -2.55      0.00
   23   24    3      1.39      0.00
   23   24    5     -3.92      0.00
   24   24    0      8.19      0.00
   24   24    4      7.66      0.00
    0   25    1      1.60      0.00
    0   25    3      9.06      0.00
    0   25    5     -1.16      0.00
    0   25    7     -3.71      0.00
    0   25    9      4.37      0.00
    0   25   11     -2.48      0.00
    1   25    2     -7.16      0.00
    1   25    4      6.76      0.00
    1   25    6      2.38      0.00
    1   25    8     -1.82      0.00
    1   25   10      2.70      0.00
    2   25    1      7.32      0.00
    2   25    3     -7.67      0.00
    2   25    5     -0.03      0.00
    2   25    7     -0.62      0.00
    2   25    9     -3.97      0.00
    2   25   11      3.69      0.00
    3   25    2      6.29      0.00
    3   25    4     -4.22      0.00
    3   25    6      2.01      0.00
    3   25    8     -0.02      0.00
    3   25   10      4.40      0.00
    4   25    1     -7.13      0.00
    4   25    3      6.28      0.00
    4   25    5      0.10      0.00
    4   25    7      1.55      0.00
    4   25    9      2.77      0.00
    4   25   11     -5.26      0.00
    5   25    2     -0.55      0.00
    5   25    4     -4.22      0.00
    5   25    6     -6.52      0.00
    5   25    8      1.51      0.00
    5   25   10    -10.00      0.00
    6   25    1     -5.53      0.00
    6   25    3     -0.12      0.00
    6   25    5      0.51      0.00
    6   25    7     -1.12      0.00
    6   25    9     -1.39      0.00
    7   25    2      4.04      0.00
    7   25    4      1.36      0.00
    7   25    6      2.48      0.00
    7   25    8      2.82      0.00
    7   25   10      4.32      0.00
    8   25    1      5.47      0.00
    8   25    3     -5.07      0.00
    8   25    5     -0.50      0.00
    8   25    7      8.28      0.00
    8   25    9      2.99      0.00
    9   25    2     -2.09      0.00
    9   25    4     -3.52      0.00
    9   25    6     -4.74      0.00
    9   25    8     -2.18      0.00
    9   25   10     -0.24      0.00
   10   25    1     -2.57      0.00
   10   25    3     -2.85      0.00
   10   25    5      0.91      0.00
   10   25    7     -3.53      0.00
   10   25    9     -6.88      0.00
   11   25    2     -1.31      0.00
   11   25    4      2.21      0.00
   11   25    6      7.45      0.00
   11   25    8     -1.02      0.00
   11   25   10     -6.04      0.00
   12   25    1      1.04      0.00
   12   25    3      6.44      0.00
   12   25    5      2.65      0.00
   12   25    7     -9.28      0.00
   12   25    9      4.90      0.00
   13   25    2     -0.22      0.00
   13   25    4     -1.06      0.00
   13   25    6     -5.66      0.00
   13   25    8      2.51      0.00
   14   25    1      0.81      0.00
   14   25    3      1.39      0.00
   14   25    5     -5.98      0.00
   14   25    7     10.85      0.00
   14   25    9      2.14      0.00
   15   25    2      3.94      0.00
   15   25    4      9.31      0.00
   15   25    6      3.86      0.00
   15   25    8     -4.74      0.00
   16   25    1      4.11      0.00
   16   25    3     -3.22      0.00
   16   25    5      5.39      0.00
   16   25    7     -9.32      0.00
   17   25    2     -2.11      0.00
   17   25    4     -4.45      0.00
   17   25    6      1.64      0.00
   17   25    8      1.80      0.00
   18   25    1     -6.94      0.00
   18   25    3      3.25      0.00
   18   25    5     -4.42      0.00
   18   25    7      4.41      0.00
   19   25    2     -0.73      0.00
   19   25    4     -1.31      0.00
   19   25    6     -4.14      0.00
   20   25    1      0.20      0.00
   20   25    3     -8.70      0.00
   20   25    5      1.54      0.00
   21   25    2     -2.34      0.00
   21   25    4     -5.16      0.00
   21   25    6      0.80      0.00
   22   25    1      2.22      0.00
   22   25    3      5.20      0.00
   22   25    5      0.42      0.00
   23   25    2      2.83      0.00
   23   25    4      4.23      0.00
   24   25    1      1.23      0.00
   24   25    3      0.57      0.00
   25   25    2     -0.25      0.00
    0   26    0     19.60      0.00
    0   26    2     -9.57      0.00
    0   26    4     -2.68      0.00
    0   26    6     -0.20      0.00
    0   26    8     -6.04      0.00
    0   26   10     -3.86      0.00
    1   26    1     -6.52      0.00
    1   26    3      1.91      0.00
    1   26    5     -0.36      0.00
    1   26    7      3.14      0.00
    1   26    9      7.24      0.00
    2   26    0    -10.64      0.00
    2   26    2      2.81      0.00
    2   26    4     -1.07      0.00
    2   26    6     -1.91      0.00
    2   26    8      2.05      0.00
    2   26   10     -0.08      0.00
    3   26    1      5.23      0.00
    3   26    3      0.70      0.00
    3   26    5     -2.24      0.00
    3   26    7     -3.04      0.00
    3   26    9    -13.34      0.00
    4   26    0      0.79      0.00
    4   26    2      3.30      0.00
    4   26    4      2.10      0.00
    4   26    6      1.26      0.00
    4   26    8      2.94      0.00
    4   26   10      0.41      0.00
    5   26    1      2.68      0.00
    5   26    3     -4.78      0.00
    5   26    5      5.31      0.00
    5   26    7     -0.02      0.00
    5   26    9      9.89      0.00
    6   26    0     -3.01      0.00
    6   26    2      1.38      0.00
    6   26    4     -0.92      0.00
    6   26    6      6.50      0.00
    6   26    8     -4.65      0.00
    6   26   10      3.78      0.00
    7   26    1     -1.20      0.00
    7   26    3     -1.16      0.00
    7   26    5     -1.57      0.00
    7   26    7     -3.78      0.00
    7   26    9     -2.20      0.00
    8   26    0      1.70      0.00
    8   26    2     -3.40      0.00
    8   26    4      4.28      0.00
    8   26    6    -10.80      0.00
    8   26    8      2.49      0.00
    8   26   10     -2.88      0.00
    9   26    1      1.32      0.00
    9   26    3      4.45      0.00
    9   26    5     -3.63      0.00
    9   26    7      3.16      0.00
    9   26    9     -4.01      0.00
   10   26    0      5.78      0.00
   10   26    2     -0.61      0.00
   10   26    4     -4.79      0.00
   10   26    6      3.66      0.00
   10   26    8     -0.24      0.00
   11   26    1     -3.40      0.00
   11   26    3      1.59      0.00
   11   26    5      4.65      0.00
   11   26    7      3.35      0.00
   11   26    9      1.78      0.00
   12   26    0     -1.07      0.00
   12   26    2      4.63      0.00
   12   26    4      1.95      0.00
   12   26    6      2.52      0.00
   12   26    8      4.49      0.00
   13   26    1      2.60      0.00
   13   26    3     -4.95      0.00
   13   26    5     -2.94      0.00
   13   26    7     -0.44      0.00
   13   26    9      1.31      0.00
   14   26    0     -7.61      0.00
   14   26    2     -4.57      0.00
   14   26    4      3.22      0.00
   14   26    6      0.93      0.00
   14   26    8     -2.56      0.00
   15   26    1      3.17      0.00
   15   26    3      5.29      0.00
   15   26    5     -0.22      0.00
   15   26    7     -5.77      0.00
   16   26    0     -1.42      0.00
   16   26    2     -1.66      0.00
   16   26    4     -8.25      0.00
   16   26    6     -1.21      0.00
   16   26    8     -4.85      0.00
   17   26    1     -6.03      0.00
   17   26    3     -4.13      0.00
   17   26    5      2.99      0.00
   17   26    7      3.69      0.00
   18   26    0      8.77      0.00
   18   26    2      0.92      0.00
   18   26    4      5.58      0.00
   18   26    6     -1.82      0.00
   19   26    1     -0.60      0.00
   19   26    3      1.04      0.00
   19   26    5     -7.63      0.00
   20   26    0      2.49      0.00
   20   26    2      2.52      0.00
   20   26    4      3.15      0.00
   20   26    6      0.11      0.00
   21   26    1      2.96      0.00
   21   26    3     -5.30      0.00
   21   26    5      9.49      0.00
   22   26    0    -11.90      0.00
   22   26    2      7.56      0.00
   22   26    4     -6.03      0.00
   23   26    1      1.92      0.00
   23   26    3      8.33      0.00
   24   26    0      8.07      0.00
   24   26    2    -11.37      0.00
    0   27    1      4.10      0.00
    0   27    3      0.10      0.00
    0   27    5     -4.67      0.00
    0   27    7     -4.88      0.00
    0   27    9      1.58      0.00
    1   27    2     -0.20      0.00
    1   27    4      3.06      0.00
    1   27    6      6.15      0.00
    1   27    8     -2.08      0.00
    1   27   10      1.67      0.00
    2   27    1     -1.58      0.00
    2   27    3      2.66      0.00
    2   27    5     -0.63      0.00
    2   27    7      4.72      0.00
    2   27    9     -0.48      0.00
    3   27    2     -0.89      0.00
    3   27    4     -0.68      0.00
    3   27    6      0.09      0.00
    3   27    8     -0.94      0.00
    3   27   10      1.65      0.00
    4   27    1      5.37      0.00
    4   27    3     -1.33      0.00
    4   27    5      5.54      0.00
    4   27    7     -5.75      0.00
    4   27    9     -1.79      0.00
    5   27    2     -0.99      0.00
    5   27    4     -3.69      0.00
    5   27    6    -11.58      0.00
    5   27    8      4.80      0.00
    5   27   10     -7.78      0.00
    6   27    1     -7.76      0.00
    6   27    3     -1.36      0.00
    6   27    5      1.03      0.00
    6   27    7      3.49      0.00
    6   27    9      1.96      0.00
    7   27    2      3.28      0.00
    7   27    4      3.62      0.00
    7   27    6      1.47      0.00
    7   27    8      0.50      0.00
    8   27    1      0.43      0.00
    8   27    3     -2.76      0.00
    8   27    5     -7.12      0.00
    8   27    7      3.28      0.00
    8   27    9      2.62      0.00
    9   27    2     -1.08      0.00
    9   27    4     -4.06      0.00
    9   27    6      1.94      0.00
    9   27    8     -0.72      0.00
   10   27    1     -0.79      0.00
   10   27    3     -3.41      0.00
   10   27    5      3.06      0.00
   10   27    7     -3.52      0.00
   10   27    9     -6.18      0.00
   11   27    2      0.77      0.00
   11   27    4     -3.93      0.00
   11   27    6      4.54      0.00
   11   27    8     -3.40      0.00
   12   27    1     -0.19      0.00
   12   27    3      8.81      0.00
   12   27    5      1.98      0.00
   12   27    7     -1.31      0.00
   13   27    2     -1.96      0.00
   13   27    4      5.81      0.00
   13   27    6     -1.07      0.00
   13   27    8      3.20      0.00
   14   27    1      4.52      0.00
   14   27    3      1.69      0.00
   14   27    5     -5.83      0.00
   14   27    7      3.13      0.00
   15   27    2      1.90      0.00
   15   27    4      3.04      0.00
   15   27    6     -0.52      0.00
   16   27    1      4.42      0.00
   16   27    3     -1.51      0.00
   16   27    5     10.94      0.00
   16   27    7     -4.51      0.00
   17   27    2      0.81      0.00
   17   27    4     -3.19      0.00
   17   27    6     -2.89      0.00
   18   27    1    -11.02      0.00
   18   27    3      2.51      0.00
   18   27    5     -6.32      0.00
   19   27    2     -2.27      0.00
   19   27    4      2.26      0.00
   19   27    6      4.47      0.00
   20   27    1      1.52      0.00
   20   27    3    -15.37      0.00
   20   27    5     -5.66      0.00
   21   27    2     -1.91      0.00
   21   27    4     -2.24      0.00
   22   27    1      6.42      0.00
   22   27    3      7.28      0.00
   23   27    2      2.52      0.00
    0   28    0      0.06      0.00
    0   28    2      1.15      0.00
    0   28    4     -7.90      0.00
    0   28    6      3.92      0.00
    0   28    8     -6.14      0.00
    1   28    1     -4.75      0.00
    1   28    3      5.16      0.00
    1   28    5      3.72      0.00
    1   28    7      0.93      0.00
    1   28    9      6.55      0.00
    2   28    0      2.11      0.00
    2   28    2     -7.58      0.00
    2   28    4      0.29      0.00
    2   28    6     -1.22      0.00
    2   28    8      6.06      0.00
    3   28    1      2.12      0.00
    3   28    3     -4.38      0.00
    3   28    5     -5.53      0.00
    3   28    7     -2.04      0.00
    3   28    9    -10.41      0.00
    4   28    0      4.42      0.00
    4   28    2      9.80      0.00
    4   28    4      3.74      0.00
    4   28    6     -6.04      0.00
    4   28    8     -6.78      0.00
    5   28    1     -0.52      0.00
    5   28    3     -2.48      0.00
    5   28    5      2.61      0.00
    5   28    7      3.41      0.00
    5   28    9      3.59      0.00
    6   28    0     -5.55      0.00
    6   28    2     -1.69      0.00
    6   28    4     -1.96      0.00
    6   28    6      7.35      0.00
    6   28    8      5.88      0.00
    7   28    1      1.24      0.00
    7   28    3     -0.29      0.00
    7   28    5     -3.88      0.00
    7   28    7     -2.53      0.00
    7   28    9      1.47      0.00
    8   28    0     -4.81      0.00
    8   28    2      0.99      0.00
    8   28    4      8.59      0.00
    8   28    6     -1.26      0.00
    8   28    8     -3.74      0.00
    9   28    1      7.46      0.00
    9   28    3      2.28      0.00
    9   28    5     -0.14      0.00
    9   28    7     -2.62      0.00
   10   28    0      0.48      0.00
   10   28    2     -8.13      0.00
   10   28    4     -5.01      0.00
   10   28    6      0.31      0.00
   10   28    8     -2.32      0.00
   11   28    1      0.19      0.00
   11   28    3      2.51      0.00
   11   28    5      7.18      0.00
   11   28    7      4.68      0.00
   12   28    0      1.56      0.00
   12   28    2     11.22      0.00
   12   28    4     -5.25      0.00
   12   28    6     -5.11      0.00
   12   28    8      9.88      0.00
   13   28    1     -5.77      0.00
   13   28    3     -4.60      0.00
   13   28    5      0.55      0.00
   13   28    7      2.21      0.00
   14   28    0      4.36      0.00
   14   28    2     -6.51      0.00
   14   28    4      0.06      0.00
   14   28    6      5.40      0.00
   15   28    1     -3.27      0.00
   15   28    3      3.71      0.00
   15   28    5     -2.26      0.00
   15   28    7     -8.43      0.00
   16   28    0     -2.71      0.00
   16   28    2      4.41      0.00
   16   28    4      1.52      0.00
   16   28    6      0.46      0.00
   17   28    1     -0.92      0.00
   17   28    3     -5.53      0.00
   17   28    5     -7.81      0.00
   18   28    0      1.98      0.00
   18   28    2     -4.02      0.00
   18   28    4      5.40      0.00
   19   28    1      2.47      0.00
   19   28    3      1.99      0.00
   19   28    5      2.66      0.00
   20   28    0     -2.92      0.00
   20   28    2     -1.16      0.00
   20   28    4     -0.66      0.00
   21   28    1      5.38      0.00
   21   28    3      4.28      0.00
   22   28    0     -1.50      0.00
    0   29    1     -5.33      0.00
    0   29    3     11.43      0.00
    0   29    5    -11.74      0.00
    0   29    7     -2.05      0.00
    0   29    9      3.02      0.00
    1   29    2      3.57      0.00
    1   29    4      1.19      0.00
    1   29    6      4.72      0.00
    1   29    8     -4.04      0.00
    2   29    1     -0.20      0.00
    2   29    3     -4.40      0.00
    2   29    5      5.61      0.00
    2   29    7      9.45      0.00
    2   29    9      1.16      0.00
    3   29    2     -1.98      0.00
    3   29    4     -1.98      0.00
    3   29    6     -2.38      0.00
    3   29    8      0.45      0.00
    4   29    1      5.27      0.00
    4   29    3     -1.05      0.00
    4   29    5      2.23      0.00
    4   29    7     -8.76      0.00
    5   29    2     -3.28      0.00
    5   29    4      2.85      0.00
    5   29    6     -1.64      0.00
    5   29    8      4.79      0.00
    6   29    1     -5.13      0.00
    6   29    3     -1.30      0.00
    6   29    5     -1.74      0.00
    6   29    7     -2.36      0.00
    7   29    2      2.52      0.00
    7   29    4     -0.45      0.00
    7   29    6     -5.16      0.00
    7   29    8      0.74      0.00
    8   29    1      2.14      0.00
    8   29    3     -0.83      0.00
    8   29    5     -1.25      0.00
    8   29    7      0.81      0.00
    9   29    2      0.42      0.00
    9   29    4     -6.14      0.00
    9   29    6      2.06      0.00
    9   29    8      1.12      0.00
   10   29    1      2.09      0.00
   10   29    3     -0.56      0.00
   10   29    5      0.21      0.00
   10   29    7     -1.40      0.00
   11   29    2     -6.91      0.00
   11   29    4      0.92      0.00
   11   29    6      5.33      0.00
   12   29    1     -1.53      0.00
   12   29    3      3.57      0.00
   12   29    5     -0.06      0.00
   12   29    7      6.64      0.00
   13   29    2      6.04      0.00
   13   29    4      8.70      0.00
   13   29    6     -0.75      0.00
   14   29    1      0.12      0.00
   14   29    3     -0.28      0.00
   14   29    5     -0.28      0.00
   15   29    2      3.01      0.00
   15   29    4     -2.89      0.00
   15   29    6     -4.41      0.00
   16   29    1      5.07      0.00
   16   29    3     -0.87      0.00
   16   29    5      6.91      0.00
   17   29    2     -0.95      0.00
   17   29    4     -2.10      0.00
   18   29    1     -8.07      0.00
   18   29    3      5.61      0.00
   19   29    2     -7.10      0.00
   20   29    1     -0.05      0.00
    0   30    0    -14.99      0.00
    0   30    2     -1.66      0.00
    0   30    4     -5.41      0.00
    0   30    6      2.18      0.00
    0   30    8      4.28      0.00
    1   30    1      0.85      0.00
    1   30    3      5.13      0.00
    1   30    5      3.16      0.00
    1   30    7      0.65      0.00
    2   30    0      7.32      0.00
    2   30    2     -0.86      0.00
    2   30    4     -6.51      0.00
    2   30    6      9.26      0.00
    2   30    8     -3.34      0.00
    3   30    1     -3.07      0.00
    3   30    3     -9.82      0.00
    3   30    5      3.93      0.00
    3   30    7     -3.47      0.00
    4   30    0      8.02      0.00
    4   30    2      1.41      0.00
    4   30    4      9.52      0.00
    4   30    6    -16.35      0.00
    4   30    8     -5.90      0.00
    5   30    1     -0.36      0.00
    5   30    3      6.69      0.00
    5   30    5    -15.23      0.00
    5   30    7      3.28      0.00
    6   30    0    -11.13      0.00
    6   30    2      1.91      0.00
    6   30    4      2.77      0.00
    6   30    6      6.95      0.00
    6   30    8     12.48      0.00
    7   30    1     -0.01      0.00
    7   30    3     -4.67      0.00
    7   30    5      0.29      0.00
    7   30    7      1.42      0.00
    8   30    0      0.86      0.00
    8   30    2     -1.73      0.00
    8   30    4      1.58      0.00
    8   30    6     -2.61      0.00
    9   30    1      6.74      0.00
    9   30    3      3.23      0.00
    9   30    5     14.66      0.00
    9   30    7     -5.15      0.00
   10   30    0     -0.38      0.00
   10   30    2     -0.28      0.00
   10   30    4     -2.83      0.00
   10   30    6     -2.70      0.00
   11   30    1      2.59      0.00
   11   30    3      1.13      0.00
   11   30    5     -4.94      0.00
   11   30    7      6.30      0.00
   12   30    0      0.65      0.00
   12   30    2     -1.90      0.00
   12   30    4     -6.27      0.00
   12   30    6      5.73      0.00
   13   30    1     -6.38      0.00
   13   30    3      1.43      0.00
   13   30    5      2.78      0.00
   14   30    0      9.68      0.00
   14   30    2      3.60      0.00
   14   30    4      2.18      0.00
   15   30    1     -7.61      0.00
   15   30    3     -5.79      0.00
   15   30    5     -7.51      0.00
   16   30    0     -2.91      0.00
   16   30    2      2.73      0.00
   16   30    4      2.72      0.00
   17   30    1      5.82      0.00
   17   30    3     -0.57      0.00
   18   30    0     -9.46      0.00
   18   30    2     -5.74      0.00
   19   30    1      0.63      0.00
    0   31    1      0.11      0.00
    0   31    3      7.77      0.00
    0   31    5     -4.41      0.00
    0   31    7     -2.31      0.00
    1   31    2      0.79      0.00
    1   31    4      5.27      0.00
    1   31    6      1.22      0.00
    2   31    1     -4.61      0.00
    2   31    3     -4.81      0.00
    2   31    5      5.30      0.00
    2   31    7      4.98      0.00
    3   31    2      0.58      0.00
    3   31    4     -7.09      0.00
    3   31    6     -1.05      0.00
    4   31    1      2.37      0.00
    4   31    3     -0.02      0.00
    4   31    5      2.54      0.00
    4   31    7     -1.61      0.00
    5   31    2     -3.16      0.00
    5   31    4     -2.17      0.00
    5   31    6      3.00      0.00
    6   31    1     -0.59      0.00
    6   31    3      4.65      0.00
    6   31    5     -8.31      0.00
    6   31    7     -6.28      0.00
    7   31    2      3.42      0.00
    7   31    4      5.45      0.00
    7   31    6     -3.13      0.00
    8   31    1      7.72      0.00
    8   31    3     -7.24      0.00
    8   31    5     -4.43      0.00
    9   31    2      0.48      0.00
    9   31    4     -2.19      0.00
    9   31    6     -4.83      0.00
   10   31    1      0.47      0.00
   10   31    3      2.60      0.00
   10   31    5      5.68      0.00
   11   31    2     -8.88      0.00
   11   31    4      2.03      0.00
   11   31    6      6.04      0.00
   12   31    1     -9.82      0.00
   12   31    3     -0.09      0.00
   12   31    5      3.29      0.00
   13   31    2      7.93      0.00
   13   31    4      1.70      0.00
   14   31    1      2.97      0.00
   14   31    3      3.42      0.00
   15   31    2      2.87      0.00
   15   31    4     -3.37      0.00
   16   31    1      3.18      0.00
   16   31    3     -4.08      0.00
   17   31    2     -4.10      0.00
    0   32    0     -4.72      0.00
    0   32    2      0.48      0.00
    0   32    4      1.63      0.00
    0   32    6      0.55      0.00
    1   32    1     -0.34      0.00
    1   32    3     -2.01      0.00
    1   32    5      0.19      0.00
    2   32    0     -3.01      0.00
    2   32    2      4.64      0.00
    2   32    4     -7.51      0.00
    2   32    6     13.53      0.00
    3   32    1      0.20      0.00
    3   32    3     -2.25      0.00
    3   32    5      6.37      0.00
    4   32    0      9.07      0.00
    4   32    2     -6.31      0.00
    4   32    4      7.89      0.00
    4   32    6    -17.48      0.00
    5   32    1     -2.63      0.00
    5   32    3      7.45      0.00
    5   32    5    -12.17      0.00
    6   32    0    -10.52      0.00
    6   32    2      4.22      0.00
    6   32    4     -0.64      0.00
    6   32    6      0.32      0.00
    7   32    1      4.64      0.00
    7   32    3     -6.31      0.00
    7   32    5      1.01      0.00
    8   32    0      5.20      0.00
    8   32    2     -9.65      0.00
    8   32    4     -0.33      0.00
    8   32    6      1.64      0.00
    9   32    1      1.92      0.00
    9   32    3      5.77      0.00
    9   32    5     10.84      0.00
   10   32    0      9.76      0.00
   10   32    2      9.47      0.00
   10   32    4      0.89      0.00
   11   32    1     -6.37      0.00
   11   32    3      0.50      0.00
   11   32    5     -7.61      0.00
   12   32    0     -7.87      0.00
   12   32    2     -6.00      0.00
   12   32    4     -0.40      0.00
   13   32    1      3.77      0.00
   13   32    3     -1.59      0.00
   14   32    0     -1.30      0.00
   14   32    2      7.66      0.00
   15   32    1     -1.88      0.00
   16   32    0      4.12      0.00
    0   33    1     13.14      0.00
    0   33    3    -10.80      0.00
    0   33    5      2.20      0.00
    1   33    2     -3.43      0.00
    1   33    4      7.85      0.00
    2   33    1     -8.03      0.00
    2   33    3      8.43      0.00
    2   33    5      5.59      0.00
    3   33    2     -4.24      0.00
    3   33    4     -9.79      0.00
    4   33    1     -3.95      0.00
    4   33    3     -4.51      0.00
    4   33    5      2.39      0.00
    5   33    2     10.94      0.00
    5   33    4     -7.73      0.00
    6   33    1      8.90      0.00
    6   33    3      2.51      0.00
    6   33    5    -15.16      0.00
    7   33    2     -0.82      0.00
    7   33    4     16.45      0.00
    8   33    1     -1.85      0.00
    8   33    3     -4.51      0.00
    9   33    2     -0.43      0.00
    9   33    4     -5.71      0.00
   10   33    1      3.21      0.00
   10   33    3      5.10      0.00
   11   33    2     -1.14      0.00
   12   33    1    -14.18      0.00
   12   33    3     -0.08      0.00
   13   33    2     -4.40      0.00
    0   34    0     13.11      0.00
    0   34    2      5.16      0.00
    0   34    4     -3.43      0.00
    1   34    1     -7.09      0.00
    1   34    3     -1.56      0.00
    2   34    0    -11.26      0.00
    2   34    2      2.75      0.00
    2   34    4      0.76      0.00
    3   34    1      5.32      0.00
    3   34    3      0.16      0.00
    4   34    0      6.42      0.00
    4   34    2     -3.68      0.00
    4   34    4      5.04      0.00
    5   34    1      0.04      0.00
    5   34    3      3.11      0.00
    6   34    0     -8.15      0.00
    6   34    2     -3.15      0.00
    6   34    4     -7.61      0.00
    7   34    1      6.73      0.00
    7   34    3     -4.50      0.00
    8   34    0      8.05      0.00
    8   34    2     -5.91      0.00
    9   34    1      0.62      0.00
   10   34    0      5.29      0.00
   10   34    2      8.17      0.00
    0   35    1      7.13      0.00
    0   35    3     -3.93      0.00
    1   35    2     -3.23      0.00
    2   35    1     -2.12      0.00
    2   35    3      0.77      0.00
    3   35    2     -3.43      0.00
    4   35    1     -6.98      0.00
    5   35    2     10.65      0.00
    6   35    1     11.56      0.00
    0    2    0    410.71      0.00
    2    2    0   -144.46      0.00
    0    4    0   -171.57      0.00
    0   36    0      0.61      0.00
    0    1    1    -97.74      0.00
    1    2    1     43.60      0.00
    0    3    1   -115.73      0.00
   18   31    1     -1.70      0.00
   14   33    1     12.76      0.00
   11   34    1    -10.44      0.00
    8   35    1     -7.48      0.00
   22   28    2      0.84      0.00
    7   35    2     -4.40      0.00
   20   29    3     -8.69      0.00
   15   32    3     -6.38      0.00
    9   34    3      4.66      0.00
    4   35    3     -1.14      0.00
   19   29    4     -1.65      0.00
   11   33    4     -3.34      0.00
   18   29    5     -5.49      0.00
   14   31    5      1.60      0.00
    8   33    5     -4.09      0.00
    1   34    5     -0.32      0.00
    3   34    5      4.36      0.00
   18   28    6     -1.42      0.00
   14   30    6      1.42      0.00
    1   33    6     -0.47      0.00
    3   33    6      0.08      0.00
   20   25    7      4.10      0.00
   19   26    7      3.24      0.00
   14   29    7     -1.98      0.00
    8   31    7      3.00      0.00
    1   32    7     -0.09      0.00
    3   32    7     -3.71      0.00
   15   27    8     -3.67      0.00
   17   24    9      5.13      0.00
    9   28    9     -0.15      0.00
    4   29    9     -4.69      0.00
   13   22   11      4.05      0.00
    9   24   11      1.19      0.00
   13   19   12      1.90      0.00
    1   23   12      2.67      0.00
    3   23   12     -1.97      0.00
    9   18   13     -2.00      0.00
    6   19   13      0.96      0.00
    1   20   13      3.10      0.00
    9   13   14      2.29      0.00
    8   14   14     -5.22      0.00
    5   15   14     -3.92      0.00
    0   16   14      0.55      0.00
    2   16   14      1.60      0.00
    7    8   15      2.65      0.00
    4    9   15     12.96      0.00
    1   10   15      8.23      0.00
    3   10   15     -5.70      0.00
    0    0    0      0.00      0.00
# SQUEEZE RESULTS (Version =  91117)
# Note: Data are Listed for all Voids in the P1 Unit Cell
# i.e. Centre of Gravity, Solvent Accessible Volume,
# Recovered number of Electrons in the Void and
# Details about the Squeezed Material
loop_
  _platon_squeeze_void_nr
  _platon_squeeze_void_average_x
  _platon_squeeze_void_average_y
  _platon_squeeze_void_average_z
  _platon_squeeze_void_volume
  _platon_squeeze_void_count_electrons
  _platon_squeeze_void_content
   1  0.250  0.000  0.391      1082       241 ' '
   2  0.250  0.500  0.386      1082       241 ' '
   3  0.750  0.000  0.097      1082       241 ' '
   4  0.750  0.500  0.090      1082       241 ' '
# Missing Reflections Below sin(th)/lambda = 0.25
loop_
  _platon_missing_refln_index_h
  _platon_missing_refln_index_k
  _platon_missing_refln_index_l
  _platon_missing_refln_theta
    0    2    0     1.478
    2    2    0     2.090
    0    4    0     2.956
    0    1    1     1.849
    1    2    1     2.368
    0    3    1     2.791
_platon_squeeze_void_probe_radius                  1.20
_platon_squeeze_details
)
TITL 4 in Fddd New: I41/amd
CELL   27.5600   27.5600   12.0120     90.00     90.00     90.00
SPGR I41/amd
# Solvent Accessible Volume =      4372
# Electrons Found in S.A.V. =       948
# Note: Atoms in Void are Labelled as Cxxx and Qxxx for all Others
Q101 0.036 0.014 0.188 !       1.57 eA-3
Q102 0.297 0.714 0.124 !       1.50 eA-3
Q103 1.000 0.172 0.021 !       1.40 eA-3
Q104 0.034 0.861 0.253 !       1.36 eA-3
C105 0.168 0.500 0.000 !       1.34 eA-3
Q106 0.703 0.282 0.233 !       1.32 eA-3
Q107 0.476 0.250 0.312 !       1.32 eA-3
C108 0.189 0.020 0.074 !       1.31 eA-3
Q109 0.129 0.750 0.344 !       1.27 eA-3
Q110 0.500 0.247 0.250 !       1.26 eA-3
C111 0.866 0.390 0.318 !       1.25 eA-3
Q112 0.112 0.720 0.081 !       1.24 eA-3
C113 0.883 0.385 0.268 !       1.23 eA-3
Q114 0.404 0.350 0.204 !       1.18 eA-3
Q115 0.220 0.279 0.168 !       1.17 eA-3
Q116 0.009 0.859 0.009 !       1.14 eA-3
Q117 0.562 0.666 0.230 !       1.09 eA-3
Q118 0.405 0.437 0.117 !       1.09 eA-3
C119 0.862 0.362 0.341 !       1.06 eA-3
C120 0.903 0.870 0.642 !       1.05 eA-3
C121 0.403 0.370 0.142 !       1.05 eA-3
C122 0.396 0.657 0.857 !       1.04 eA-3
C123 0.250 0.625 0.237 !       1.04 eA-3
C124 0.248 0.951 0.153 !       1.01 eA-3
Q125 0.472 0.236 0.361 !       1.00 eA-3
C126 0.743 0.617 0.340 !       1.00 eA-3
Q127 0.869 0.350 0.284 !       1.00 eA-3
Q128 0.037 0.079 0.206 !       0.99 eA-3
C129 0.138 0.053 0.175 !       0.98 eA-3
Q130 0.275 0.221 0.012 !       0.96 eA-3
C131 0.315 0.048 0.320 !       0.95 eA-3
Q132 0.068 0.890 0.160 !       0.95 eA-3
C133 0.699 0.610 0.161 !       0.94 eA-3
C134 0.137 0.085 0.204 !       0.94 eA-3
Q135 0.888 0.688 0.139 !       0.93 eA-3
C136 0.169 0.999 0.122 !       0.93 eA-3
Q137 0.594 0.088 0.038 !       0.92 eA-3
C138 0.169 0.911 0.481 !       0.90 eA-3
C139 0.640 0.477 0.351 !       0.90 eA-3
C140 0.290 0.500 0.181 !       0.89 eA-3
Q141 0.500 0.816 0.034 !       0.89 eA-3
Q142 0.914 0.494 0.105 !       0.89 eA-3
Q143 0.939 0.899 0.231 !       0.89 eA-3
Q144 0.710 0.351 0.179 !       0.88 eA-3
C145 0.744 0.400 0.411 !       0.88 eA-3
Q146 0.570 0.749 0.141 !       0.88 eA-3
Q147 0.500 0.800-0.009 !       0.87 eA-3
C148 0.719 0.938 0.262 !       0.87 eA-3
C149 0.790 0.954 0.015 !       0.86 eA-3
C150 0.125 0.049 0.250 !       0.86 eA-3
Q151 0.282 0.661 0.179 !       0.86 eA-3
Q152 0.399 0.072 0.307 !       0.86 eA-3
C153 0.359 0.398 0.021 !       0.85 eA-3
Q154 0.914 0.399 0.140 !       0.85 eA-3
Q155 0.292 0.844 0.107 !       0.85 eA-3
Q156 0.947 0.218 0.130 !       0.84 eA-3
C157 0.368 0.500 0.000 !       0.84 eA-3
Q158 0.268 0.690 0.248 !       0.84 eA-3
C159 0.696 0.108 0.318 !       0.84 eA-3
C160 0.876 0.056 0.031 !       0.83 eA-3
Q161 0.375 0.354 0.950 !       0.81 eA-3
Q162 0.875 0.854 0.450 !       0.81 eA-3
Q163 0.900 0.622 0.797 !       0.81 eA-3
C164 0.800 0.953 0.389 !       0.81 eA-3
C165 0.312 0.454 0.159 !       0.80 eA-3
Q166 0.972 0.453 0.298 !       0.80 eA-3
Q167 0.887 0.155 0.017 !       0.80 eA-3
Q168 1.000 0.573 0.156 !       0.79 eA-3
Q169 0.518 0.312 0.187 !       0.79 eA-3
C170 0.633 0.089 0.221 !       0.78 eA-3
C171 0.155 0.007 0.454 !       0.78 eA-3
Q172 0.022 0.415 0.130 !       0.78 eA-3
Q173 0.771 0.751 0.188 !       0.77 eA-3
C174 0.632 0.494 0.075 !       0.77 eA-3
C175 0.128 0.426 0.420 !       0.77 eA-3
Q176 0.500 0.674 0.149 !       0.76 eA-3
Q177 0.521 0.696 0.037 !       0.76 eA-3
C178 0.798 0.384 0.241 !       0.76 eA-3
Q179 0.353 0.345 0.050 !       0.76 eA-3
Q180 0.853 0.845 0.550 !       0.76 eA-3
C181 0.203 0.862 0.358 !       0.76 eA-3
Q182 0.353 0.843 0.956 !       0.76 eA-3
Q183 0.088 0.450 0.238 !       0.75 eA-3
C184 0.093 0.958 0.017 !       0.75 eA-3
Q185 0.070 0.826 0.159 !       0.74 eA-3
Q186 0.959 0.985 0.478 !       0.74 eA-3
Q187 0.977 0.249 0.000 !       0.72 eA-3
Q188 0.561 0.821 0.169 !       0.71 eA-3
Q189 0.425 0.531 0.069 !       0.71 eA-3
Q190 0.757 0.297 0.035 !       0.71 eA-3
Q191 0.065 0.226 0.372 !       0.71 eA-3
C192 0.601 0.453 0.197 !       0.71 eA-3
Q193 0.110 0.647 0.099 !       0.71 eA-3
Q194 0.132 0.553 0.051 !       0.69 eA-3
Q195 0.960 0.749 0.234 !       0.69 eA-3
C196 0.111 0.082 0.246 !       0.69 eA-3
Q197 0.760 0.838 0.186 !       0.69 eA-3
C198 0.835 0.006 0.227 !       0.68 eA-3
C199 0.224 0.046 0.203 !       0.68 eA-3
)
;
_shelx_fab_checksum              15228
_olex2_submission_special_instructions 'No special instructions were received'
loop_
_space_group_symop_operation_xyz
'x, y, z'
'-y+1/4, x+3/4, z+1/4'
'-x+1/2, -y, z+1/2'
'y+1/4, -x+1/4, z+3/4'
'x, -y, -z'
'y+1/4, x+3/4, -z+1/4'
'-x+1/2, y, -z+1/2'
'-y+1/4, -x+1/4, -z+3/4'
'x+1/2, y+1/2, z+1/2'
'-y+3/4, x+5/4, z+3/4'
'-x+1, -y+1/2, z+1'
'y+3/4, -x+3/4, z+5/4'
'x+1/2, -y+1/2, -z+1/2'
'y+3/4, x+5/4, -z+3/4'
'-x+1, y+1/2, -z+1'
'-y+3/4, -x+3/4, -z+5/4'
'-x, -y, -z'
'y-1/4, -x-3/4, -z-1/4'
'x-1/2, y, -z-1/2'
'-y-1/4, x-1/4, -z-3/4'
'-x, y, z'
'-y-1/4, -x-3/4, z-1/4'
'x-1/2, -y, z-1/2'
'y-1/4, x-1/4, z-3/4'
'-x+1/2, -y+1/2, -z+1/2'
'y+1/4, -x-1/4, -z+1/4'
'x, y+1/2, -z'
'-y+1/4, x+1/4, -z-1/4'
'-x+1/2, y+1/2, z+1/2'
'-y+1/4, -x-1/4, z+1/4'
'x, -y+1/2, z'
'y+1/4, x+1/4, z-1/4'
loop_
_atom_site_label
_atom_site_type_symbol
_atom_site_fract_x
_atom_site_fract_y
_atom_site_fract_z
_atom_site_U_iso_or_equiv
_atom_site_adp_type
_atom_site_occupancy
_atom_site_site_symmetry_order
_atom_site_calc_flag
_atom_site_refinement_flags_posn
_atom_site_refinement_flags_adp
_atom_site_refinement_flags_occupancy
Mo1 Mo 0.05398(5) 0.250000 0.16708(9) 0.0461(4) Uani 1 2 d S T P
Mo2 Mo 0.11349(3) 0.18819(3) -0.04264(7) 0.0517(3) Uani 1 1 d . . .
Zn1 Zn 0.000000 0.14697(6) 0.05240(13) 0.0540(5) Uani 1 2 d S T P
P1 P 0.000000 0.250000 -0.125000 0.0272(11) Uani 1 8 d S T P
O1 O 0.0667(4) 0.250000 0.3028(8) 0.061(3) Uani 1 2 d S T P
O2 O 0.0955(2) 0.2004(2) 0.1126(5) 0.0471(15) Uani 1 1 d . . .
O3 O 0.0574(3) 0.1452(2) -0.0457(6) 0.0526(16) Uani 1 1 d . . .
O4 O 0.0454(3) 0.250000 -0.0499(7) 0.0389(18) Uani 1 2 d S T P
O5 O 0.000000 0.2960(3) 0.1492(7) 0.0396(19) Uani 1 2 d S T P
O6 O 0.1608(3) 0.1514(3) -0.0257(7) 0.074(2) Uani 1 1 d . . .
O9 O 0.1453(3) 0.250000 -0.0478(7) 0.044(2) Uani 1 2 d S T P
N1 N 0.000000 0.0885(6) 0.1457(13) 0.089(3) Uani 1 2 d S TU P
N2 N 0.000000 0.0385(6) 0.2830(14) 0.090(3) Uani 1 2 d S TU P
C1 C 0.000000 0.0817(7) 0.2506(17) 0.088(3) Uani 1 2 d S TU P
H1 H 0.000000 0.107451 0.300613 0.105 Uiso 1 2 calc RS T P
C2 C 0.000000 0.0187(8) 0.3959(16) 0.087(3) Uani 1 2 d S TU P
C3 C 0.000000 -0.0290(8) 0.4056(17) 0.091(3) Uani 1 2 d S TU P
H3 H 0.000000 -0.048906 0.343097 0.091 Uiso 1 2 calc RS T P
C4 C 0.000000 0.0486(8) 0.4859(17) 0.090(3) Uani 1 2 d S TU P
H4 H 0.000000 0.082108 0.475889 0.090 Uiso 1 2 calc RS T P
C5 C 0.000000 0.0117(8) 0.1896(17) 0.095(3) Uani 1 2 d S TU P
H5 H 0.000000 -0.022029 0.185521 0.114 Uiso 1 2 calc RS T P
C7 C 0.000000 0.0437(8) 0.1004(18) 0.095(3) Uani 1 2 d S TU P
H7 H 0.000000 0.035862 0.025069 0.114 Uiso 1 2 calc RS T P
loop_
_atom_site_aniso_label
_atom_site_aniso_U_11
_atom_site_aniso_U_22
_atom_site_aniso_U_33
_atom_site_aniso_U_23
_atom_site_aniso_U_13
_atom_site_aniso_U_12
Mo1 0.0559(7) 0.0529(7) 0.0296(6) 0.000 -0.0026(5) 0.000
Mo2 0.0434(5) 0.0641(6) 0.0478(5) 0.0076(4) 0.0044(4) 0.0139(4)
Zn1 0.0711(11) 0.0496(9) 0.0412(8) 0.0167(7) 0.000 0.000
P1 0.0287(16) 0.0287(16) 0.024(2) 0.000 0.000 0.000
O1 0.071(7) 0.075(7) 0.038(5) 0.000 0.000(5) 0.000
O2 0.052(4) 0.056(4) 0.033(3) 0.003(3) -0.006(3) 0.011(3)
O3 0.066(4) 0.041(3) 0.051(4) 0.009(3) -0.008(3) 0.002(3)
O4 0.031(4) 0.049(5) 0.037(4) 0.000 0.000(3) 0.000
O5 0.035(4) 0.049(5) 0.035(4) -0.007(4) 0.000 0.000
O6 0.060(5) 0.088(6) 0.074(5) 0.007(4) -0.003(4) 0.032(4)
O9 0.025(4) 0.064(6) 0.044(5) 0.000 -0.003(3) 0.000
N1 0.117(5) 0.077(5) 0.071(4) 0.011(4) 0.000 0.000
N2 0.118(5) 0.078(4) 0.074(4) 0.008(4) 0.000 0.000
C1 0.118(5) 0.076(5) 0.070(4) 0.009(4) 0.000 0.000
C2 0.118(5) 0.075(5) 0.068(4) 0.007(4) 0.000 0.000
C3 0.119(5) 0.081(5) 0.073(5) 0.008(4) 0.000 0.000
C4 0.119(5) 0.080(5) 0.072(5) 0.011(4) 0.000 0.000
C5 0.121(5) 0.085(4) 0.078(4) 0.008(4) 0.000 0.000
C7 0.122(5) 0.085(5) 0.079(5) 0.006(4) 0.000 0.000
loop_
_atom_type_symbol
_atom_type_description
_atom_type_scat_dispersion_real
_atom_type_scat_dispersion_imag
_atom_type_scat_source
C C 0.0033 0.0016 'International Tables Vol C Tables 4.2.6.8 and 6.1.1.4'
H H 0.0000 0.0000 'International Tables Vol C Tables 4.2.6.8 and 6.1.1.4'
Mo Mo -1.6832 0.6857 'International Tables Vol C Tables 4.2.6.8 and 6.1.1.4'
N N 0.0061 0.0033 'International Tables Vol C Tables 4.2.6.8 and 6.1.1.4'
O O 0.0106 0.0060 'International Tables Vol C Tables 4.2.6.8 and 6.1.1.4'
P P 0.1023 0.0942 'International Tables Vol C Tables 4.2.6.8 and 6.1.1.4'
Zn Zn 0.2839 1.4301 'International Tables Vol C Tables 4.2.6.8 and 6.1.1.4'
loop_
_geom_angle_atom_site_label_1
_geom_angle_atom_site_label_2
_geom_angle_atom_site_label_3
_geom_angle
_geom_angle_site_symmetry_1
_geom_angle_site_symmetry_3
O1 Mo1 Mo1 102.2(4) . 11_454
O1 Mo1 O2 102.1(3) . .
O1 Mo1 O2 102.1(3) . 31
O1 Mo1 O5 105.4(4) . .
O1 Mo1 O5 105.4(4) . 11_454
O2 Mo1 Mo1 127.0(2) 31 11_454
O2 Mo1 Mo1 127.0(2) . 11_454
O2 Mo1 O2 92.1(4) . 31
O2 Mo1 O5 151.9(3) . .
O2 Mo1 O5 87.3(3) 31 .
O2 Mo1 O5 151.9(3) 31 11_454
O2 Mo1 O5 87.3(3) . 11_454
O5 Mo1 Mo1 40.85(19) . 11_454
O5 Mo1 Mo1 40.86(19) 11_454 11_454
O5 Mo1 O5 80.3(4) . 11_454
O2 Mo2 Mo2 128.7(2) . 8_554
O2 Mo2 O3 154.4(3) . 8_554
O3 Mo2 Mo2 43.9(2) . 8_554
O3 Mo2 Mo2 43.6(2) 8_554 8_554
O3 Mo2 O2 85.5(3) . .
O3 Mo2 O3 85.5(3) . 8_554
O6 Mo2 Mo2 100.0(3) . 8_554
O6 Mo2 O2 100.8(3) . .
O6 Mo2 O3 104.7(3) . 8_554
O6 Mo2 O3 104.7(4) . .
O6 Mo2 O9 100.7(4) . .
O9 Mo2 Mo2 131.0(2) . 8_554
O9 Mo2 O2 89.7(3) . .
O9 Mo2 O3 154.6(3) . .
O9 Mo2 O3 88.2(3) . 8_554
O3 Zn1 O3 106.6(4) . 21
O5 Zn1 O3 112.0(2) 11_454 21
O5 Zn1 O3 112.0(2) 11_454 .
O5 Zn1 N1 108.7(6) 11_454 .
N1 Zn1 O3 108.7(3) . 21
N1 Zn1 O3 108.7(3) . .
O4 P1 O4 110.0(3) 28 11_454
O4 P1 O4 110.0(3) . 18_565
O4 P1 O4 108.4(6) 18_565 28
O4 P1 O4 110.0(3) 18_565 11_454
O4 P1 O4 110.0(3) . 28
O4 P1 O4 108.4(6) . 11_454
Mo1 O2 Mo2 127.2(3) . .
Mo2 O3 Mo2 92.5(3) . 8_554
Mo2 O3 Zn1 127.6(4) . .
Mo2 O3 Zn1 130.1(4) 8_554 .
Mo1 O5 Mo1 98.3(4) . 11_454
Zn1 O5 Mo1 125.7(2) 11_454 11_454
Zn1 O5 Mo1 125.7(2) 11_454 .
Mo2 O9 Mo2 125.4(4) . 31
C1 N1 Zn1 133.3(15) . .
C1 N1 C7 105.2(17) . .
C7 N1 Zn1 121.4(13) . .
C1 N2 C2 130.1(19) . .
C1 N2 C5 105.3(18) . .
C5 N2 C2 124.6(18) . .
N1 C1 H1 121.7 . .
N2 C1 N1 117(2) . .
N2 C1 H1 121.7 . .
C3 C2 N2 117.0(19) . .
C3 C2 C4 122.4(19) . .
C4 C2 N2 120.6(19) . .
C2 C3 H3 121.2 . .
C2 C3 C4 118(2) . 17_556
C4 C3 H3 121.2 17_556 .
C2 C4 C3 120(2) . 17_556
C2 C4 H4 120.0 . .
C3 C4 H4 120.0 17_556 .
N2 C5 H5 126.4 . .
N2 C5 C7 107(2) . .
C7 C5 H5 126.4 . .
N1 C7 C5 105.7(19) . .
N1 C7 H7 127.1 . .
C5 C7 H7 127.1 . .
loop_
_geom_bond_atom_site_label_1
_geom_bond_atom_site_label_2
_geom_bond_distance
_geom_bond_site_symmetry_2
Mo1 Mo1 2.975(3) 11_454
Mo1 O1 1.667(10) .
Mo1 O2 1.899(6) 31
Mo1 O2 1.899(6) .
Mo1 O5 1.967(6) .
Mo1 O5 1.967(6) 11_454
Mo2 Mo2 2.8234(19) 8_554
Mo2 O2 1.959(6) .
Mo2 O3 1.948(7) .
Mo2 O3 1.960(7) 8_554
Mo2 O6 1.664(7) .
Mo2 O9 1.917(4) .
Zn1 O3 1.974(7) .
Zn1 O3 1.974(7) 21
Zn1 O5 1.955(9) 11_454
Zn1 N1 1.962(16) .
P1 O4 1.543(8) 28
P1 O4 1.543(8) .
P1 O4 1.543(8) 11_454
P1 O4 1.543(8) 18_565
N1 C1 1.28(2) .
N1 C7 1.35(3) .
N2 C1 1.25(2) .
N2 C2 1.46(2) .
N2 C5 1.34(2) .
C1 H1 0.9300 .
C2 C3 1.32(3) .
C2 C4 1.36(3) .
C3 H3 0.9300 .
C3 C4 1.41(3) 17_556
C4 H4 0.9300 .
C5 H5 0.9300 .
C5 C7 1.39(3) .
C7 H7 0.9300 .
loop_
_geom_torsion_atom_site_label_1
_geom_torsion_atom_site_label_2
_geom_torsion_atom_site_label_3
_geom_torsion_atom_site_label_4
_geom_torsion
_geom_torsion_site_symmetry_1
_geom_torsion_site_symmetry_4
Mo1 Mo1 O2 Mo2 80.0(5) 11_454 .
Zn1 N1 C1 N2 180.000(1) . .
Zn1 N1 C7 C5 180.000(1) . .
O1 Mo1 O2 Mo2 -164.4(5) . .
O2 Mo1 O2 Mo2 -61.5(5) 31 .
O5 Mo1 O2 Mo2 90.4(5) 11_454 .
O5 Mo1 O2 Mo2 26.8(9) . .
N2 C2 C3 C4 180.000(2) . 17_556
N2 C2 C4 C3 180.000(3) . 17_556
N2 C5 C7 N1 0.000(2) . .
C1 N1 C7 C5 0.000(2) . .
C1 N2 C2 C3 180.000(2) . .
C1 N2 C2 C4 0.000(3) . .
C1 N2 C5 C7 0.000(1) . .
C2 N2 C1 N1 180.000(2) . .
C2 N2 C5 C7 180.000(2) . .
C3 C2 C4 C3 0.000(4) . 17_556
C4 C2 C3 C4 0.000(3) . 17_556
C5 N2 C1 N1 0.000(2) . .
C5 N2 C2 C3 0.000(3) . .
C5 N2 C2 C4 180.000(3) . .
C7 N1 C1 N2 0.000(2) . .
