#------------------------------------------------------------------------------
#$Date: 2018-11-22 01:52:04 +0200 (Thu, 22 Nov 2018) $
#$Revision: 212093 $
#$URL: file:///home/coder/svn-repositories/cod/cif/7/23/18/7231849.cif $
#------------------------------------------------------------------------------
#
# This file is available in the Crystallography Open Database (COD),
# http://www.crystallography.net/
#
# All data on this site have been placed in the public domain by the
# contributors.
#
data_7231849
loop_
_publ_author_name
'wang, tao'
'Huang, Kun'
'Peng, Mengni'
'Li, Xianglin'
'Han, Defang'
'jing, linhai'
'Qin, Dabin'
_publ_section_title
;
 Metal-Organic Frameworks Based on Tetraphenylpyrazine Derived
 Tetracarboxylic Acid for Electrocatalytic Hydrogen Evolution Reaction and
 NACs Sensing
;
_journal_name_full               CrystEngComm
_journal_paper_doi               10.1039/C8CE01868E
_journal_year                    2018
_chemical_formula_moiety         '0.13(C256 H128 Cd8 N16 O64)'
_chemical_formula_sum            'C32 H16 Cd N2 O10'
_chemical_formula_weight         700.87
_space_group_crystal_system      orthorhombic
_space_group_IT_number           70
_space_group_name_Hall           '-F 2uv 2vw'
_space_group_name_H-M_alt        'F d d d'
_symmetry_space_group_name_Hall  '-F 2uv 2vw'
_symmetry_space_group_name_H-M   'F d d d :2'
_atom_sites_solution_hydrogens   geom
_audit_creation_date             2017-04-24
_audit_creation_method
;
Olex2 1.2-beta
(compiled 2016.11.30 svn.r3356 for OlexSys, GUI svn.r5269)
;
_audit_update_record
;
2018-05-29 deposited with the CCDC.
2018-11-21 downloaded from the CCDC.
;
_cell_angle_alpha                90
_cell_angle_beta                 90
_cell_angle_gamma                90
_cell_formula_units_Z            16
_cell_length_a                   12.850(4)
_cell_length_b                   18.906(6)
_cell_length_c                   61.98(3)
_cell_measurement_reflns_used    6527
_cell_measurement_temperature    293(2)
_cell_measurement_theta_max      27.54
_cell_measurement_theta_min      2.33
_cell_volume                     15058(10)
_computing_molecular_graphics    'Olex2 (Dolomanov et al., 2009)'
_computing_publication_material  'Olex2 (Dolomanov et al., 2009)'
_computing_structure_refinement  'ShelXL (Sheldrick, 2015)'
_diffrn_ambient_temperature      293.15
_diffrn_measured_fraction_theta_full 0.996
_diffrn_measured_fraction_theta_max 0.996
_diffrn_measurement_device_type  'Bruker APEX-II CCD'
_diffrn_radiation_type           MoK\a
_diffrn_radiation_wavelength     0.71073
_diffrn_reflns_av_R_equivalents  0.0472
_diffrn_reflns_av_unetI/netI     0.0293
_diffrn_reflns_Laue_measured_fraction_full 0.996
_diffrn_reflns_Laue_measured_fraction_max 0.996
_diffrn_reflns_limit_h_max       16
_diffrn_reflns_limit_h_min       -16
_diffrn_reflns_limit_k_max       23
_diffrn_reflns_limit_k_min       -24
_diffrn_reflns_limit_l_max       80
_diffrn_reflns_limit_l_min       -78
_diffrn_reflns_number            32514
_diffrn_reflns_point_group_measured_fraction_full 0.996
_diffrn_reflns_point_group_measured_fraction_max 0.996
_diffrn_reflns_theta_full        25.242
_diffrn_reflns_theta_max         27.348
_diffrn_reflns_theta_min         2.155
_exptl_absorpt_coefficient_mu    0.629
_exptl_absorpt_correction_T_max  0.3108
_exptl_absorpt_correction_T_min  0.2133
_exptl_absorpt_correction_type   multi-scan
_exptl_crystal_colour            colorless
_exptl_crystal_density_diffrn    1.237
_exptl_crystal_density_method    'not measured'
_exptl_crystal_description       block
_exptl_crystal_F_000             5600
_exptl_crystal_size_max          0.31
_exptl_crystal_size_mid          0.25
_exptl_crystal_size_min          0.21
_refine_diff_density_max         0.326
_refine_diff_density_min         -0.379
_refine_diff_density_rms         0.055
_refine_ls_extinction_method     none
_refine_ls_goodness_of_fit_ref   1.030
_refine_ls_hydrogen_treatment    constr
_refine_ls_matrix_type           full
_refine_ls_number_parameters     195
_refine_ls_number_reflns         4258
_refine_ls_number_restraints     0
_refine_ls_restrained_S_all      1.030
_refine_ls_R_factor_all          0.0453
_refine_ls_R_factor_gt           0.0313
_refine_ls_shift/su_max          0.005
_refine_ls_shift/su_mean         0.000
_refine_ls_structure_factor_coef Fsqd
_refine_ls_weighting_details
'w=1/[\s^2^(Fo^2^)+(0.0418P)^2^+15.9599P] where P=(Fo^2^+2Fc^2^)/3'
_refine_ls_weighting_scheme      calc
_refine_ls_wR_factor_gt          0.0752
_refine_ls_wR_factor_ref         0.0797
_reflns_Friedel_coverage         0.000
_reflns_number_gt                3328
_reflns_number_total             4258
_reflns_threshold_expression     'I > 2\s(I)'
_cod_data_source_file            c8ce01868e2.cif
_cod_data_source_block           mo_xjr20161214cdaicd_0m-auto_sq
_cod_original_cell_volume        15058(9)
_cod_database_code               7231849
_shelx_space_group_comment
;
The symmetry employed for this shelxl refinement is uniquely defined
by the following loop, which should always be used as a source of
symmetry information in preference to the above space-group names.
They are only intended as comments.
;
_olex2_refinement_description
;
1. Fixed Uiso
 At 1.2 times of:
  All C(H) groups
2.a Aromatic/amide H refined with riding coordinates:
 C7(H7), C6(H6), C15(H15), C14(H14), C12(H12), C11(H11), C4(H4), C3(H3)
;
_shelx_res_file
;
    mo_xjr20161214cdaicd_0m-auto_sq.res created by SHELXL-2014/7

TITL mo_xjr20161214Cdaicd_0m_a.res in Fddd
CELL 0.71073 12.8504 18.9064 61.9796 90 90 90
ZERR 16 0.0035 0.0057 0.0251 0 0 0
LATT 4
SYMM +X,0.25-Y,0.25-Z
SYMM 0.25-X,+Y,0.25-Z
SYMM 0.25-X,0.25-Y,+Z
SFAC C H Cd N O
UNIT 512 256 16 32 160

L.S. 5 0 45
PLAN  -15 0 0
TEMP 20
HTAB
BOND $H
CONF
ABIN
fmap 2
acta
OMIT 3 5 3
OMIT 6 0 6
OMIT 3 3 1
OMIT 4 4 2
OMIT 4 4 8
OMIT 2 6 2
OMIT 2 6 4
OMIT 6 2 0
OMIT 9 11 7
OMIT 4 6 4
OMIT 4 4 4
REM <olex2.extras>
REM <HklSrc "%.\\mo_xjr20161214Cdaicd_0m-auto_sq.hkl">
REM </olex2.extras>

WGHT    0.041800   15.959900
FVAR       0.08481
CD1   3    0.375000    0.875000    0.654453    10.50000    0.02589    0.06996 =
         0.01632    0.00000    0.00000   -0.01232
O1    5    0.463604    0.586247    0.419642    11.00000    0.05496    0.07631 =
         0.02876   -0.00439    0.01421    0.01531
O2    5    0.537698    0.680943    0.433711    11.00000    0.04438    0.06927 =
         0.03843    0.00458    0.01523    0.00930
O3    5    0.284753    0.816593    0.629085    11.00000    0.04927    0.06030 =
         0.02973   -0.01815   -0.00336   -0.00052
O4    5    0.432409    0.759284    0.624944    11.00000    0.04286    0.07176 =
         0.05044   -0.01475   -0.02036   -0.00292
N1    4    0.224744    0.650326    0.523997    11.00000    0.03417    0.04057 =
         0.01720   -0.00231    0.00371   -0.00140
C16   1    0.469353    0.634533    0.433883    11.00000    0.04280    0.06241 =
         0.02272    0.00644    0.00677    0.02090
C1    1    0.342565    0.774200    0.619021    11.00000    0.03875    0.04379 =
         0.02656   -0.00352   -0.00450   -0.00697
C2    1    0.299315    0.740777    0.598934    11.00000    0.03220    0.04126 =
         0.02216   -0.00506   -0.00223   -0.00322
C7    1    0.364802    0.711767    0.583488    11.00000    0.02319    0.06958 =
         0.03839   -0.01599    0.00101   -0.00486
AFIX  43
H7    2    0.436462    0.713196    0.585542    11.00000   -1.20000
AFIX   0
C6    1    0.324594    0.680706    0.565045    11.00000    0.02908    0.06587 =
         0.02918   -0.01872    0.00707   -0.00288
AFIX  43
H6    2    0.369344    0.662337    0.554669    11.00000   -1.20000
AFIX   0
C5    1    0.218098    0.676918    0.562009    11.00000    0.03197    0.03929 =
         0.01633   -0.00278    0.00012   -0.00389
C8    1    0.172945    0.643052    0.542572    11.00000    0.02950    0.03704 =
         0.01483    0.00069    0.00052    0.00260
C9    1    0.178295    0.633126    0.505334    11.00000    0.03560    0.03341 =
         0.01478   -0.00027    0.00189    0.00184
C10   1    0.248905    0.633162    0.486288    11.00000    0.03737    0.04184 =
         0.01568   -0.00085    0.00316    0.00509
C15   1    0.333079    0.679221    0.486064    11.00000    0.04561    0.04703 =
         0.02373   -0.00372    0.00835   -0.00362
AFIX  43
H15   2    0.343077    0.709996    0.497585    11.00000   -1.20000
AFIX   0
C14   1    0.402209    0.680034    0.468990    11.00000    0.04424    0.05266 =
         0.03289    0.00135    0.01145   -0.00233
AFIX  43
H14   2    0.457385    0.711865    0.469023    11.00000   -1.20000
AFIX   0
C13   1    0.390062    0.633936    0.451857    11.00000    0.04000    0.05248 =
         0.02406    0.00274    0.00835    0.01236
C12   1    0.307346    0.587330    0.452088    11.00000    0.05664    0.06349 =
         0.02193   -0.01328    0.00703    0.00460
AFIX  43
H12   2    0.298781    0.555826    0.440702    11.00000   -1.20000
AFIX   0
C11   1    0.236806    0.586745    0.469033    11.00000    0.04742    0.06081 =
         0.02687   -0.01198    0.00672   -0.00853
AFIX  43
H11   2    0.181241    0.555233    0.468863    11.00000   -1.20000
AFIX   0
C4    1    0.152768    0.707590    0.577251    11.00000    0.02650    0.04432 =
         0.02280   -0.00466   -0.00203    0.00301
AFIX  43
H4    2    0.081115    0.706404    0.575174    11.00000   -1.20000
AFIX   0
C3    1    0.192775    0.739662    0.595361    11.00000    0.03011    0.04517 =
         0.02335   -0.00900    0.00256    0.00207
AFIX  43
H3    2    0.148125    0.760726    0.605268    11.00000   -1.20000
AFIX   0
HKLF 4

REM  mo_xjr20161214Cdaicd_0m_a.res in Fddd
REM R1 =  0.0313 for    3328 Fo > 4sig(Fo)  and  0.0453 for all    4258 data
REM    195 parameters refined using      0 restraints

END

WGHT      0.0418     16.0408

REM No hydrogen bonds found for HTAB generation

REM Highest difference peak  0.326,  deepest hole -0.379,  1-sigma level  0.055
Q1    1   0.4293  0.5375  0.4220  11.00000  0.05    0.33
Q2    1   0.1991  0.6542  0.5542  11.00000  0.05    0.27
Q3    1   0.2680  0.6897  0.5601  11.00000  0.05    0.27
Q4    1   0.2199  0.6312  0.4954  11.00000  0.05    0.23
Q5    1   0.1820  0.6780  0.5711  11.00000  0.05    0.23
Q6    1   0.2332  0.6211  0.4754  11.00000  0.05    0.23
Q7    1   0.1243  0.6467  0.5040  11.00000  0.05    0.22
Q8    1   0.9809  0.5611  0.1221  11.00000  0.05    0.22
Q9    1   0.3133  0.7521  0.6094  11.00000  0.05    0.22
Q10   1   0.1968  0.4776  0.1255  11.00000  0.05    0.21
Q11   1   0.2281  0.8405  0.6279  11.00000  0.05    0.20
Q12   1   0.1556  0.4807  0.1218  11.00000  0.05    0.20
Q13   1   0.1991  0.7908  0.6207  11.00000  0.05    0.20
Q14   1   0.1626  0.8461  0.6220  11.00000  0.05    0.20
Q15   1   0.4040  0.5658  0.4148  11.00000  0.05    0.20
;
_shelx_res_checksum              68263
_shelx_fab_checksum              40214
_shelx_fab_file
;
    4    0    0    -54.35      0.00
    8    0    0     40.86      0.00
   12    0    0    -15.85      0.00
   16    0    0     -1.17      0.00
    2    2    0   -145.72      0.00
    6    2    0    -73.44      0.00
   10    2    0      5.83      0.00
   14    2    0    -16.44      0.00
    0    4    0    -29.06      0.00
    4    4    0     -5.50      0.00
    8    4    0    -39.63      0.00
   12    4    0      7.89      0.00
   16    4    0     -5.74      0.00
    2    6    0     10.99      0.00
    6    6    0     23.01      0.00
   10    6    0     15.53      0.00
   14    6    0     -1.59      0.00
    0    8    0    -23.09      0.00
    4    8    0     62.17      0.00
    8    8    0     -7.92      0.00
   12    8    0      9.01      0.00
    2   10    0    -23.62      0.00
    6   10    0     34.71      0.00
   10   10    0    -20.79      0.00
   14   10    0      3.48      0.00
    0   12    0     -5.02      0.00
    4   12    0    -37.01      0.00
    8   12    0     14.52      0.00
   12   12    0     -9.93      0.00
    2   14    0     31.19      0.00
    6   14    0      6.73      0.00
   10   14    0     16.61      0.00
    0   16    0     21.36      0.00
    4   16    0     17.28      0.00
    8   16    0     -0.18      0.00
   12   16    0      3.61      0.00
    2   18    0     -0.81      0.00
    6   18    0    -16.57      0.00
   10   18    0      0.10      0.00
    0   20    0      2.09      0.00
    4   20    0     -3.67      0.00
    8   20    0     -1.23      0.00
    2   22    0    -15.85      0.00
    6   22    0      4.13      0.00
    0   24    0      4.31      0.00
    3    1    1    -13.52      0.00
    5    1    1      2.96      0.00
    7    1    1      1.05      0.00
    9    1    1     18.64      0.00
   11    1    1      6.74      0.00
   13    1    1      2.79      0.00
   15    1    1      3.64      0.00
    1    3    1    -10.20      0.00
    3    3    1    -13.87      0.00
    5    3    1    104.10      0.00
    7    3    1     -6.88      0.00
    9    3    1     -2.50      0.00
   11    3    1     -0.02      0.00
   13    3    1     14.96      0.00
   15    3    1     -1.30      0.00
    1    5    1    -46.81      0.00
    3    5    1    -49.83      0.00
    5    5    1      2.95      0.00
    7    5    1     28.87      0.00
    9    5    1    -33.19      0.00
   11    5    1    -15.76      0.00
   13    5    1      6.01      0.00
   15    5    1      2.12      0.00
    1    7    1     46.20      0.00
    3    7    1    -67.62      0.00
    5    7    1    -55.05      0.00
    7    7    1     30.40      0.00
    9    7    1     -0.62      0.00
   11    7    1     -9.13      0.00
   13    7    1     -8.84      0.00
   15    7    1     -0.17      0.00
    1    9    1     29.63      0.00
    3    9    1     -8.53      0.00
    5    9    1    -13.52      0.00
    7    9    1    -20.29      0.00
    9    9    1     10.36      0.00
   11    9    1      7.58      0.00
   13    9    1     -1.94      0.00
   15    9    1     -2.21      0.00
    1   11    1     15.45      0.00
    3   11    1     17.02      0.00
    5   11    1      3.57      0.00
    7   11    1      6.42      0.00
    9   11    1     -1.22      0.00
   11   11    1     -4.90      0.00
   13   11    1      2.81      0.00
    1   13    1    -10.72      0.00
    3   13    1      3.42      0.00
    5   13    1    -18.62      0.00
    7   13    1    -15.45      0.00
    9   13    1     -3.61      0.00
   11   13    1      2.12      0.00
   13   13    1     -6.12      0.00
    1   15    1    -27.93      0.00
    3   15    1     10.84      0.00
    5   15    1     -8.18      0.00
    7   15    1     -3.23      0.00
    9   15    1    -10.94      0.00
   11   15    1      7.66      0.00
   13   15    1     -1.58      0.00
    1   17    1      3.80      0.00
    3   17    1    -10.14      0.00
    5   17    1     22.51      0.00
    7   17    1      9.30      0.00
    9   17    1     -2.82      0.00
   11   17    1     -3.02      0.00
    1   19    1      2.29      0.00
    3   19    1     -2.69      0.00
    5   19    1      1.22      0.00
    7   19    1     -5.39      0.00
    9   19    1      3.69      0.00
    1   21    1     10.29      0.00
    3   21    1     11.30      0.00
    5   21    1     -7.26      0.00
    7   21    1      1.46      0.00
    1   23    1      2.76      0.00
    3   23    1     -7.70      0.00
    5   23    1     -1.01      0.00
    2    0    2   -263.77      0.00
    6    0    2     38.85      0.00
   10    0    2    -37.82      0.00
   14    0    2      5.52      0.00
    0    2    2   -277.57      0.00
    2    2    2    259.31      0.00
    4    2    2   -155.13      0.00
    6    2    2    -42.14      0.00
    8    2    2     12.84      0.00
   10    2    2      7.34      0.00
   12    2    2    -17.29      0.00
   14    2    2     -2.69      0.00
   16    2    2      6.95      0.00
    2    4    2     93.65      0.00
    4    4    2    -40.03      0.00
    6    4    2     19.26      0.00
    8    4    2      5.67      0.00
   10    4    2     25.60      0.00
   12    4    2     -4.35      0.00
   14    4    2      3.74      0.00
   16    4    2     16.24      0.00
    0    6    2    -26.06      0.00
    2    6    2     26.30      0.00
    4    6    2     52.21      0.00
    6    6    2     -8.20      0.00
    8    6    2     18.93      0.00
   10    6    2      3.87      0.00
   12    6    2      2.36      0.00
   14    6    2     -1.14      0.00
   16    6    2      4.43      0.00
    2    8    2     57.28      0.00
    4    8    2     15.06      0.00
    6    8    2    -22.34      0.00
    8    8    2     16.86      0.00
   10    8    2     -1.21      0.00
   12    8    2     -2.85      0.00
   14    8    2     -9.68      0.00
    0   10    2    -88.48      0.00
    2   10    2     -2.53      0.00
    4   10    2     16.23      0.00
    6   10    2     -1.70      0.00
    8   10    2    -25.68      0.00
   10   10    2      3.86      0.00
   12   10    2      8.11      0.00
   14   10    2     -0.11      0.00
    2   12    2    -14.03      0.00
    4   12    2     16.56      0.00
    6   12    2     24.55      0.00
    8   12    2     11.40      0.00
   10   12    2     -4.91      0.00
   12   12    2      0.66      0.00
   14   12    2      4.78      0.00
    0   14    2     41.21      0.00
    2   14    2      4.80      0.00
    4   14    2      1.97      0.00
    6   14    2      7.98      0.00
    8   14    2     10.96      0.00
   10   14    2     -5.81      0.00
   12   14    2     -2.97      0.00
    2   16    2    -13.79      0.00
    4   16    2      1.97      0.00
    6   16    2    -14.60      0.00
    8   16    2     -2.51      0.00
   10   16    2     -2.77      0.00
   12   16    2      3.31      0.00
    0   18    2     -5.20      0.00
    2   18    2      5.00      0.00
    4   18    2    -11.63      0.00
    6   18    2      9.12      0.00
    8   18    2     -0.09      0.00
   10   18    2      3.86      0.00
    2   20    2      1.52      0.00
    4   20    2     -3.62      0.00
    6   20    2      3.31      0.00
    8   20    2     -1.73      0.00
    0   22    2    -13.28      0.00
    2   22    2      3.37      0.00
    4   22    2      5.32      0.00
    6   22    2     -3.40      0.00
    2   24    2      3.28      0.00
    1    1    3    -40.58      0.00
    3    1    3    -23.22      0.00
    5    1    3     48.99      0.00
    7    1    3     20.59      0.00
    9    1    3     17.13      0.00
   11    1    3    -11.55      0.00
   13    1    3      3.60      0.00
   15    1    3      2.27      0.00
    1    3    3   -202.70      0.00
    3    3    3    182.36      0.00
    5    3    3    -78.16      0.00
    7    3    3    -46.77      0.00
    9    3    3     -3.27      0.00
   11    3    3      9.05      0.00
   13    3    3    -12.31      0.00
   15    3    3    -16.84      0.00
    1    5    3    -79.13      0.00
    3    5    3     48.54      0.00
    5    5    3    -37.60      0.00
    7    5    3    -20.87      0.00
    9    5    3    -32.33      0.00
   11    5    3     15.98      0.00
   13    5    3      1.77      0.00
   15    5    3     -7.29      0.00
    1    7    3    -86.98      0.00
    3    7    3    -86.91      0.00
    5    7    3     41.81      0.00
    7    7    3      4.42      0.00
    9    7    3     -5.97      0.00
   11    7    3     -3.62      0.00
   13    7    3     16.49      0.00
   15    7    3      6.01      0.00
    1    9    3     47.61      0.00
    3    9    3     -3.03      0.00
    5    9    3      0.10      0.00
    7    9    3      7.95      0.00
    9    9    3     22.99      0.00
   11    9    3    -12.99      0.00
   13    9    3     -0.34      0.00
   15    9    3     -3.86      0.00
    1   11    3    -26.90      0.00
    3   11    3     -7.68      0.00
    5   11    3    -18.07      0.00
    7   11    3     -5.77      0.00
    9   11    3     -9.83      0.00
   11   11    3     -1.14      0.00
   13   11    3     -2.03      0.00
    1   13    3     -9.55      0.00
    3   13    3    -23.86      0.00
    5   13    3    -12.57      0.00
    7   13    3     -1.91      0.00
    9   13    3      1.16      0.00
   11   13    3      1.16      0.00
   13   13    3      1.79      0.00
    1   15    3     23.03      0.00
    3   15    3      9.45      0.00
    5   15    3     -2.55      0.00
    7   15    3     -1.01      0.00
    9   15    3     16.36      0.00
   11   15    3      2.59      0.00
   13   15    3     -1.02      0.00
    1   17    3      0.58      0.00
    3   17    3      1.67      0.00
    5   17    3     10.10      0.00
    7   17    3     -7.67      0.00
    9   17    3     -1.16      0.00
   11   17    3     -3.24      0.00
    1   19    3     -6.83      0.00
    3   19    3      3.28      0.00
    5   19    3     -4.89      0.00
    7   19    3      8.25      0.00
    9   19    3    -10.43      0.00
    1   21    3      2.95      0.00
    3   21    3      2.15      0.00
    5   21    3     -3.14      0.00
    7   21    3      2.41      0.00
    1   23    3    -10.41      0.00
    3   23    3      2.29      0.00
    5   23    3      0.01      0.00
    4    0    4     13.77      0.00
    8    0    4    -54.18      0.00
   12    0    4     14.28      0.00
   16    0    4     -9.87      0.00
    2    2    4   -145.06      0.00
    4    2    4      6.29      0.00
    6    2    4     93.75      0.00
    8    2    4      4.98      0.00
   10    2    4     -2.19      0.00
   12    2    4     -3.99      0.00
   14    2    4     19.63      0.00
   16    2    4      6.98      0.00
    0    4    4    229.10      0.00
    2    4    4   -148.81      0.00
    4    4    4     95.81      0.00
    6    4    4     24.26      0.00
    8    4    4     28.07      0.00
   10    4    4      0.35      0.00
   12    4    4     -2.70      0.00
   14    4    4      4.35      0.00
   16    4    4     -0.06      0.00
    2    6    4     21.78      0.00
    4    6    4     68.91      0.00
    6    6    4    -18.80      0.00
    8    6    4      3.19      0.00
   10    6    4    -16.94      0.00
   12    6    4      0.45      0.00
   14    6    4    -10.39      0.00
   16    6    4     -2.90      0.00
    0    8    4     23.94      0.00
    2    8    4    -21.37      0.00
    4    8    4    -63.97      0.00
    6    8    4     -0.75      0.00
    8    8    4     -4.43      0.00
   10    8    4      1.83      0.00
   12    8    4     -8.17      0.00
   14    8    4      3.36      0.00
    2   10    4     57.44      0.00
    4   10    4     17.10      0.00
    6   10    4     -6.07      0.00
    8   10    4     -2.90      0.00
   10   10    4     29.80      0.00
   12   10    4     -1.89      0.00
   14   10    4     -0.25      0.00
    0   12    4     20.11      0.00
    2   12    4      7.30      0.00
    4   12    4     37.43      0.00
    6   12    4      0.44      0.00
    8   12    4     -8.21      0.00
   10   12    4      2.14      0.00
   12   12    4      7.67      0.00
   14   12    4     -1.30      0.00
    2   14    4    -17.23      0.00
    4   14    4     -8.67      0.00
    6   14    4      8.14      0.00
    8   14    4     -4.60      0.00
   10   14    4    -14.22      0.00
   12   14    4     -2.11      0.00
    0   16    4    -16.74      0.00
    2   16    4      4.15      0.00
    4   16    4     -5.84      0.00
    6   16    4      0.01      0.00
    8   16    4     -2.88      0.00
   10   16    4      3.76      0.00
   12   16    4      1.88      0.00
    2   18    4      0.40      0.00
    4   18    4     -3.75      0.00
    6   18    4      5.28      0.00
    8   18    4     -3.61      0.00
   10   18    4      9.85      0.00
    0   20    4      7.66      0.00
    2   20    4     -3.11      0.00
    4   20    4     -3.73      0.00
    6   20    4     -2.83      0.00
    8   20    4      7.32      0.00
    2   22    4      2.01      0.00
    4   22    4      1.87      0.00
    6   22    4     -4.64      0.00
    0   24    4      1.33      0.00
    2   24    4     -3.52      0.00
    1    1    5     89.07      0.00
    3    1    5    -12.10      0.00
    5    1    5    -53.99      0.00
    7    1    5      3.19      0.00
    9    1    5    -18.99      0.00
   11    1    5     -9.42      0.00
   13    1    5     -1.92      0.00
   15    1    5     -5.25      0.00
    1    3    5    135.07      0.00
    3    3    5   -126.01      0.00
    5    3    5    -99.23      0.00
    7    3    5     12.55      0.00
    9    3    5     -7.45      0.00
   11    3    5     -5.39      0.00
   13    3    5    -17.72      0.00
   15    3    5      5.14      0.00
    1    5    5    168.54      0.00
    3    5    5   -112.52      0.00
    5    5    5    -25.27      0.00
    7    5    5    -20.51      0.00
    9    5    5     34.90      0.00
   11    5    5     17.40      0.00
   13    5    5     -3.67      0.00
   15    5    5      1.99      0.00
    1    7    5    -19.76      0.00
    3    7    5     41.91      0.00
    5    7    5     86.49      0.00
    7    7    5    -18.41      0.00
    9    7    5     -0.63      0.00
   11    7    5      2.71      0.00
   13    7    5     13.96      0.00
   15    7    5    -10.05      0.00
    1    9    5    -23.19      0.00
    3    9    5    -27.99      0.00
    5    9    5    -18.42      0.00
    7    9    5     11.44      0.00
    9    9    5    -21.62      0.00
   11    9    5    -10.93      0.00
   13    9    5     -0.35      0.00
   15    9    5      0.50      0.00
    1   11    5    -32.17      0.00
    3   11    5    -20.10      0.00
    5   11    5    -11.13      0.00
    7   11    5      7.58      0.00
    9   11    5    -14.27      0.00
   11   11    5      3.30      0.00
   13   11    5     -1.94      0.00
    1   13    5     13.53      0.00
    3   13    5     -2.57      0.00
    5   13    5     17.99      0.00
    7   13    5      4.40      0.00
    9   13    5      1.40      0.00
   11   13    5     -1.56      0.00
   13   13    5      3.63      0.00
    1   15    5     17.19      0.00
    3   15    5     -4.88      0.00
    5   15    5     -8.18      0.00
    7   15    5      9.58      0.00
    9   15    5      8.92      0.00
   11   15    5     -7.98      0.00
   13   15    5     -6.83      0.00
    1   17    5      0.40      0.00
    3   17    5     12.80      0.00
    5   17    5    -11.69      0.00
    7   17    5     -5.57      0.00
    9   17    5     -2.90      0.00
   11   17    5     -2.69      0.00
    1   19    5     -4.92      0.00
    3   19    5      8.09      0.00
    5   19    5     -0.93      0.00
    7   19    5     -6.31      0.00
    9   19    5     -9.01      0.00
    1   21    5     -0.70      0.00
    3   21    5      0.15      0.00
    5   21    5      1.84      0.00
    7   21    5      6.39      0.00
    1   23    5      2.47      0.00
    3   23    5     -3.37      0.00
    5   23    5      4.15      0.00
    2    0    6    169.65      0.00
    6    0    6     -1.82      0.00
   10    0    6     40.00      0.00
   14    0    6     -2.92      0.00
    0    2    6   -213.22      0.00
    2    2    6     30.10      0.00
    4    2    6    145.23      0.00
    6    2    6     12.06      0.00
    8    2    6     -6.16      0.00
   10    2    6      6.76      0.00
   12    2    6     16.97      0.00
   14    2    6      6.60      0.00
   16    2    6     -2.83      0.00
    2    4    6     73.40      0.00
    4    4    6     43.41      0.00
    6    4    6     17.78      0.00
    8    4    6    -11.33      0.00
   10    4    6    -33.28      0.00
   12    4    6      3.40      0.00
   14    4    6     -2.55      0.00
   16    4    6      4.00      0.00
    0    6    6   -132.32      0.00
    2    6    6     78.77      0.00
    4    6    6    -82.14      0.00
    6    6    6    -12.32      0.00
    8    6    6    -18.51      0.00
   10    6    6      1.59      0.00
   12    6    6      2.46      0.00
   14    6    6     -3.22      0.00
   16    6    6      3.84      0.00
    2    8    6     -9.79      0.00
    4    8    6     -5.45      0.00
    6    8    6     58.24      0.00
    8    8    6     -3.85      0.00
   10    8    6      5.18      0.00
   12    8    6     -2.24      0.00
   14    8    6      8.96      0.00
    0   10    6     70.07      0.00
    2   10    6     32.39      0.00
    4   10    6      1.25      0.00
    6   10    6     -9.04      0.00
    8   10    6     30.00      0.00
   10   10    6      2.02      0.00
   12   10    6    -12.34      0.00
   14   10    6     -1.93      0.00
    2   12    6     13.35      0.00
    4   12    6    -15.36      0.00
    6   12    6    -28.14      0.00
    8   12    6      4.33      0.00
   10   12    6     -0.85      0.00
   12   12    6      1.29      0.00
   14   12    6     -9.70      0.00
    0   14    6    -35.01      0.00
    2   14    6      2.13      0.00
    4   14    6      4.34      0.00
    6   14    6      3.10      0.00
    8   14    6    -13.98      0.00
   10   14    6      4.43      0.00
   12   14    6      3.41      0.00
    2   16    6     -1.09      0.00
    4   16    6      1.34      0.00
    6   16    6      7.83      0.00
    8   16    6     -0.31      0.00
   10   16    6      5.44      0.00
   12   16    6      5.19      0.00
    0   18    6     -1.48      0.00
    2   18    6     -3.09      0.00
    4   18    6      6.39      0.00
    6   18    6      4.42      0.00
    8   18    6      5.41      0.00
   10   18    6     -2.35      0.00
    2   20    6     -9.25      0.00
    4   20    6      2.87      0.00
    6   20    6      2.24      0.00
    8   20    6     -7.28      0.00
    0   22    6     -6.45      0.00
    2   22    6     -1.01      0.00
    4   22    6     -2.43      0.00
    6   22    6     -8.66      0.00
    2   24    6     14.01      0.00
    1    1    7    -78.12      0.00
    3    1    7     44.57      0.00
    5    1    7    -55.16      0.00
    7    1    7    -16.24      0.00
    9    1    7    -24.48      0.00
   11    1    7      6.73      0.00
   13    1    7     -4.30      0.00
   15    1    7     -0.05      0.00
    1    3    7   -117.05      0.00
    3    3    7   -130.72      0.00
    5    3    7     17.86      0.00
    7    3    7     29.04      0.00
    9    3    7     15.48      0.00
   11    3    7     -0.97      0.00
   13    3    7      5.61      0.00
   15    3    7      9.27      0.00
    1    5    7     44.94      0.00
    3    5    7     -7.11      0.00
    5    5    7     -9.20      0.00
    7    5    7     43.87      0.00
    9    5    7     30.78      0.00
   11    5    7    -24.15      0.00
   13    5    7      0.75      0.00
   15    5    7      5.84      0.00
    1    7    7    -30.64      0.00
    3    7    7     85.43      0.00
    5    7    7    -84.03      0.00
    7    7    7    -23.36      0.00
    9    7    7      5.27      0.00
   11    7    7      5.10      0.00
   13    7    7     -5.87      0.00
   15    7    7     -3.59      0.00
    1    9    7    -65.05      0.00
    3    9    7      1.58      0.00
    5    9    7    -25.21      0.00
    7    9    7      4.66      0.00
    9    9    7    -21.74      0.00
   11    9    7     13.49      0.00
   13    9    7      0.51      0.00
   15    9    7     -2.43      0.00
    1   11    7     -0.63      0.00
    3   11    7      7.58      0.00
    5   11    7     27.45      0.00
    7   11    7     -5.92      0.00
    9   11    7     10.27      0.00
   11   11    7      6.02      0.00
   13   11    7      2.24      0.00
    1   13    7      1.58      0.00
    3   13    7     15.74      0.00
    5   13    7      6.74      0.00
    7   13    7     -7.86      0.00
    9   13    7      0.58      0.00
   11   13    7     -3.99      0.00
   13   13    7      7.05      0.00
    1   15    7    -18.84      0.00
    3   15    7     -1.63      0.00
    5   15    7     -0.55      0.00
    7   15    7      3.72      0.00
    9   15    7     -9.19      0.00
   11   15    7     -2.16      0.00
   13   15    7     -1.21      0.00
    1   17    7      8.44      0.00
    3   17    7     -7.03      0.00
    5   17    7    -11.53      0.00
    7   17    7      9.27      0.00
    9   17    7     -1.91      0.00
   11   17    7    -10.81      0.00
    1   19    7      4.68      0.00
    3   19    7      2.18      0.00
    5   19    7     -4.23      0.00
    7   19    7     -0.02      0.00
    9   19    7     10.18      0.00
    1   21    7      3.41      0.00
    3   21    7      2.10      0.00
    5   21    7      6.61      0.00
    7   21    7      6.42      0.00
    1   23    7    -12.25      0.00
    3   23    7     -6.42      0.00
    5   23    7      6.63      0.00
    0    0    8    238.88      0.00
    4    0    8    -21.43      0.00
    8    0    8     71.87      0.00
   12    0    8    -11.73      0.00
   16    0    8      8.65      0.00
    2    2    8     76.06      0.00
    4    2    8     99.85      0.00
    6    2    8    -59.13      0.00
    8    2    8    -22.61      0.00
   10    2    8     -5.22      0.00
   12    2    8      0.62      0.00
   14    2    8    -15.99      0.00
   16    2    8      0.05      0.00
    0    4    8    -67.59      0.00
    2    4    8      6.86      0.00
    4    4    8      3.95      0.00
    6    4    8    -32.38      0.00
    8    4    8    -37.39      0.00
   10    4    8      6.06      0.00
   12    4    8      9.26      0.00
   14    4    8    -11.64      0.00
   16    4    8     -4.85      0.00
    2    6    8     -5.43      0.00
    4    6    8     41.06      0.00
    6    6    8     13.03      0.00
    8    6    8     -2.97      0.00
   10    6    8     16.47      0.00
   12    6    8     -3.92      0.00
   14    6    8      0.86      0.00
   16    6    8     -1.86      0.00
    0    8    8     54.14      0.00
    2    8    8     -8.02      0.00
    4    8    8     92.65      0.00
    6    8    8    -12.83      0.00
    8    8    8     -5.05      0.00
   10    8    8      3.13      0.00
   12    8    8      7.86      0.00
   14    8    8      1.95      0.00
    2   10    8    -59.16      0.00
    4   10    8      0.40      0.00
    6   10    8     -3.85      0.00
    8   10    8      9.95      0.00
   10   10    8    -27.57      0.00
   12   10    8      3.47      0.00
   14   10    8      1.81      0.00
    0   12    8     14.93      0.00
    2   12    8    -12.44      0.00
    4   12    8    -32.39      0.00
    6   12    8     13.37      0.00
    8   12    8      7.56      0.00
   10   12    8      3.10      0.00
   12   12    8     -6.92      0.00
   14   12    8      2.29      0.00
    2   14    8      8.96      0.00
    4   14    8      2.06      0.00
    6   14    8      0.35      0.00
    8   14    8      3.94      0.00
   10   14    8      9.57      0.00
   12   14    8     -6.47      0.00
    0   16    8      6.07      0.00
    2   16    8     -8.52      0.00
    4   16    8      7.60      0.00
    6   16    8      0.71      0.00
    8   16    8     -6.56      0.00
   10   16    8      4.60      0.00
   12   16    8     17.60      0.00
    2   18    8      1.51      0.00
    4   18    8     -0.65      0.00
    6   18    8     -8.44      0.00
    8   18    8      3.92      0.00
   10   18    8      3.27      0.00
    0   20    8    -11.15      0.00
    2   20    8     -0.19      0.00
    4   20    8     -1.16      0.00
    6   20    8     -5.28      0.00
    8   20    8     -7.47      0.00
    2   22    8      4.73      0.00
    4   22    8      1.71      0.00
    6   22    8     -5.18      0.00
    0   24    8     15.56      0.00
    2   24    8      0.00      0.00
    1    1    9     58.39      0.00
    3    1    9    -74.94      0.00
    5    1    9     -2.81      0.00
    7    1    9    -18.44      0.00
    9    1    9     37.55      0.00
   11    1    9      8.85      0.00
   13    1    9      2.62      0.00
   15    1    9     -1.23      0.00
    1    3    9      5.51      0.00
    3    3    9     -5.81      0.00
    5    3    9    104.14      0.00
    7    3    9      1.83      0.00
    9    3    9     -7.12      0.00
   11    3    9     -1.26      0.00
   13    3    9     12.89      0.00
   15    3    9     -0.62      0.00
    1    5    9   -111.99      0.00
    3    5    9    -67.86      0.00
    5    5    9     19.09      0.00
    7    5    9     15.71      0.00
    9    5    9    -28.75      0.00
   11    5    9    -18.24      0.00
   13    5    9      8.38      0.00
   15    5    9      4.05      0.00
    1    7    9      9.84      0.00
    3    7    9    -94.21      0.00
    5    7    9    -31.92      0.00
    7    7    9     25.34      0.00
    9    7    9     -2.80      0.00
   11    7    9     -9.91      0.00
   13    7    9    -11.13      0.00
   15    7    9      4.62      0.00
    1    9    9     60.16      0.00
    3    9    9      3.36      0.00
    5    9    9     28.12      0.00
    7    9    9    -19.02      0.00
    9    9    9     14.36      0.00
   11    9    9      9.83      0.00
   13    9    9     -2.24      0.00
   15    9    9      2.02      0.00
    1   11    9     24.19      0.00
    3   11    9     -1.57      0.00
    5   11    9     16.56      0.00
    7   11    9    -18.91      0.00
    9   11    9      7.31      0.00
   11   11    9     -5.95      0.00
   13   11    9     -1.91      0.00
    1   13    9     11.46      0.00
    3   13    9     10.11      0.00
    5   13    9    -19.28      0.00
    7   13    9     -4.11      0.00
    9   13    9     -5.15      0.00
   11   13    9      5.07      0.00
   13   13    9     -3.63      0.00
    1   15    9     -4.67      0.00
    3   15    9      6.90      0.00
    5   15    9      0.84      0.00
    7   15    9     -8.15      0.00
    9   15    9     -1.28      0.00
   11   15    9      1.93      0.00
    1   17    9      1.44      0.00
    3   17    9    -10.95      0.00
    5   17    9      9.88      0.00
    7   17    9     11.39      0.00
    9   17    9    -10.10      0.00
   11   17    9     -9.69      0.00
    1   19    9      7.49      0.00
    3   19    9     -2.56      0.00
    5   19    9     -0.50      0.00
    7   19    9      2.11      0.00
    9   19    9      7.16      0.00
    1   21    9     -3.21      0.00
    3   21    9     -0.90      0.00
    5   21    9      0.42      0.00
    7   21    9      0.75      0.00
    1   23    9     -4.98      0.00
    3   23    9     -1.79      0.00
    5   23    9      2.75      0.00
    2    0   10    -14.68      0.00
    6    0   10     53.00      0.00
   10    0   10    -43.38      0.00
   14    0   10      9.18      0.00
    0    2   10      0.82      0.00
    2    2   10     32.00      0.00
    4    2   10   -140.24      0.00
    6    2   10     -1.99      0.00
    8    2   10      4.45      0.00
   10    2   10      8.13      0.00
   12    2   10    -14.81      0.00
   14    2   10     -1.71      0.00
   16    2   10      2.18      0.00
    2    4   10    142.87      0.00
    4    4   10    -36.24      0.00
    6    4   10     15.38      0.00
    8    4   10     11.44      0.00
   10    4   10     23.13      0.00
   12    4   10      1.70      0.00
   14    4   10     -2.29      0.00
   16    4   10      4.07      0.00
    0    6   10    137.36      0.00
    2    6   10     17.03      0.00
    4    6   10      9.03      0.00
    6    6   10      6.60      0.00
    8    6   10     10.37      0.00
   10    6   10      4.25      0.00
   12    6   10      1.48      0.00
   14    6   10      0.55      0.00
    2    8   10     20.75      0.00
    4    8   10    -36.46      0.00
    6    8   10    -26.04      0.00
    8    8   10      9.25      0.00
   10    8   10     -1.03      0.00
   12    8   10     -1.78      0.00
   14    8   10    -10.45      0.00
    0   10   10    -88.97      0.00
    2   10   10      4.04      0.00
    4   10   10      0.89      0.00
    6   10   10     20.05      0.00
    8   10   10    -22.65      0.00
   10   10   10      3.03      0.00
   12   10   10     12.16      0.00
   14   10   10      2.05      0.00
    2   12   10    -13.66      0.00
    4   12   10    -13.38      0.00
    6   12   10     40.12      0.00
    8   12   10     -7.03      0.00
   10   12   10     -4.70      0.00
   12   12   10      2.07      0.00
   14   12   10      0.40      0.00
    0   14   10      1.52      0.00
    2   14   10     -0.46      0.00
    4   14   10     -2.49      0.00
    6   14   10     -0.89      0.00
    8   14   10     16.09      0.00
   10   14   10     -7.85      0.00
   12   14   10      4.58      0.00
    2   16   10      4.02      0.00
    4   16   10      2.13      0.00
    6   16   10     -6.22      0.00
    8   16   10     -5.75      0.00
   10   16   10      5.91      0.00
   12   16   10      3.60      0.00
    0   18   10     -7.89      0.00
    2   18   10      8.65      0.00
    4   18   10     -7.16      0.00
    6   18   10     -0.48      0.00
    8   18   10      3.61      0.00
   10   18   10     -6.55      0.00
    2   20   10     13.84      0.00
    4   20   10      2.80      0.00
    6   20   10     -3.84      0.00
    8   20   10     -3.57      0.00
    0   22   10     -1.94      0.00
    2   22   10      5.35      0.00
    4   22   10      3.02      0.00
    6   22   10      1.61      0.00
    2   24   10     -2.39      0.00
    1    1   11     -1.19      0.00
    3    1   11     67.85      0.00
    5    1   11     11.24      0.00
    7    1   11      1.50      0.00
    9    1   11     18.62      0.00
   11    1   11    -10.09      0.00
   13    1   11      1.36      0.00
   15    1   11      2.59      0.00
    1    3   11    -16.53      0.00
    3    3   11     77.53      0.00
    5    3   11    -85.77      0.00
    7    3   11    -16.67      0.00
    9    3   11     -2.44      0.00
   11    3   11      8.42      0.00
   13    3   11    -14.88      0.00
   15    3   11     -5.26      0.00
    1    5   11   -173.95      0.00
    3    5   11     88.45      0.00
    5    5   11    -13.78      0.00
    7    5   11    -24.58      0.00
    9    5   11    -23.65      0.00
   11    5   11     14.37      0.00
   13    5   11      5.73      0.00
   15    5   11     -3.47      0.00
    1    7   11     38.73      0.00
    3    7   11    -10.34      0.00
    5    7   11     35.02      0.00
    7    7   11     18.33      0.00
    9    7   11     -8.65      0.00
   11    7   11     -5.99      0.00
   13    7   11     13.61      0.00
   15    7   11     11.56      0.00
    1    9   11     51.69      0.00
    3    9   11      3.16      0.00
    5    9   11    -22.93      0.00
    7    9   11      0.88      0.00
    9    9   11     14.09      0.00
   11    9   11     -7.81      0.00
   13    9   11     -3.84      0.00
   15    9   11      1.32      0.00
    1   11   11    -21.56      0.00
    3   11   11     16.32      0.00
    5   11   11    -22.97      0.00
    7   11   11      0.26      0.00
    9   11   11     -4.57      0.00
   11   11   11     -0.61      0.00
   13   11   11     -2.78      0.00
    1   13   11      5.25      0.00
    3   13   11      1.84      0.00
    5   13   11    -24.94      0.00
    7   13   11     14.14      0.00
    9   13   11     -1.54      0.00
   11   13   11     -2.55      0.00
   13   13   11     -4.56      0.00
    1   15   11      5.67      0.00
    3   15   11      3.98      0.00
    5   15   11     -3.73      0.00
    7   15   11     -8.21      0.00
    9   15   11     15.02      0.00
   11   15   11     -0.78      0.00
    1   17   11    -10.85      0.00
    3   17   11      6.35      0.00
    5   17   11     10.40      0.00
    7   17   11     -4.53      0.00
    9   17   11     -4.83      0.00
   11   17   11      5.73      0.00
    1   19   11    -16.20      0.00
    3   19   11     -0.99      0.00
    5   19   11      1.74      0.00
    7   19   11      1.88      0.00
    9   19   11      4.96      0.00
    1   21   11     -5.88      0.00
    3   21   11     -3.20      0.00
    5   21   11      0.25      0.00
    7   21   11      5.62      0.00
    1   23   11     -7.50      0.00
    3   23   11      1.37      0.00
    5   23   11      2.94      0.00
    0    0   12    -98.22      0.00
    4    0   12      0.19      0.00
    8    0   12    -28.45      0.00
   12    0   12     15.89      0.00
   16    0   12     -9.41      0.00
    2    2   12   -126.60      0.00
    4    2   12     39.54      0.00
    6    2   12     74.14      0.00
    8    2   12    -10.96      0.00
   10    2   12     -8.29      0.00
   12    2   12      1.97      0.00
   14    2   12     15.24      0.00
   16    2   12     -1.20      0.00
    0    4   12    172.72      0.00
    2    4   12     -4.25      0.00
    4    4   12     35.63      0.00
    6    4   12     -9.68      0.00
    8    4   12     31.12      0.00
   10    4   12     -4.01      0.00
   12    4   12     -1.96      0.00
   14    4   12     -1.07      0.00
   16    4   12     -1.00      0.00
    2    6   12   -116.48      0.00
    4    6   12     21.12      0.00
    6    6   12    -16.40      0.00
    8    6   12      3.00      0.00
   10    6   12     -9.75      0.00
   12    6   12     -1.91      0.00
   14    6   12     -8.35      0.00
    0    8   12    -92.29      0.00
    2    8   12      3.39      0.00
    4    8   12    -18.93      0.00
    6    8   12      3.87      0.00
    8    8   12     12.14      0.00
   10    8   12     -0.71      0.00
   12    8   12     -8.46      0.00
   14    8   12      1.74      0.00
    2   10   12     40.67      0.00
    4   10   12     12.09      0.00
    6   10   12     -9.77      0.00
    8   10   12     -1.06      0.00
   10   10   12     18.06      0.00
   12   10   12      2.09      0.00
   14   10   12     -3.46      0.00
    0   12   12     -8.16      0.00
    2   12   12     -9.88      0.00
    4   12   12     38.75      0.00
    6   12   12     -7.48      0.00
    8   12   12     -7.64      0.00
   10   12   12      0.22      0.00
   12   12   12     11.97      0.00
   14   12   12     -2.42      0.00
    2   14   12    -12.05      0.00
    4   14   12      8.51      0.00
    6   14   12     -2.78      0.00
    8   14   12      0.76      0.00
   10   14   12    -12.50      0.00
   12   14   12      3.14      0.00
    0   16   12      2.75      0.00
    2   16   12      5.15      0.00
    4   16   12     -6.27      0.00
    6   16   12      2.59      0.00
    8   16   12     -4.88      0.00
   10   16   12      3.13      0.00
   12   16   12      4.81      0.00
    2   18   12     -3.26      0.00
    4   18   12     -1.07      0.00
    6   18   12      1.00      0.00
    8   18   12      5.05      0.00
   10   18   12     -4.39      0.00
    0   20   12     18.04      0.00
    2   20   12     -1.63      0.00
    4   20   12     -1.94      0.00
    6   20   12      0.39      0.00
    8   20   12     -5.72      0.00
    2   22   12      1.07      0.00
    4   22   12     -6.84      0.00
    6   22   12     -5.25      0.00
    0   24   12     -1.61      0.00
    1    1   13    -12.34      0.00
    3    1   13      1.29      0.00
    5    1   13    -39.65      0.00
    7    1   13     -4.09      0.00
    9    1   13     -3.98      0.00
   11    1   13     -8.00      0.00
   13    1   13     -5.54      0.00
   15    1   13      2.75      0.00
    1    3   13     22.38      0.00
    3    3   13   -102.51      0.00
    5    3   13    -55.60      0.00
    7    3   13     22.60      0.00
    9    3   13      0.91      0.00
   11    3   13     -4.73      0.00
   13    3   13    -10.89      0.00
   15    3   13      6.95      0.00
    1    5   13    141.49      0.00
    3    5   13     44.70      0.00
    5    5   13      6.76      0.00
    7    5   13    -38.93      0.00
    9    5   13     23.36      0.00
   11    5   13      8.42      0.00
   13    5   13     -5.13      0.00
   15    5   13      8.24      0.00
    1    7   13     58.75      0.00
    3    7   13     -3.05      0.00
    5    7   13     44.32      0.00
    7    7   13    -29.64      0.00
    9    7   13     -9.44      0.00
   11    7   13      6.49      0.00
   13    7   13      4.48      0.00
   15    7   13     -5.96      0.00
    1    9   13    -77.48      0.00
    3    9   13    -13.39      0.00
    5    9   13      5.58      0.00
    7    9   13     -2.02      0.00
    9    9   13    -14.32      0.00
   11    9   13     -6.58      0.00
   13    9   13      1.38      0.00
   15    9   13     -3.94      0.00
    1   11   13     -2.53      0.00
    3   11   13     -9.99      0.00
    5   11   13     -6.68      0.00
    7   11   13      6.07      0.00
    9   11   13     -7.50      0.00
   11   11   13     -3.42      0.00
   13   11   13     -2.90      0.00
    1   13   13     -4.39      0.00
    3   13   13    -17.29      0.00
    5   13   13     22.87      0.00
    7   13   13      0.67      0.00
    9   13   13      5.00      0.00
   11   13   13     -2.31      0.00
   13   13   13      2.07      0.00
    1   15   13      3.91      0.00
    3   15   13    -12.06      0.00
    5   15   13      4.15      0.00
    7   15   13      5.05      0.00
    9   15   13      7.70      0.00
   11   15   13    -13.59      0.00
    1   17   13      4.37      0.00
    3   17   13      9.35      0.00
    5   17   13     -7.39      0.00
    7   17   13      0.89      0.00
    9   17   13     -1.59      0.00
   11   17   13     -2.44      0.00
    1   19   13     -5.82      0.00
    3   19   13      3.00      0.00
    5   19   13      1.63      0.00
    7   19   13     -7.40      0.00
    9   19   13      7.60      0.00
    1   21   13      1.33      0.00
    3   21   13     -2.44      0.00
    5   21   13      5.59      0.00
    7   21   13     -1.21      0.00
    1   23   13      9.18      0.00
    3   23   13      2.68      0.00
    2    0   14     96.62      0.00
    6    0   14     -9.72      0.00
   10    0   14     27.57      0.00
   14    0   14     -1.43      0.00
    0    2   14    -59.39      0.00
    2    2   14     31.10      0.00
    4    2   14    109.15      0.00
    6    2   14      5.92      0.00
    8    2   14    -17.44      0.00
   10    2   14      1.26      0.00
   12    2   14     15.81      0.00
   14    2   14     -0.86      0.00
   16    2   14     -8.09      0.00
    2    4   14    -61.10      0.00
    4    4   14    -24.31      0.00
    6    4   14     12.67      0.00
    8    4   14      4.34      0.00
   10    4   14    -14.84      0.00
   12    4   14      8.24      0.00
   14    4   14     -3.71      0.00
   16    4   14    -14.75      0.00
    0    6   14   -143.28      0.00
    2    6   14     -6.87      0.00
    4    6   14    -27.23      0.00
    6    6   14     30.68      0.00
    8    6   14     -7.94      0.00
   10    6   14      5.89      0.00
   12    6   14      0.94      0.00
   14    6   14     -0.77      0.00
    2    8   14     25.08      0.00
    4    8   14    -22.78      0.00
    6    8   14     39.71      0.00
    8    8   14      5.46      0.00
   10    8   14      0.05      0.00
   12    8   14     -2.31      0.00
   14    8   14      8.61      0.00
    0   10   14     83.24      0.00
    2   10   14    -22.10      0.00
    4   10   14    -13.41      0.00
    6   10   14      4.70      0.00
    8   10   14     18.44      0.00
   10   10   14      0.20      0.00
   12   10   14     -5.46      0.00
   14   10   14      6.93      0.00
    2   12   14     26.71      0.00
    4   12   14     -7.55      0.00
    6   12   14    -27.09      0.00
    8   12   14      6.44      0.00
   10   12   14      7.89      0.00
   12   12   14     -4.54      0.00
   14   12   14     -4.35      0.00
    0   14   14     -3.35      0.00
    2   14   14      7.64      0.00
    4   14   14     -8.93      0.00
    6   14   14      5.28      0.00
    8   14   14    -14.02      0.00
   10   14   14      6.76      0.00
   12   14   14      8.53      0.00
    2   16   14     -0.68      0.00
    4   16   14     -8.84      0.00
    6   16   14      5.93      0.00
    8   16   14     -1.35      0.00
   10   16   14      4.10      0.00
   12   16   14      5.54      0.00
    0   18   14      1.92      0.00
    2   18   14      1.62      0.00
    4   18   14      2.67      0.00
    6   18   14     -6.79      0.00
    8   18   14      1.25      0.00
   10   18   14      0.79      0.00
    2   20   14     -3.26      0.00
    4   20   14      2.96      0.00
    6   20   14      5.23      0.00
    8   20   14      2.53      0.00
    0   22   14     -3.84      0.00
    2   22   14     -4.15      0.00
    4   22   14     -2.03      0.00
    6   22   14     14.15      0.00
    1    1   15    -36.22      0.00
    3    1   15    -19.02      0.00
    5    1   15    -21.78      0.00
    7    1   15     -8.18      0.00
    9    1   15    -20.77      0.00
   11    1   15      3.52      0.00
   13    1   15     -4.94      0.00
   15    1   15      3.15      0.00
    1    3   15    -31.20      0.00
    3    3   15    -17.56      0.00
    5    3   15     42.92      0.00
    7    3   15     16.86      0.00
    9    3   15     -2.81      0.00
   11    3   15     -9.95      0.00
   13    3   15      7.82      0.00
   15    3   15     19.90      0.00
    1    5   15    124.12      0.00
    3    5   15    -13.21      0.00
    5    5   15    -37.32      0.00
    7    5   15     14.36      0.00
    9    5   15     16.14      0.00
   11    5   15    -18.57      0.00
   13    5   15     -4.51      0.00
   15    5   15      5.61      0.00
    1    7   15     -7.30      0.00
    3    7   15     49.54      0.00
    5    7   15    -59.89      0.00
    7    7   15    -11.41      0.00
    9    7   15      3.01      0.00
   11    7   15     10.99      0.00
   13    7   15     -8.87      0.00
   15    7   15     -7.51      0.00
    1    9   15    -39.41      0.00
    3    9   15     34.56      0.00
    5    9   15    -13.46      0.00
    7    9   15     -6.76      0.00
    9    9   15    -13.65      0.00
   11    9   15     12.60      0.00
   13    9   15     -3.93      0.00
   15    9   15     -3.98      0.00
    1   11   15     26.33      0.00
    3   11   15    -14.44      0.00
    5   11   15     13.61      0.00
    7   11   15      3.19      0.00
    9   11   15     -3.26      0.00
   11   11   15      2.23      0.00
   13   11   15      1.42      0.00
    1   13   15    -15.10      0.00
    3   13   15     14.04      0.00
    5   13   15     12.54      0.00
    7   13   15    -12.41      0.00
    9   13   15     -1.65      0.00
   11   13   15      3.93      0.00
   13   13   15      3.04      0.00
    1   15   15     -6.36      0.00
    3   15   15      4.06      0.00
    5   15   15     -1.94      0.00
    7   15   15      8.00      0.00
    9   15   15    -14.05      0.00
   11   15   15     -8.53      0.00
    1   17   15     -0.49      0.00
    3   17   15     -1.82      0.00
    5   17   15     -7.82      0.00
    7   17   15     11.06      0.00
    9   17   15      1.11      0.00
   11   17   15     -8.29      0.00
    1   19   15      4.72      0.00
    3   19   15      2.81      0.00
    5   19   15     -1.42      0.00
    7   19   15    -17.60      0.00
    9   19   15      1.22      0.00
    1   21   15      0.53      0.00
    3   21   15      2.85      0.00
    5   21   15     -4.28      0.00
    7   21   15     -3.71      0.00
    1   23   15      0.59      0.00
    3   23   15     -2.39      0.00
    0    0   16    117.78      0.00
    4    0   16    -12.28      0.00
    8    0   16     55.77      0.00
   12    0   16    -12.81      0.00
   16    0   16      0.18      0.00
    2    2   16     51.47      0.00
    4    2   16    -25.32      0.00
    6    2   16    -49.86      0.00
    8    2   16      9.95      0.00
   10    2   16      8.22      0.00
   12    2   16      0.82      0.00
   14    2   16    -20.19      0.00
   16    2   16    -13.54      0.00
    0    4   16   -126.96      0.00
    2    4   16    -55.53      0.00
    4    4   16     17.45      0.00
    6    4   16     -0.20      0.00
    8    4   16    -16.21      0.00
   10    4   16      6.54      0.00
   12    4   16     10.20      0.00
   14    4   16     -2.86      0.00
   16    4   16      0.84      0.00
    2    6   16     19.37      0.00
    4    6   16     20.27      0.00
    6    6   16      9.58      0.00
    8    6   16      1.48      0.00
   10    6   16     10.14      0.00
   12    6   16     -2.47      0.00
   14    6   16      3.49      0.00
    0    8   16      4.57      0.00
    2    8   16    -18.44      0.00
    4    8   16     56.62      0.00
    6    8   16     -9.35      0.00
    8    8   16     -2.21      0.00
   10    8   16     -2.18      0.00
   12    8   16      9.31      0.00
   14    8   16      2.87      0.00
    2   10   16    -38.76      0.00
    4   10   16     12.65      0.00
    6   10   16      4.60      0.00
    8   10   16      5.00      0.00
   10   10   16    -22.59      0.00
   12   10   16      3.42      0.00
   14   10   16      6.48      0.00
    0   12   16     10.05      0.00
    2   12   16     22.03      0.00
    4   12   16    -37.23      0.00
    6   12   16      3.68      0.00
    8   12   16     17.86      0.00
   10   12   16     -4.43      0.00
   12   12   16     -8.22      0.00
   14   12   16     -1.24      0.00
    2   14   16     -0.74      0.00
    4   14   16     -2.39      0.00
    6   14   16     -1.44      0.00
    8   14   16      2.29      0.00
   10   14   16     10.56      0.00
   12   14   16      2.70      0.00
    0   16   16      5.87      0.00
    2   16   16      2.17      0.00
    4   16   16      7.48      0.00
    6   16   16     -6.45      0.00
    8   16   16      1.58      0.00
   10   16   16      4.26      0.00
   12   16   16      3.63      0.00
    2   18   16     -3.14      0.00
    4   18   16      4.20      0.00
    6   18   16      1.86      0.00
    8   18   16     10.03      0.00
   10   18   16     -1.91      0.00
    0   20   16     -8.97      0.00
    2   20   16     -0.33      0.00
    4   20   16      5.35      0.00
    6   20   16     12.59      0.00
    8   20   16    -11.34      0.00
    2   22   16     -6.02      0.00
    4   22   16      2.52      0.00
    6   22   16      0.59      0.00
    1    1   17     33.00      0.00
    3    1   17     16.62      0.00
    5    1   17     35.52      0.00
    7    1   17    -29.45      0.00
    9    1   17      9.44      0.00
   11    1   17      7.35      0.00
   13    1   17      1.32      0.00
   15    1   17      8.48      0.00
    1    3   17     29.55      0.00
    3    3   17     80.69      0.00
    5    3   17     32.29      0.00
    7    3   17    -24.23      0.00
    9    3   17     -1.48      0.00
   11    3   17      4.46      0.00
   13    3   17      8.87      0.00
   15    3   17     -7.23      0.00
    1    5   17    -61.27      0.00
    3    5   17    -69.00      0.00
    5    5   17     16.12      0.00
    7    5   17     12.96      0.00
    9    5   17    -28.48      0.00
   11    5   17    -17.22      0.00
   13    5   17      6.76      0.00
   15    5   17      0.01      0.00
    1    7   17     22.86      0.00
    3    7   17    -41.44      0.00
    5    7   17    -31.88      0.00
    7    7   17     15.30      0.00
    9    7   17      3.68      0.00
   11    7   17     -5.99      0.00
   13    7   17    -13.16      0.00
   15    7   17      5.28      0.00
    1    9   17     30.39      0.00
    3    9   17    -14.24      0.00
    5    9   17      6.34      0.00
    7    9   17    -13.85      0.00
    9    9   17     12.19      0.00
   11    9   17      6.83      0.00
   13    9   17     -4.97      0.00
   15    9   17     -6.77      0.00
    1   11   17     -9.92      0.00
    3   11   17     -5.83      0.00
    5   11   17     19.94      0.00
    7   11   17    -10.65      0.00
    9   11   17      4.99      0.00
   11   11   17     -5.84      0.00
   13   11   17     -0.38      0.00
    1   13   17     -2.86      0.00
    3   13   17     29.69      0.00
    5   13   17    -12.25      0.00
    7   13   17     -6.81      0.00
    9   13   17      0.27      0.00
   11   13   17      0.71      0.00
   13   13   17     -4.32      0.00
    1   15   17    -12.87      0.00
    3   15   17      6.76      0.00
    5   15   17      2.38      0.00
    7   15   17     -2.38      0.00
    9   15   17     -6.92      0.00
   11   15   17     -2.87      0.00
    1   17   17     -1.11      0.00
    3   17   17     -6.62      0.00
    5   17   17      8.33      0.00
    7   17   17     -6.07      0.00
    9   17   17     -6.44      0.00
   11   17   17     -0.17      0.00
    1   19   17      4.98      0.00
    3   19   17     -7.89      0.00
    5   19   17     -7.13      0.00
    7   19   17      2.68      0.00
    9   19   17     11.34      0.00
    1   21   17      1.50      0.00
    3   21   17      3.81      0.00
    5   21   17     -5.28      0.00
    7   21   17      0.62      0.00
    1   23   17      3.27      0.00
    3   23   17     -2.64      0.00
    2    0   18   -103.77      0.00
    6    0   18     30.39      0.00
   10    0   18    -22.70      0.00
   14    0   18      4.70      0.00
    0    2   18      5.45      0.00
    2    2   18    -53.70      0.00
    4    2   18   -108.91      0.00
    6    2   18     32.36      0.00
    8    2   18      9.65      0.00
   10    2   18     -5.38      0.00
   12    2   18    -11.66      0.00
   14    2   18      4.05      0.00
   16    2   18      9.11      0.00
    2    4   18     38.90      0.00
    4    4   18     26.68      0.00
    6    4   18      0.26      0.00
    8    4   18     -0.60      0.00
   10    4   18     25.67      0.00
   12    4   18      0.33      0.00
   14    4   18      2.99      0.00
    0    6   18     33.41      0.00
    2    6   18     22.12      0.00
    4    6   18     -4.54      0.00
    6    6   18      3.44      0.00
    8    6   18     14.00      0.00
   10    6   18      3.97      0.00
   12    6   18      0.59      0.00
   14    6   18      2.38      0.00
    2    8   18     27.66      0.00
    4    8   18      7.02      0.00
    6    8   18    -18.01      0.00
    8    8   18      1.25      0.00
   10    8   18      0.66      0.00
   12    8   18      2.29      0.00
   14    8   18     -5.72      0.00
    0   10   18    -24.39      0.00
    2   10   18     27.28      0.00
    4   10   18     -1.67      0.00
    6   10   18      2.02      0.00
    8   10   18    -16.30      0.00
   10   10   18      2.16      0.00
   12   10   18     11.06      0.00
   14   10   18     -3.55      0.00
    2   12   18    -25.91      0.00
    4   12   18    -15.26      0.00
    6   12   18     25.23      0.00
    8   12   18     -5.07      0.00
   10   12   18     -0.31      0.00
   12   12   18      1.02      0.00
    0   14   18     24.33      0.00
    2   14   18     -9.60      0.00
    4   14   18      0.94      0.00
    6   14   18     -4.01      0.00
    8   14   18      9.40      0.00
   10   14   18     -4.74      0.00
   12   14   18      4.14      0.00
    2   16   18     -8.35      0.00
    4   16   18      4.57      0.00
    6   16   18     -5.38      0.00
    8   16   18      9.96      0.00
   10   16   18      7.62      0.00
    0   18   18     -0.78      0.00
    2   18   18      1.08      0.00
    4   18   18     -2.24      0.00
    6   18   18      6.51      0.00
    8   18   18     -6.87      0.00
   10   18   18     -5.94      0.00
    2   20   18      1.69      0.00
    4   20   18     -2.31      0.00
    6   20   18     -0.22      0.00
    8   20   18      6.98      0.00
    0   22   18     -7.04      0.00
    2   22   18     -1.45      0.00
    4   22   18      5.46      0.00
    6   22   18     -0.49      0.00
    1    1   19     83.55      0.00
    3    1   19     35.47      0.00
    5    1   19     10.13      0.00
    7    1   19     -6.39      0.00
    9    1   19     11.53      0.00
   11    1   19     -2.78      0.00
   13    1   19     -7.32      0.00
   15    1   19     -6.16      0.00
    1    3   19     41.90      0.00
    3    3   19     42.04      0.00
    5    3   19    -77.52      0.00
    7    3   19     -5.07      0.00
    9    3   19      0.37      0.00
   11    3   19     -0.72      0.00
   13    3   19    -10.46      0.00
   15    3   19     -4.39      0.00
    1    5   19    -68.27      0.00
    3    5   19     16.64      0.00
    5    5   19     27.22      0.00
    7    5   19    -15.98      0.00
    9    5   19    -33.97      0.00
   11    5   19     11.49      0.00
   13    5   19      0.26      0.00
   15    5   19     -0.40      0.00
    1    7   19    -29.41      0.00
    3    7   19    -19.69      0.00
    5    7   19     18.24      0.00
    7    7   19     13.47      0.00
    9    7   19     -6.71      0.00
   11    7   19      0.03      0.00
   13    7   19     10.40      0.00
   15    7   19     -0.37      0.00
    1    9   19     -4.63      0.00
    3    9   19    -20.55      0.00
    5    9   19      7.02      0.00
    7    9   19     11.90      0.00
    9    9   19      9.36      0.00
   11    9   19    -10.95      0.00
   13    9   19      2.85      0.00
    1   11   19     -6.33      0.00
    3   11   19     28.08      0.00
    5   11   19     -6.05      0.00
    7   11   19      1.28      0.00
    9   11   19     -2.71      0.00
   11   11   19     -3.00      0.00
   13   11   19      1.52      0.00
    1   13   19      1.52      0.00
    3   13   19     -4.31      0.00
    5   13   19     -8.60      0.00
    7   13   19     12.30      0.00
    9   13   19     -2.73      0.00
   11   13   19      6.83      0.00
   13   13   19     -1.08      0.00
    1   15   19     23.29      0.00
    3   15   19      1.04      0.00
    5   15   19     -2.62      0.00
    7   15   19    -12.27      0.00
    9   15   19      9.10      0.00
   11   15   19    -13.64      0.00
    1   17   19      0.01      0.00
    3   17   19      0.38      0.00
    5   17   19      5.65      0.00
    7   17   19     -9.27      0.00
    9   17   19      0.16      0.00
   11   17   19     10.74      0.00
    1   19   19     -2.46      0.00
    3   19   19     -1.36      0.00
    5   19   19      3.65      0.00
    7   19   19     -3.20      0.00
    9   19   19     -8.11      0.00
    1   21   19      7.79      0.00
    3   21   19     -1.37      0.00
    5   21   19     -2.77      0.00
    7   21   19     -4.95      0.00
    1   23   19     -3.51      0.00
    3   23   19      1.96      0.00
    0    0   20   -209.43      0.00
    4    0   20    -10.67      0.00
    8    0   20    -22.23      0.00
   12    0   20     20.01      0.00
   16    0   20     -6.74      0.00
    2    2   20    -58.02      0.00
    4    2   20     19.44      0.00
    6    2   20     59.59      0.00
    8    2   20     -4.74      0.00
   10    2   20     -5.00      0.00
   12    2   20      5.04      0.00
   14    2   20      9.91      0.00
   16    2   20     -6.50      0.00
    0    4   20     62.20      0.00
    2    4   20     11.81      0.00
    4    4   20      9.35      0.00
    6    4   20    -22.00      0.00
    8    4   20     27.00      0.00
   10    4   20      5.28      0.00
   12    4   20     -4.22      0.00
   14    4   20      1.69      0.00
    2    6   20     -5.35      0.00
    4    6   20    -12.67      0.00
    6    6   20     -2.68      0.00
    8    6   20     10.95      0.00
   10    6   20    -12.85      0.00
   12    6   20     -2.90      0.00
   14    6   20     -2.82      0.00
    0    8   20     44.46      0.00
    2    8   20     16.21      0.00
    4    8   20    -21.06      0.00
    6    8   20    -14.52      0.00
    8    8   20      3.68      0.00
   10    8   20     -2.36      0.00
   12    8   20     -4.69      0.00
   14    8   20     -2.48      0.00
    2   10   20     16.40      0.00
    4   10   20    -20.17      0.00
    6   10   20    -14.49      0.00
    8   10   20      3.82      0.00
   10   10   20     18.62      0.00
   12   10   20     -7.12      0.00
   14   10   20     -2.13      0.00
    0   12   20     -5.36      0.00
    2   12   20     -9.09      0.00
    4   12   20     25.01      0.00
    6   12   20     -8.42      0.00
    8   12   20     -9.16      0.00
   10   12   20     -4.12      0.00
   12   12   20      5.04      0.00
    2   14   20    -12.60      0.00
    4   14   20      1.31      0.00
    6   14   20      3.83      0.00
    8   14   20      6.27      0.00
   10   14   20    -11.93      0.00
   12   14   20     18.88      0.00
    0   16   20    -14.83      0.00
    2   16   20     10.40      0.00
    4   16   20     -3.65      0.00
    6   16   20      5.34      0.00
    8   16   20     -2.71      0.00
   10   16   20      9.09      0.00
    2   18   20     -0.66      0.00
    4   18   20     -2.20      0.00
    6   18   20      6.70      0.00
    8   18   20      4.41      0.00
   10   18   20    -14.02      0.00
    0   20   20     -0.20      0.00
    2   20   20     -4.52      0.00
    4   20   20     -4.77      0.00
    6   20   20      6.93      0.00
    8   20   20      1.77      0.00
    2   22   20      8.96      0.00
    4   22   20     -6.71      0.00
    1    1   21    -66.56      0.00
    3    1   21     17.65      0.00
    5    1   21    -35.39      0.00
    7    1   21      3.26      0.00
    9    1   21     -8.09      0.00
   11    1   21    -12.38      0.00
   13    1   21     -0.48      0.00
   15    1   21      2.02      0.00
    1    3   21      3.97      0.00
    3    3   21    -39.92      0.00
    5    3   21    -28.81      0.00
    7    3   21     18.90      0.00
    9    3   21     -1.16      0.00
   11    3   21     -7.37      0.00
   13    3   21    -10.85      0.00
   15    3   21      7.54      0.00
    1    5   21     47.54      0.00
    3    5   21     26.80      0.00
    5    5   21      2.28      0.00
    7    5   21    -32.99      0.00
    9    5   21     17.21      0.00
   11    5   21     12.73      0.00
   13    5   21     -7.56      0.00
   15    5   21     -5.34      0.00
    1    7   21    -58.89      0.00
    3    7   21     24.49      0.00
    5    7   21     29.37      0.00
    7    7   21    -11.63      0.00
    9    7   21      0.57      0.00
   11    7   21      9.71      0.00
   13    7   21      7.85      0.00
   15    7   21     -3.89      0.00
    1    9   21    -13.36      0.00
    3    9   21      3.24      0.00
    5    9   21     22.09      0.00
    7    9   21      2.97      0.00
    9    9   21    -14.68      0.00
   11    9   21     -5.17      0.00
   13    9   21      7.29      0.00
    1   11   21     -5.23      0.00
    3   11   21      6.75      0.00
    5   11   21     -4.91      0.00
    7   11   21      2.26      0.00
    9   11   21      0.01      0.00
   11   11   21      6.83      0.00
   13   11   21     -7.10      0.00
    1   13   21      6.12      0.00
    3   13   21    -11.15      0.00
    5   13   21     12.39      0.00
    7   13   21     -2.29      0.00
    9   13   21      1.55      0.00
   11   13   21    -15.41      0.00
   13   13   21     -5.80      0.00
    1   15   21     10.93      0.00
    3   15   21     -9.86      0.00
    5   15   21     -5.40      0.00
    7   15   21     -0.51      0.00
    9   15   21      6.64      0.00
   11   15   21    -15.18      0.00
    1   17   21     -5.80      0.00
    3   17   21      8.90      0.00
    5   17   21     -8.71      0.00
    7   17   21     -6.35      0.00
    9   17   21      4.23      0.00
   11   17   21     24.46      0.00
    1   19   21     -0.19      0.00
    3   19   21      6.95      0.00
    5   19   21     -0.86      0.00
    7   19   21     -2.07      0.00
    9   19   21      8.16      0.00
    1   21   21     -3.91      0.00
    3   21   21     -2.00      0.00
    5   21   21      1.87      0.00
    7   21   21     -4.36      0.00
    1   23   21     -7.01      0.00
    3   23   21      5.95      0.00
    2    0   22     85.67      0.00
    6    0   22    -11.23      0.00
   10    0   22     32.73      0.00
   14    0   22     -5.81      0.00
    0    2   22     26.80      0.00
    2    2   22    -16.34      0.00
    4    2   22     73.36      0.00
    6    2   22    -18.12      0.00
    8    2   22    -12.60      0.00
   10    2   22      8.30      0.00
   12    2   22     14.15      0.00
   14    2   22      1.63      0.00
    2    4   22    -40.02      0.00
    4    4   22      1.01      0.00
    6    4   22      6.50      0.00
    8    4   22      0.00      0.00
   10    4   22    -12.26      0.00
   12    4   22      4.94      0.00
   14    4   22      4.05      0.00
    0    6   22     25.90      0.00
    2    6   22     26.77      0.00
    4    6   22    -19.63      0.00
    6    6   22      9.82      0.00
    8    6   22    -10.98      0.00
   10    6   22     -3.60      0.00
   12    6   22      1.47      0.00
   14    6   22     -0.84      0.00
    2    8   22    -38.18      0.00
    4    8   22    -16.14      0.00
    6    8   22     13.60      0.00
    8    8   22      1.99      0.00
   10    8   22     -4.18      0.00
   12    8   22     -1.50      0.00
   14    8   22      4.76      0.00
    0   10   22     36.80      0.00
    2   10   22     -1.46      0.00
    4   10   22    -21.43      0.00
    6   10   22      2.48      0.00
    8   10   22     16.00      0.00
   10   10   22     -5.22      0.00
   12   10   22     -9.12      0.00
   14   10   22      6.66      0.00
    2   12   22      7.87      0.00
    4   12   22      2.14      0.00
    6   12   22    -16.39      0.00
    8   12   22      2.21      0.00
   10   12   22      9.63      0.00
   12   12   22     13.28      0.00
    0   14   22    -19.78      0.00
    2   14   22      4.81      0.00
    4   14   22      1.18      0.00
    6   14   22      6.53      0.00
    8   14   22    -10.18      0.00
   10   14   22     14.82      0.00
   12   14   22      0.03      0.00
    2   16   22      6.72      0.00
    4   16   22      3.45      0.00
    6   16   22      8.02      0.00
    8   16   22     -3.12      0.00
   10   16   22     -2.52      0.00
    0   18   22      3.20      0.00
    2   18   22     -7.08      0.00
    4   18   22      3.89      0.00
    6   18   22     -2.88      0.00
    8   18   22     -4.73      0.00
   10   18   22    -16.96      0.00
    2   20   22     -1.25      0.00
    4   20   22     -0.20      0.00
    6   20   22      2.78      0.00
    8   20   22      6.46      0.00
    0   22   22      9.70      0.00
    2   22   22      0.68      0.00
    4   22   22     -4.49      0.00
    1    1   23    -67.53      0.00
    3    1   23     16.08      0.00
    5    1   23     10.81      0.00
    7    1   23      8.79      0.00
    9    1   23    -21.09      0.00
   11    1   23      1.86      0.00
   13    1   23     -1.99      0.00
   15    1   23      1.80      0.00
    1    3   23     16.44      0.00
    3    3   23    -47.39      0.00
    5    3   23     40.32      0.00
    7    3   23     11.03      0.00
    9    3   23     -6.93      0.00
   11    3   23     -7.31      0.00
   13    3   23      2.87      0.00
   15    3   23      7.10      0.00
    1    5   23     13.08      0.00
    3    5   23    -43.60      0.00
    5    5   23     -8.16      0.00
    7    5   23     15.81      0.00
    9    5   23     14.14      0.00
   11    5   23    -11.12      0.00
   13    5   23     -9.53      0.00
   15    5   23      4.04      0.00
    1    7   23     31.21      0.00
    3    7   23     55.82      0.00
    5    7   23    -25.65      0.00
    7    7   23     -8.83      0.00
    9    7   23      8.27      0.00
   11    7   23      7.18      0.00
   13    7   23     -5.37      0.00
   15    7   23     -2.14      0.00
    1    9   23    -10.97      0.00
    3    9   23     10.76      0.00
    5    9   23      2.73      0.00
    7    9   23     -8.67      0.00
    9    9   23     -6.79      0.00
   11    9   23      8.87      0.00
   13    9   23     -0.16      0.00
    1   11   23      8.98      0.00
    3   11   23      0.75      0.00
    5   11   23      4.20      0.00
    7   11   23      2.82      0.00
    9   11   23      0.30      0.00
   11   11   23     -4.45      0.00
   13   11   23     -3.58      0.00
    1   13   23      1.54      0.00
    3   13   23      5.05      0.00
    5   13   23      4.63      0.00
    7   13   23     -1.44      0.00
    9   13   23     -6.05      0.00
   11   13   23     -5.42      0.00
   13   13   23     13.09      0.00
    1   15   23    -16.93      0.00
    3   15   23     -6.33      0.00
    5   15   23     -2.69      0.00
    7   15   23      4.61      0.00
    9   15   23    -11.77      0.00
   11   15   23      4.59      0.00
    1   17   23      0.64      0.00
    3   17   23     -1.79      0.00
    5   17   23     -2.88      0.00
    7   17   23     11.52      0.00
    9   17   23      6.57      0.00
    1   19   23      4.59      0.00
    3   19   23     -0.66      0.00
    5   19   23      2.15      0.00
    7   19   23    -10.96      0.00
    9   19   23      7.16      0.00
    1   21   23     -5.86      0.00
    3   21   23      0.69      0.00
    5   21   23      3.72      0.00
    1   23   23     -1.05      0.00
    0    0   24    182.49      0.00
    4    0   24    -72.51      0.00
    8    0   24     27.55      0.00
   12    0   24     -9.06      0.00
    2    2   24     15.49      0.00
    4    2   24     -7.78      0.00
    6    2   24    -35.62      0.00
    8    2   24     14.33      0.00
   10    2   24     10.02      0.00
   12    2   24      3.75      0.00
   14    2   24    -11.18      0.00
    0    4   24    -32.28      0.00
    2    4   24     49.91      0.00
    4    4   24     -4.58      0.00
    6    4   24     -1.53      0.00
    8    4   24    -12.07      0.00
   10    4   24      2.07      0.00
   12    4   24      7.94      0.00
   14    4   24     -3.96      0.00
    2    6   24     -8.52      0.00
    4    6   24    -15.15      0.00
    6    6   24      6.11      0.00
    8    6   24     -2.81      0.00
   10    6   24      1.47      0.00
   12    6   24      4.21      0.00
   14    6   24     -2.50      0.00
    0    8   24    -20.33      0.00
    2    8   24    -10.35      0.00
    4    8   24     32.07      0.00
    6    8   24     -2.86      0.00
    8    8   24     -5.82      0.00
   10    8   24     -3.02      0.00
   12    8   24      4.46      0.00
   14    8   24      3.00      0.00
    2   10   24    -20.37      0.00
    4   10   24      3.50      0.00
    6   10   24      8.26      0.00
    8   10   24     -1.23      0.00
   10   10   24    -11.86      0.00
   12   10   24      6.98      0.00
   14   10   24      3.03      0.00
    0   12   24     -1.15      0.00
    2   12   24     -1.60      0.00
    4   12   24    -17.49      0.00
    6   12   24     -1.83      0.00
    8   12   24     12.21      0.00
   10   12   24     -0.23      0.00
   12   12   24     -8.09      0.00
    2   14   24     11.85      0.00
    4   14   24      5.82      0.00
    6   14   24     -7.45      0.00
    8   14   24      8.66      0.00
   10   14   24      9.09      0.00
   12   14   24     -8.02      0.00
    0   16   24     12.36      0.00
    2   16   24     -7.68      0.00
    4   16   24      6.55      0.00
    6   16   24     -5.60      0.00
    8   16   24     -3.75      0.00
   10   16   24     -7.21      0.00
    2   18   24      0.80      0.00
    4   18   24     -3.79      0.00
    6   18   24     -3.09      0.00
    8   18   24      4.54      0.00
   10   18   24     -8.65      0.00
    0   20   24      1.03      0.00
    2   20   24      5.78      0.00
    4   20   24     -1.68      0.00
    6   20   24      3.72      0.00
    8   20   24     -4.86      0.00
    2   22   24     -2.54      0.00
    4   22   24     -4.56      0.00
    1    1   25     67.72      0.00
    3    1   25     38.21      0.00
    5    1   25     -9.24      0.00
    7    1   25    -13.21      0.00
    9    1   25      0.16      0.00
   11    1   25      0.55      0.00
   13    1   25     -2.68      0.00
   15    1   25     -0.13      0.00
    1    3   25    -43.83      0.00
    3    3   25      5.52      0.00
    5    3   25     29.71      0.00
    7    3   25    -16.68      0.00
    9    3   25     -4.03      0.00
   11    3   25      4.06      0.00
   13    3   25     11.46      0.00
   15    3   25     -4.33      0.00
    1    5   25    -48.21      0.00
    3    5   25      7.11      0.00
    5    5   25     10.07      0.00
    7    5   25     19.05      0.00
    9    5   25    -11.62      0.00
   11    5   25    -12.75      0.00
   13    5   25      4.46      0.00
   15    5   25      1.54      0.00
    1    7   25     25.17      0.00
    3    7   25    -24.56      0.00
    5    7   25    -27.29      0.00
    7    7   25     19.15      0.00
    9    7   25      7.04      0.00
   11    7   25    -11.19      0.00
   13    7   25     -2.81      0.00
   15    7   25      3.35      0.00
    1    9   25     16.26      0.00
    3    9   25     -3.48      0.00
    5    9   25     -2.74      0.00
    7    9   25     -6.13      0.00
    9    9   25      9.31      0.00
   11    9   25      0.91      0.00
   13    9   25     -8.36      0.00
    1   11   25     10.70      0.00
    3   11   25      1.67      0.00
    5   11   25      6.17      0.00
    7   11   25     -2.41      0.00
    9   11   25      0.59      0.00
   11   11   25      0.83      0.00
   13   11   25      3.14      0.00
    1   13   25     -4.92      0.00
    3   13   25     -3.51      0.00
    5   13   25     -9.11      0.00
    7   13   25     -7.30      0.00
    9   13   25      1.87      0.00
   11   13   25     -4.13      0.00
   13   13   25      0.75      0.00
    1   15   25    -10.05      0.00
    3   15   25      6.01      0.00
    5   15   25      8.34      0.00
    7   15   25     -7.46      0.00
    9   15   25     -4.10      0.00
   11   15   25     12.34      0.00
    1   17   25      4.07      0.00
    3   17   25     -9.81      0.00
    5   17   25     15.40      0.00
    7   17   25     -0.19      0.00
    9   17   25      1.79      0.00
    1   19   25      0.72      0.00
    3   19   25     -4.91      0.00
    5   19   25     -4.21      0.00
    7   19   25      1.76      0.00
    9   19   25      1.66      0.00
    1   21   25      1.29      0.00
    3   21   25      6.21      0.00
    5   21   25      0.77      0.00
    1   23   25     -7.38      0.00
    2    0   26    -99.64      0.00
    6    0   26     32.76      0.00
   10    0   26     -9.56      0.00
   14    0   26     17.00      0.00
    0    2   26     24.14      0.00
    2    2   26     27.76      0.00
    4    2   26    -25.97      0.00
    6    2   26     -1.34      0.00
    8    2   26     17.99      0.00
   10    2   26     -1.02      0.00
   12    2   26    -10.77      0.00
   14    2   26     -1.03      0.00
    2    4   26     19.10      0.00
    4    4   26    -15.59      0.00
    6    4   26     -3.87      0.00
    8    4   26     -5.42      0.00
   10    4   26     10.15      0.00
   12    4   26     -3.03      0.00
   14    4   26      1.90      0.00
    0    6   26     12.52      0.00
    2    6   26     -9.02      0.00
    4    6   26     26.54      0.00
    6    6   26    -12.10      0.00
    8    6   26      1.88      0.00
   10    6   26      7.24      0.00
   12    6   26      1.00      0.00
   14    6   26     -0.64      0.00
    2    8   26     23.38      0.00
    4    8   26      8.32      0.00
    6    8   26    -21.52      0.00
    8    8   26      0.60      0.00
   10    8   26      7.17      0.00
   12    8   26     -0.60      0.00
   14    8   26     -2.30      0.00
    0   10   26    -37.95      0.00
    2   10   26     -1.13      0.00
    4   10   26      9.27      0.00
    6   10   26      0.85      0.00
    8   10   26    -13.39      0.00
   10   10   26      1.30      0.00
   12   10   26      8.18      0.00
   14   10   26     -2.77      0.00
    2   12   26     -2.04      0.00
    4   12   26      6.08      0.00
    6   12   26     16.30      0.00
    8   12   26     -2.64      0.00
   10   12   26     -4.18      0.00
   12   12   26      3.80      0.00
    0   14   26     17.58      0.00
    2   14   26      0.02      0.00
    4   14   26     -6.27      0.00
    6   14   26     -1.64      0.00
    8   14   26      7.99      0.00
   10   14   26      5.51      0.00
   12   14   26    -16.04      0.00
    2   16   26     -0.58      0.00
    4   16   26     -3.56      0.00
    6   16   26     -1.47      0.00
    8   16   26      0.43      0.00
   10   16   26     -7.49      0.00
    0   18   26     -1.70      0.00
    2   18   26      7.37      0.00
    4   18   26     -6.16      0.00
    6   18   26      7.55      0.00
    8   18   26     -2.11      0.00
    2   20   26      4.02      0.00
    4   20   26     -5.42      0.00
    6   20   26     -3.87      0.00
    0   22   26     -0.11      0.00
    2   22   26      4.51      0.00
    4   22   26      0.63      0.00
    1    1   27     11.62      0.00
    3    1   27    -27.18      0.00
    5    1   27     -7.79      0.00
    7    1   27      2.95      0.00
    9    1   27      3.31      0.00
   11    1   27      4.25      0.00
   13    1   27    -11.03      0.00
   15    1   27      1.60      0.00
    1    3   27      0.89      0.00
    3    3   27     32.57      0.00
    5    3   27     -8.64      0.00
    7    3   27    -12.19      0.00
    9    3   27      8.51      0.00
   11    3   27      8.46      0.00
   13    3   27     -5.74      0.00
   15    3   27     -8.34      0.00
    1    5   27    -33.20      0.00
    3    5   27     16.15      0.00
    5    5   27      8.79      0.00
    7    5   27     -3.32      0.00
    9    5   27    -17.96      0.00
   11    5   27      7.76      0.00
   13    5   27     -1.89      0.00
   15    5   27     -4.13      0.00
    1    7   27    -21.93      0.00
    3    7   27    -41.45      0.00
    5    7   27     31.76      0.00
    7    7   27      9.65      0.00
    9    7   27    -11.49      0.00
   11    7   27     -4.23      0.00
   13    7   27      9.96      0.00
    1    9   27     21.12      0.00
    3    9   27     -5.31      0.00
    5    9   27     -1.18      0.00
    7    9   27      6.76      0.00
    9    9   27      3.56      0.00
   11    9   27     -5.78      0.00
   13    9   27     -2.43      0.00
    1   11   27    -14.14      0.00
    3   11   27     -9.08      0.00
    5   11   27     -6.38      0.00
    7   11   27      2.91      0.00
    9   11   27      3.93      0.00
   11   11   27     -5.02      0.00
   13   11   27      2.90      0.00
    1   13   27     -1.64      0.00
    3   13   27      1.00      0.00
    5   13   27     -3.84      0.00
    7   13   27      5.81      0.00
    9   13   27     -4.48      0.00
   11   13   27      2.05      0.00
    1   15   27     12.27      0.00
    3   15   27      3.78      0.00
    5   15   27     -3.17      0.00
    7   15   27     -4.49      0.00
    9   15   27      4.64      0.00
   11   15   27     14.70      0.00
    1   17   27     -4.59      0.00
    3   17   27      1.79      0.00
    5   17   27     -0.49      0.00
    7   17   27     -6.44      0.00
    9   17   27     -1.48      0.00
    1   19   27     -8.16      0.00
    3   19   27      5.95      0.00
    5   19   27      2.35      0.00
    7   19   27      1.78      0.00
    1   21   27     -1.50      0.00
    3   21   27      2.46      0.00
    5   21   27      3.39      0.00
    0    0   28    -44.61      0.00
    4    0   28     43.90      0.00
    8    0   28    -20.05      0.00
   12    0   28     14.11      0.00
    2    2   28    -34.60      0.00
    4    2   28     -4.45      0.00
    6    2   28     19.93      0.00
    8    2   28     -5.06      0.00
   10    2   28    -17.19      0.00
   12    2   28      8.81      0.00
   14    2   28      6.46      0.00
    0    4   28     44.34      0.00
    2    4   28     -9.05      0.00
    4    4   28     -5.32      0.00
    6    4   28      7.31      0.00
    8    4   28      9.15      0.00
   10    4   28     -2.90      0.00
   12    4   28     -0.04      0.00
   14    4   28     11.81      0.00
    2    6   28      9.39      0.00
    4    6   28      0.47      0.00
    6    6   28    -10.34      0.00
    8    6   28      6.58      0.00
   10    6   28     -2.23      0.00
   12    6   28      2.60      0.00
   14    6   28     -3.56      0.00
    0    8   28      7.47      0.00
    2    8   28     -2.11      0.00
    4    8   28    -30.53      0.00
    6    8   28      2.38      0.00
    8    8   28      5.65      0.00
   10    8   28      2.34      0.00
   12    8   28     -5.95      0.00
   14    8   28      3.14      0.00
    2   10   28     32.86      0.00
    4   10   28      9.89      0.00
    6   10   28    -12.96      0.00
    8   10   28     -1.92      0.00
   10   10   28      8.25      0.00
   12   10   28     -0.82      0.00
    0   12   28      4.52      0.00
    2   12   28     -5.12      0.00
    4   12   28      6.17      0.00
    6   12   28     -7.87      0.00
    8   12   28    -10.35      0.00
   10   12   28      7.27      0.00
   12   12   28     -2.40      0.00
    2   14   28     -8.91      0.00
    4   14   28      5.95      0.00
    6   14   28      2.80      0.00
    8   14   28     -1.51      0.00
   10   14   28    -11.87      0.00
   12   14   28      3.44      0.00
    0   16   28     -4.88      0.00
    2   16   28      4.67      0.00
    4   16   28      0.68      0.00
    6   16   28      3.31      0.00
    8   16   28      5.77      0.00
   10   16   28     -8.23      0.00
    2   18   28     -4.55      0.00
    4   18   28     -3.04      0.00
    6   18   28      2.10      0.00
    8   18   28     -0.75      0.00
    0   20   28     10.86      0.00
    2   20   28     -7.76      0.00
    4   20   28     -1.31      0.00
    6   20   28     -5.95      0.00
    2   22   28     -0.79      0.00
    4   22   28     -1.31      0.00
    1    1   29    -11.21      0.00
    3    1   29    -17.42      0.00
    5    1   29      1.26      0.00
    7    1   29     14.76      0.00
    9    1   29      2.55      0.00
   11    1   29     -6.44      0.00
   13    1   29     -0.82      0.00
   15    1   29     -1.31      0.00
    1    3   29     22.29      0.00
    3    3   29    -21.47      0.00
    5    3   29    -26.97      0.00
    7    3   29      3.85      0.00
    9    3   29      8.62      0.00
   11    3   29    -11.99      0.00
   13    3   29     -9.75      0.00
   15    3   29     -3.06      0.00
    1    5   29     35.55      0.00
    3    5   29      5.82      0.00
    5    5   29    -14.96      0.00
    7    5   29     -4.20      0.00
    9    5   29     12.46      0.00
   11    5   29      4.66      0.00
   13    5   29     -8.39      0.00
   15    5   29      0.53      0.00
    1    7   29    -14.00      0.00
    3    7   29     29.35      0.00
    5    7   29     21.51      0.00
    7    7   29    -12.41      0.00
    9    7   29     -8.50      0.00
   11    7   29      5.10      0.00
   13    7   29      6.85      0.00
    1    9   29    -16.22      0.00
    3    9   29    -14.59      0.00
    5    9   29     -3.57      0.00
    7    9   29     10.60      0.00
    9    9   29     -5.98      0.00
   11    9   29     -3.11      0.00
   13    9   29      3.51      0.00
    1   11   29    -11.93      0.00
    3   11   29      8.26      0.00
    5   11   29      8.94      0.00
    7   11   29      8.17      0.00
    9   11   29     -1.16      0.00
   11   11   29     -3.28      0.00
   13   11   29      4.20      0.00
    1   13   29      5.48      0.00
    3   13   29     -4.20      0.00
    5   13   29      3.69      0.00
    7   13   29      0.99      0.00
    9   13   29      0.36      0.00
   11   13   29     -1.74      0.00
    1   15   29      4.10      0.00
    3   15   29    -11.09      0.00
    5   15   29     -3.15      0.00
    7   15   29      0.40      0.00
    9   15   29      2.25      0.00
   11   15   29     -8.78      0.00
    1   17   29      3.43      0.00
    3   17   29      6.82      0.00
    5   17   29     -2.39      0.00
    7   17   29     -4.58      0.00
    9   17   29      9.93      0.00
    1   19   29     -1.89      0.00
    3   19   29      2.39      0.00
    5   19   29      4.84      0.00
    7   19   29      5.28      0.00
    1   21   29     10.43      0.00
    3   21   29     -4.83      0.00
    5   21   29      1.82      0.00
    2    0   30     65.68      0.00
    6    0   30    -28.85      0.00
   10    0   30     13.44      0.00
   14    0   30     -5.61      0.00
    0    2   30    -33.08      0.00
    2    2   30      4.84      0.00
    4    2   30     36.48      0.00
    6    2   30     -1.57      0.00
    8    2   30    -10.19      0.00
   10    2   30      5.89      0.00
   12    2   30     13.20      0.00
   14    2   30      7.10      0.00
    2    4   30     -3.71      0.00
    4    4   30     15.92      0.00
    6    4   30      0.76      0.00
    8    4   30    -12.98      0.00
   10    4   30     -4.48      0.00
   12    4   30      2.40      0.00
   14    4   30      3.90      0.00
    0    6   30    -16.43      0.00
    2    6   30      0.10      0.00
    4    6   30    -14.72      0.00
    6    6   30     -5.09      0.00
    8    6   30      0.32      0.00
   10    6   30      2.60      0.00
   12    6   30      3.97      0.00
   14    6   30     -0.06      0.00
    2    8   30    -10.66      0.00
    4    8   30      7.96      0.00
    6    8   30     12.30      0.00
    8    8   30     -1.32      0.00
   10    8   30     -7.86      0.00
   12    8   30     -2.13      0.00
   14    8   30      2.89      0.00
    0   10   30     24.76      0.00
    2   10   30     -1.29      0.00
    4   10   30    -15.70      0.00
    6   10   30    -12.10      0.00
    8   10   30     10.87      0.00
   10   10   30      2.38      0.00
   12   10   30     -7.16      0.00
    2   12   30      1.54      0.00
    4   12   30      2.14      0.00
    6   12   30    -10.71      0.00
    8   12   30     -0.40      0.00
   10   12   30      7.63      0.00
   12   12   30     -1.33      0.00
    0   14   30     -3.76      0.00
    2   14   30      6.50      0.00
    4   14   30      7.26      0.00
    6   14   30      4.18      0.00
    8   14   30     -3.88      0.00
   10   14   30     12.62      0.00
   12   14   30      5.65      0.00
    2   16   30     -5.03      0.00
    4   16   30     -7.25      0.00
    6   16   30      4.58      0.00
    8   16   30     -3.84      0.00
   10   16   30     -0.71      0.00
    0   18   30     -5.46      0.00
    2   18   30     -1.07      0.00
    4   18   30      3.02      0.00
    6   18   30     -1.23      0.00
    8   18   30     -7.68      0.00
    2   20   30     -5.37      0.00
    4   20   30      0.57      0.00
    6   20   30      1.42      0.00
    0   22   30     -4.13      0.00
    2   22   30      8.68      0.00
    1    1   31    -24.30      0.00
    3    1   31     12.56      0.00
    5    1   31      7.38      0.00
    7    1   31     -8.59      0.00
    9    1   31    -10.11      0.00
   11    1   31     -1.23      0.00
   13    1   31     -2.66      0.00
   15    1   31     -1.70      0.00
    1    3   31    -20.31      0.00
    3    3   31    -34.90      0.00
    5    3   31     10.30      0.00
    7    3   31     18.75      0.00
    9    3   31     -0.38      0.00
   11    3   31     -8.85      0.00
   13    3   31      1.83      0.00
   15    3   31      8.34      0.00
    1    5   31     22.15      0.00
    3    5   31     -9.71      0.00
    5    5   31     -2.75      0.00
    7    5   31     18.06      0.00
    9    5   31      7.29      0.00
   11    5   31    -10.12      0.00
   13    5   31     -9.75      0.00
    1    7   31      9.60      0.00
    3    7   31     14.88      0.00
    5    7   31    -20.08      0.00
    7    7   31     -9.55      0.00
    9    7   31     11.01      0.00
   11    7   31      5.75      0.00
   13    7   31     -0.83      0.00
    1    9   31    -11.06      0.00
    3    9   31     11.02      0.00
    5    9   31     12.67      0.00
    7    9   31      0.14      0.00
    9    9   31     -6.44      0.00
   11    9   31      0.07      0.00
   13    9   31      0.15      0.00
    1   11   31      4.93      0.00
    3   11   31     -0.03      0.00
    5   11   31      3.37      0.00
    7   11   31     -3.01      0.00
    9   11   31      2.73      0.00
   11   11   31      2.28      0.00
   13   11   31      2.84      0.00
    1   13   31     -4.96      0.00
    3   13   31     -4.98      0.00
    5   13   31      2.79      0.00
    7   13   31     -6.41      0.00
    9   13   31    -11.78      0.00
   11   13   31     -6.14      0.00
    1   15   31     -2.38      0.00
    3   15   31      3.03      0.00
    5   15   31      3.03      0.00
    7   15   31      7.31      0.00
    9   15   31     -4.75      0.00
   11   15   31      4.64      0.00
    1   17   31     12.10      0.00
    3   17   31     -4.34      0.00
    5   17   31     -7.73      0.00
    7   17   31      8.00      0.00
    9   17   31      5.74      0.00
    1   19   31      5.22      0.00
    3   19   31      1.76      0.00
    5   19   31     -3.43      0.00
    7   19   31     -3.02      0.00
    1   21   31     -2.16      0.00
    3   21   31     -1.09      0.00
    5   21   31      6.76      0.00
    0    0   32     52.95      0.00
    4    0   32    -31.27      0.00
    8    0   32     26.68      0.00
   12    0   32     -9.09      0.00
    2    2   32     28.38      0.00
    4    2   32     12.75      0.00
    6    2   32    -19.38      0.00
    8    2   32     -7.15      0.00
   10    2   32      6.95      0.00
   12    2   32      2.38      0.00
   14    2   32     -8.61      0.00
    0    4   32    -21.38      0.00
    2    4   32      5.92      0.00
    4    4   32     -0.03      0.00
    6    4   32    -14.26      0.00
    8    4   32    -10.38      0.00
   10    4   32      8.01      0.00
   12    4   32      8.37      0.00
   14    4   32     -4.44      0.00
    2    6   32     -2.50      0.00
    4    6   32      9.34      0.00
    6    6   32      3.15      0.00
    8    6   32     -4.22      0.00
   10    6   32      0.14      0.00
   12    6   32      2.05      0.00
   14    6   32     -4.21      0.00
    0    8   32     -6.78      0.00
    2    8   32     -6.18      0.00
    4    8   32     10.00      0.00
    6    8   32     -5.45      0.00
    8    8   32     -8.92      0.00
   10    8   32      3.71      0.00
   12    8   32      5.28      0.00
   14    8   32      9.64      0.00
    2   10   32    -17.52      0.00
    4   10   32     -1.06      0.00
    6   10   32     10.70      0.00
    8   10   32      3.04      0.00
   10   10   32    -10.30      0.00
   12   10   32     -5.64      0.00
    0   12   32     12.99      0.00
    2   12   32      4.60      0.00
    4   12   32     -8.70      0.00
    6   12   32      4.10      0.00
    8   12   32     10.33      0.00
   10   12   32      7.46      0.00
   12   12   32     -1.37      0.00
    2   14   32      2.58      0.00
    4   14   32     -4.39      0.00
    6   14   32     -2.32      0.00
    8   14   32     -1.17      0.00
   10   14   32      4.81      0.00
    0   16   32    -13.37      0.00
    2   16   32     -6.33      0.00
    4   16   32      9.09      0.00
    6   16   32     -7.66      0.00
    8   16   32     -1.90      0.00
   10   16   32     -8.46      0.00
    2   18   32      5.47      0.00
    4   18   32     -2.64      0.00
    6   18   32      2.20      0.00
    8   18   32      2.79      0.00
    0   20   32     -4.18      0.00
    2   20   32      4.33      0.00
    4   20   32      0.41      0.00
    6   20   32     -6.84      0.00
    2   22   32     -5.37      0.00
    1    1   33      4.02      0.00
    3    1   33      0.55      0.00
    5    1   33     -2.90      0.00
    7    1   33     -5.45      0.00
    9    1   33      7.53      0.00
   11    1   33      8.66      0.00
   13    1   33      0.41      0.00
   15    1   33     -8.80      0.00
    1    3   33    -14.37      0.00
    3    3   33      4.54      0.00
    5    3   33     26.61      0.00
    7    3   33      4.21      0.00
    9    3   33    -10.23      0.00
   11    3   33     -3.21      0.00
   13    3   33      8.02      0.00
   15    3   33     -5.38      0.00
    1    5   33    -27.91      0.00
    3    5   33    -16.97      0.00
    5    5   33      8.74      0.00
    7    5   33     10.13      0.00
    9    5   33     -7.79      0.00
   11    5   33     -6.35      0.00
   13    5   33     10.08      0.00
    1    7   33     19.28      0.00
    3    7   33    -16.13      0.00
    5    7   33     -8.37      0.00
    7    7   33     17.66      0.00
    9    7   33      1.61      0.00
   11    7   33    -11.85      0.00
   13    7   33     -5.82      0.00
    1    9   33      9.77      0.00
    3    9   33      5.86      0.00
    5    9   33     -5.32      0.00
    7    9   33     -8.06      0.00
    9    9   33      7.10      0.00
   11    9   33      6.96      0.00
   13    9   33     -1.85      0.00
    1   11   33     -0.87      0.00
    3   11   33     -5.08      0.00
    5   11   33     -1.54      0.00
    7   11   33     -7.53      0.00
    9   11   33     -0.21      0.00
   11   11   33      3.76      0.00
   13   11   33     -4.85      0.00
    1   13   33      4.21      0.00
    3   13   33      5.76      0.00
    5   13   33     -2.54      0.00
    7   13   33     -0.69      0.00
    9   13   33     -1.62      0.00
   11   13   33      4.17      0.00
    1   15   33      3.87      0.00
    3   15   33      5.34      0.00
    5   15   33      0.56      0.00
    7   15   33      1.78      0.00
    9   15   33     -2.80      0.00
   11   15   33     12.43      0.00
    1   17   33     -5.22      0.00
    3   17   33     -6.84      0.00
    5   17   33     12.37      0.00
    7   17   33    -10.77      0.00
    9   17   33     -0.96      0.00
    1   19   33     -0.94      0.00
    3   19   33     -2.49      0.00
    5   19   33     -4.88      0.00
    7   19   33      7.89      0.00
    1   21   33     -0.61      0.00
    3   21   33      5.40      0.00
    2    0   34    -19.31      0.00
    6    0   34     13.69      0.00
   10    0   34    -21.62      0.00
   14    0   34     11.99      0.00
    0    2   34     39.98      0.00
    2    2   34     -0.43      0.00
    4    2   34    -27.20      0.00
    6    2   34     -0.71      0.00
    8    2   34      7.68      0.00
   10    2   34     -0.58      0.00
   12    2   34     -5.72      0.00
   14    2   34      3.45      0.00
    2    4   34     25.89      0.00
    4    4   34     -9.78      0.00
    6    4   34     -8.00      0.00
    8    4   34      5.70      0.00
   10    4   34      4.76      0.00
   12    4   34    -11.78      0.00
   14    4   34     -1.29      0.00
    0    6   34      9.07      0.00
    2    6   34     -3.82      0.00
    4    6   34     -0.35      0.00
    6    6   34     -9.46      0.00
    8    6   34     -1.51      0.00
   10    6   34      5.60      0.00
   12    6   34      2.70      0.00
   14    6   34      9.62      0.00
    2    8   34     17.35      0.00
    4    8   34     -1.51      0.00
    6    8   34     -9.00      0.00
    8    8   34      3.24      0.00
   10    8   34     -0.83      0.00
   12    8   34      0.13      0.00
   14    8   34     -1.71      0.00
    0   10   34     -8.23      0.00
    2   10   34      1.27      0.00
    4   10   34     15.62      0.00
    6   10   34      4.12      0.00
    8   10   34    -10.15      0.00
   10   10   34      0.60      0.00
   12   10   34      4.82      0.00
    2   12   34     -5.80      0.00
    4   12   34     -4.34      0.00
    6   12   34     10.80      0.00
    8   12   34     -5.47      0.00
   10   12   34     -9.65      0.00
   12   12   34      1.78      0.00
    0   14   34     -3.89      0.00
    2   14   34     -5.02      0.00
    4   14   34     -1.90      0.00
    6   14   34      2.84      0.00
    8   14   34      7.70      0.00
   10   14   34    -11.66      0.00
    2   16   34      3.01      0.00
    4   16   34      0.78      0.00
    6   16   34     -2.20      0.00
    8   16   34      8.06      0.00
   10   16   34     -3.84      0.00
    0   18   34      6.09      0.00
    2   18   34      3.56      0.00
    4   18   34     -3.03      0.00
    6   18   34     10.97      0.00
    8   18   34     -6.50      0.00
    2   20   34      4.14      0.00
    4   20   34     -6.91      0.00
    6   20   34     -9.59      0.00
    0   22   34     -0.06      0.00
    1    1   35     -2.59      0.00
    3    1   35      4.37      0.00
    5    1   35     -6.97      0.00
    7    1   35     -3.91      0.00
    9    1   35     11.81      0.00
   11    1   35     -2.80      0.00
   13    1   35     -4.90      0.00
    1    3   35     17.97      0.00
    3    3   35     12.63      0.00
    5    3   35     -7.22      0.00
    7    3   35     -4.87      0.00
    9    3   35      5.06      0.00
   11    3   35     10.56      0.00
   13    3   35     -0.47      0.00
    1    5   35    -28.49      0.00
    3    5   35     30.25      0.00
    5    5   35     12.29      0.00
    7    5   35     -7.44      0.00
    9    5   35     -6.96      0.00
   11    5   35      8.46      0.00
   13    5   35     -9.01      0.00
    1    7   35     -8.61      0.00
    3    7   35    -12.63      0.00
    5    7   35     12.52      0.00
    7    7   35      5.49      0.00
    9    7   35     -4.41      0.00
   11    7   35     -5.82      0.00
   13    7   35      1.98      0.00
    1    9   35      0.66      0.00
    3    9   35     -5.76      0.00
    5    9   35     -8.92      0.00
    7    9   35      3.40      0.00
    9    9   35      7.16      0.00
   11    9   35     -7.97      0.00
   13    9   35      0.20      0.00
    1   11   35     -1.63      0.00
    3   11   35     -5.84      0.00
    5   11   35      1.12      0.00
    7   11   35      3.50      0.00
    9   11   35      5.08      0.00
   11   11   35      4.97      0.00
    1   13   35      4.32      0.00
    3   13   35      1.28      0.00
    5   13   35     -6.75      0.00
    7   13   35      1.46      0.00
    9   13   35      8.20      0.00
   11   13   35      4.20      0.00
    1   15   35      2.77      0.00
    3   15   35      0.46      0.00
    5   15   35     -4.37      0.00
    7   15   35     -5.48      0.00
    9   15   35      9.80      0.00
    1   17   35     -4.55      0.00
    3   17   35     -0.14      0.00
    5   17   35     -2.10      0.00
    7   17   35     -6.23      0.00
    9   17   35      3.56      0.00
    1   19   35     -3.40      0.00
    3   19   35     -1.42      0.00
    5   19   35      2.86      0.00
    7   19   35      9.82      0.00
    1   21   35     -5.50      0.00
    3   21   35      9.66      0.00
    0    0   36    -16.78      0.00
    4    0   36     21.97      0.00
    8    0   36    -12.08      0.00
   12    0   36      9.14      0.00
    2    2   36    -32.96      0.00
    4    2   36      6.40      0.00
    6    2   36     17.60      0.00
    8    2   36    -12.21      0.00
   10    2   36     -9.19      0.00
   12    2   36      0.32      0.00
   14    2   36      5.08      0.00
    0    4   36     13.86      0.00
    2    4   36     -1.24      0.00
    4    4   36    -11.92      0.00
    6    4   36      1.47      0.00
    8    4   36      4.02      0.00
   10    4   36     -5.57      0.00
   12    4   36      1.15      0.00
   14    4   36     13.24      0.00
    2    6   36    -12.97      0.00
    4    6   36      4.99      0.00
    6    6   36     -0.61      0.00
    8    6   36     -2.02      0.00
   10    6   36     -3.83      0.00
   12    6   36      8.21      0.00
   14    6   36     -3.95      0.00
    0    8   36      9.91      0.00
    2    8   36      5.57      0.00
    4    8   36     -6.69      0.00
    6    8   36     -0.57      0.00
    8    8   36      4.62      0.00
   10    8   36      6.00      0.00
   12    8   36     -5.93      0.00
    2   10   36     13.15      0.00
    4   10   36      3.83      0.00
    6   10   36    -10.04      0.00
    8   10   36     -5.89      0.00
   10   10   36      6.99      0.00
   12   10   36     -8.06      0.00
    0   12   36     -8.85      0.00
    2   12   36      1.42      0.00
    4   12   36      3.97      0.00
    6   12   36      0.13      0.00
    8   12   36     -8.21      0.00
   10   12   36     -8.01      0.00
   12   12   36      5.44      0.00
    2   14   36     -2.33      0.00
    4   14   36      2.93      0.00
    6   14   36      4.68      0.00
    8   14   36     -8.93      0.00
   10   14   36     -1.02      0.00
    0   16   36      3.34      0.00
    2   16   36      0.41      0.00
    4   16   36      3.11      0.00
    6   16   36      3.09      0.00
    8   16   36     -2.69      0.00
   10   16   36     -1.65      0.00
    2   18   36      0.70      0.00
    4   18   36     -3.27      0.00
    6   18   36     -2.87      0.00
    8   18   36      0.68      0.00
    0   20   36     11.63      0.00
    2   20   36      1.73      0.00
    4   20   36     -5.95      0.00
    1    1   37      4.73      0.00
    3    1   37     -9.03      0.00
    5    1   37     -0.05      0.00
    7    1   37      9.25      0.00
    9    1   37      5.97      0.00
   11    1   37     -2.64      0.00
   13    1   37     -4.63      0.00
    1    3   37     15.67      0.00
    3    3   37    -13.49      0.00
    5    3   37    -12.97      0.00
    7    3   37     13.15      0.00
    9    3   37      3.96      0.00
   11    3   37     -3.33      0.00
   13    3   37    -11.36      0.00
    1    5   37     15.79      0.00
    3    5   37     16.95      0.00
    5    5   37    -11.97      0.00
    7    5   37     -9.52      0.00
    9    5   37     11.21      0.00
   11    5   37      4.22      0.00
   13    5   37     -5.42      0.00
    1    7   37     -8.05      0.00
    3    7   37      1.21      0.00
    5    7   37      9.49      0.00
    7    7   37     -4.97      0.00
    9    7   37     -8.29      0.00
   11    7   37      0.76      0.00
   13    7   37      9.99      0.00
    1    9   37    -12.63      0.00
    3    9   37     -7.23      0.00
    5    9   37      5.69      0.00
    7    9   37      6.09      0.00
    9    9   37     -3.90      0.00
   11    9   37      4.24      0.00
   13    9   37      2.22      0.00
    1   11   37      0.72      0.00
    3   11   37      0.78      0.00
    5   11   37      3.14      0.00
    7   11   37      3.05      0.00
    9   11   37     -0.49      0.00
   11   11   37      4.51      0.00
    1   13   37     -5.23      0.00
    3   13   37     -0.50      0.00
    5   13   37     -1.10      0.00
    7   13   37      4.75      0.00
    9   13   37      3.36      0.00
   11   13   37    -14.66      0.00
    1   15   37      2.03      0.00
    3   15   37     -6.68      0.00
    5   15   37     -5.60      0.00
    7   15   37      4.92      0.00
    9   15   37     -4.99      0.00
    1   17   37      7.38      0.00
    3   17   37      3.25      0.00
    5   17   37      6.20      0.00
    7   17   37     -2.27      0.00
    9   17   37     -4.29      0.00
    1   19   37    -12.01      0.00
    3   19   37      5.81      0.00
    5   19   37      1.56      0.00
    7   19   37      4.35      0.00
    1   21   37      2.87      0.00
    3   21   37     -0.30      0.00
    2    0   38     19.89      0.00
    6    0   38    -19.51      0.00
   10    0   38      4.55      0.00
   14    0   38     -0.33      0.00
    0    2   38    -29.14      0.00
    2    2   38      8.20      0.00
    4    2   38     17.20      0.00
    6    2   38     -2.72      0.00
    8    2   38    -11.54      0.00
   10    2   38      1.76      0.00
   12    2   38     11.24      0.00
   14    2   38      0.76      0.00
    2    4   38    -11.01      0.00
    4    4   38      3.63      0.00
    6    4   38      4.53      0.00
    8    4   38     -0.99      0.00
   10    4   38     -9.71      0.00
   12    4   38      5.54      0.00
   14    4   38     -1.27      0.00
    0    6   38     -1.45      0.00
    2    6   38     -5.78      0.00
    4    6   38      5.44      0.00
    6    6   38      5.31      0.00
    8    6   38     -2.22      0.00
   10    6   38      0.15      0.00
   12    6   38      0.34      0.00
   14    6   38      0.80      0.00
    2    8   38      1.39      0.00
    4    8   38     -2.41      0.00
    6    8   38      3.62      0.00
    8    8   38      3.39      0.00
   10    8   38     -5.31      0.00
   12    8   38    -11.00      0.00
    0   10   38     13.35      0.00
    2   10   38     -4.18      0.00
    4   10   38    -10.04      0.00
    6   10   38     -3.92      0.00
    8   10   38      8.47      0.00
   10   10   38     -2.84      0.00
   12   10   38     -3.30      0.00
    2   12   38      9.29      0.00
    4   12   38      0.56      0.00
    6   12   38     -8.00      0.00
    8   12   38     -1.33      0.00
   10   12   38     10.06      0.00
   12   12   38      6.92      0.00
    0   14   38      3.09      0.00
    2   14   38     -1.79      0.00
    4   14   38     10.43      0.00
    6   14   38      1.56      0.00
    8   14   38     -1.21      0.00
   10   14   38     11.67      0.00
    2   16   38     -5.91      0.00
    4   16   38     -9.11      0.00
    6   16   38      0.09      0.00
    8   16   38      4.79      0.00
    0   18   38     -1.87      0.00
    2   18   38      7.83      0.00
    4   18   38     -0.80      0.00
    6   18   38      4.02      0.00
    2   20   38     -7.89      0.00
    4   20   38      4.15      0.00
    1    1   39     -6.38      0.00
    3    1   39     -3.21      0.00
    5    1   39      6.74      0.00
    7    1   39     -2.41      0.00
    9    1   39     -3.76      0.00
   11    1   39      0.98      0.00
   13    1   39     -0.25      0.00
    1    3   39    -13.76      0.00
    3    3   39     -7.41      0.00
    5    3   39     -0.40      0.00
    7    3   39     11.12      0.00
    9    3   39      0.85      0.00
   11    3   39     -7.98      0.00
   13    3   39      4.39      0.00
    1    5   39     22.26      0.00
    3    5   39    -15.11      0.00
    5    5   39    -14.80      0.00
    7    5   39      5.68      0.00
    9    5   39     11.22      0.00
   11    5   39     -8.93      0.00
   13    5   39     -5.06      0.00
    1    7   39      7.85      0.00
    3    7   39      1.57      0.00
    5    7   39     -9.03      0.00
    7    7   39     -4.71      0.00
    9    7   39      7.35      0.00
   11    7   39      5.31      0.00
   13    7   39      0.30      0.00
    1    9   39     -6.70      0.00
    3    9   39     10.13      0.00
    5    9   39      7.54      0.00
    7    9   39     -7.47      0.00
    9    9   39     -1.53      0.00
   11    9   39      6.94      0.00
   13    9   39     -1.30      0.00
    1   11   39      3.25      0.00
    3   11   39     -4.60      0.00
    5   11   39      4.47      0.00
    7   11   39      0.41      0.00
    9   11   39     -5.73      0.00
   11   11   39     -4.49      0.00
    1   13   39     -4.87      0.00
    3   13   39     -1.98      0.00
    5   13   39     -1.32      0.00
    7   13   39     -6.81      0.00
    9   13   39     -8.05      0.00
   11   13   39      1.07      0.00
    1   15   39      4.92      0.00
    3   15   39     -4.12      0.00
    5   15   39      6.80      0.00
    7   15   39      5.71      0.00
    9   15   39     -4.13      0.00
    1   17   39      3.23      0.00
    3   17   39     -4.10      0.00
    5   17   39     -9.63      0.00
    7   17   39      6.29      0.00
    1   19   39     -4.28      0.00
    3   19   39      4.86      0.00
    5   19   39     -1.51      0.00
    1   21   39      5.99      0.00
    0    0   40     27.99      0.00
    4    0   40     -9.48      0.00
    8    0   40     12.81      0.00
    2    2   40     23.21      0.00
    4    2   40     -3.29      0.00
    6    2   40    -11.31      0.00
    8    2   40     -3.50      0.00
   10    2   40      8.01      0.00
   12    2   40      4.02      0.00
   14    2   40    -10.02      0.00
    0    4   40    -16.64      0.00
    2    4   40     -4.89      0.00
    4    4   40     18.31      0.00
    6    4   40     -6.63      0.00
    8    4   40     -3.43      0.00
   10    4   40      5.06      0.00
   12    4   40      3.37      0.00
   14    4   40      2.51      0.00
    2    6   40     11.94      0.00
    4    6   40      6.84      0.00
    6    6   40     -0.01      0.00
    8    6   40     -8.21      0.00
   10    6   40      5.09      0.00
   12    6   40     -0.80      0.00
    0    8   40    -11.23      0.00
    2    8   40     -1.54      0.00
    4    8   40      5.04      0.00
    6    8   40     -0.35      0.00
    8    8   40     -4.81      0.00
   10    8   40     -1.29      0.00
   12    8   40     -0.32      0.00
    2   10   40     -7.19      0.00
    4   10   40     -0.04      0.00
    6   10   40      8.95      0.00
    8   10   40      0.83      0.00
   10   10   40     -0.22      0.00
   12   10   40     -1.90      0.00
    0   12   40      7.76      0.00
    2   12   40      8.51      0.00
    4   12   40     -8.21      0.00
    6   12   40      3.85      0.00
    8   12   40     13.62      0.00
   10   12   40     -1.97      0.00
    2   14   40      3.42      0.00
    4   14   40     -4.67      0.00
    6   14   40     -3.22      0.00
    8   14   40     -4.05      0.00
   10   14   40      1.98      0.00
    0   16   40     -9.62      0.00
    2   16   40      3.83      0.00
    4   16   40      0.53      0.00
    6   16   40     -4.20      0.00
    8   16   40     -0.93      0.00
    2   18   40      6.68      0.00
    4   18   40      2.73      0.00
    6   18   40     -9.12      0.00
    0   20   40      0.96      0.00
    2   20   40     -8.04      0.00
    4   20   40     -0.58      0.00
    1    1   41      4.23      0.00
    3    1   41      3.26      0.00
    5    1   41      5.90      0.00
    7    1   41     -5.31      0.00
    9    1   41     -0.14      0.00
   11    1   41      7.62      0.00
   13    1   41     -3.58      0.00
    1    3   41     -6.89      0.00
    3    3   41      9.93      0.00
    5    3   41      2.04      0.00
    7    3   41     -1.35      0.00
    9    3   41    -11.99      0.00
   11    3   41      1.31      0.00
   13    3   41     10.33      0.00
    1    5   41    -19.32      0.00
    3    5   41    -28.50      0.00
    5    5   41     12.79      0.00
    7    5   41      8.19      0.00
    9    5   41     -2.89      0.00
   11    5   41     -5.62      0.00
   13    5   41      6.02      0.00
    1    7   41      8.37      0.00
    3    7   41     -4.27      0.00
    5    7   41     -3.16      0.00
    7    7   41     10.19      0.00
    9    7   41     -0.50      0.00
   11    7   41      0.99      0.00
   13    7   41     -0.54      0.00
    1    9   41      0.01      0.00
    3    9   41      0.26      0.00
    5    9   41     -4.22      0.00
    7    9   41     -4.01      0.00
    9    9   41     -0.46      0.00
   11    9   41      0.29      0.00
    1   11   41     -4.38      0.00
    3   11   41     -1.63      0.00
    5   11   41     -0.88      0.00
    7   11   41     -6.18      0.00
    9   11   41     -1.55      0.00
   11   11   41      9.52      0.00
    1   13   41      0.94      0.00
    3   13   41      8.62      0.00
    5   13   41     -1.36      0.00
    7   13   41     -4.42      0.00
    9   13   41      4.01      0.00
   11   13   41      3.74      0.00
    1   15   41     -1.28      0.00
    3   15   41      9.62      0.00
    5   15   41     -0.97      0.00
    7   15   41      5.97      0.00
    9   15   41     -6.97      0.00
    1   17   41     -8.55      0.00
    3   17   41     -0.31      0.00
    5   17   41      4.66      0.00
    7   17   41     -3.08      0.00
    1   19   41      0.33      0.00
    3   19   41      2.58      0.00
    5   19   41      2.55      0.00
    2    0   42    -19.82      0.00
    6    0   42      6.90      0.00
   10    0   42     -7.09      0.00
   14    0   42      3.68      0.00
    0    2   42     15.75      0.00
    2    2   42     -4.65      0.00
    4    2   42    -16.31      0.00
    6    2   42      9.00      0.00
    8    2   42     12.38      0.00
   10    2   42     -2.91      0.00
   12    2   42     -2.68      0.00
   14    2   42     -3.46      0.00
    2    4   42     17.60      0.00
    4    4   42      6.82      0.00
    6    4   42     -7.89      0.00
    8    4   42      5.24      0.00
   10    4   42     -2.34      0.00
   12    4   42    -10.47      0.00
    0    6   42      4.37      0.00
    2    6   42      1.52      0.00
    4    6   42    -13.02      0.00
    6    6   42     -2.93      0.00
    8    6   42     -0.62      0.00
   10    6   42      0.83      0.00
   12    6   42     -3.33      0.00
    2    8   42      9.27      0.00
    4    8   42      4.67      0.00
    6    8   42     -6.52      0.00
    8    8   42      1.29      0.00
   10    8   42      4.04      0.00
   12    8   42      7.44      0.00
    0   10   42     -0.54      0.00
    2   10   42      1.91      0.00
    4   10   42      4.98      0.00
    6   10   42      1.83      0.00
    8   10   42     -1.48      0.00
   10   10   42     -2.39      0.00
   12   10   42     -1.04      0.00
    2   12   42     -9.38      0.00
    4   12   42     -1.71      0.00
    6   12   42      9.51      0.00
    8   12   42     -3.49      0.00
   10   12   42     -5.80      0.00
    0   14   42     -0.09      0.00
    2   14   42     -5.82      0.00
    4   14   42     -1.54      0.00
    6   14   42      3.03      0.00
    8   14   42     -1.85      0.00
   10   14   42     -6.03      0.00
    2   16   42     -3.06      0.00
    4   16   42      2.96      0.00
    6   16   42     -3.85      0.00
    8   16   42      8.21      0.00
    0   18   42      6.99      0.00
    2   18   42     -4.53      0.00
    4   18   42      1.74      0.00
    6   18   42      5.99      0.00
    2   20   42     -0.69      0.00
    1    1   43      4.72      0.00
    3    1   43      2.23      0.00
    5    1   43     -6.22      0.00
    7    1   43     -8.32      0.00
    9    1   43     -1.24      0.00
   11    1   43      4.89      0.00
   13    1   43     -2.79      0.00
    1    3   43      6.81      0.00
    3    3   43      4.26      0.00
    5    3   43    -13.15      0.00
    7    3   43     -7.37      0.00
    9    3   43      7.65      0.00
   11    3   43      5.18      0.00
   13    3   43      6.09      0.00
    1    5   43    -10.15      0.00
    3    5   43     15.52      0.00
    5    5   43     15.13      0.00
    7    5   43     -6.82      0.00
    9    5   43     -0.42      0.00
   11    5   43      1.84      0.00
   13    5   43      0.41      0.00
    1    7   43     -9.09      0.00
    3    7   43     -6.40      0.00
    5    7   43      1.04      0.00
    7    7   43      5.91      0.00
    9    7   43     -7.27      0.00
   11    7   43     -9.46      0.00
   13    7   43      1.82      0.00
    1    9   43      0.52      0.00
    3    9   43     -8.32      0.00
    5    9   43      2.56      0.00
    7    9   43      0.38      0.00
    9    9   43      0.97      0.00
   11    9   43     -5.26      0.00
    1   11   43      4.03      0.00
    3   11   43      3.36      0.00
    5   11   43     -2.29      0.00
    7   11   43      0.92      0.00
    9   11   43      5.72      0.00
   11   11   43      0.56      0.00
    1   13   43      3.77      0.00
    3   13   43     -0.23      0.00
    5   13   43     -3.37      0.00
    7   13   43      6.35      0.00
    9   13   43      4.21      0.00
    1   15   43      5.43      0.00
    3   15   43      1.00      0.00
    5   15   43     -5.02      0.00
    7   15   43      1.58      0.00
    9   15   43      5.70      0.00
    1   17   43     -1.89      0.00
    3   17   43     -2.81      0.00
    5   17   43     -3.40      0.00
    7   17   43     -1.76      0.00
    1   19   43     -1.60      0.00
    3   19   43     -6.88      0.00
    5   19   43     -0.63      0.00
    0    0   44    -11.79      0.00
    4    0   44     13.38      0.00
    8    0   44      4.81      0.00
   12    0   44     -1.27      0.00
    2    2   44    -17.51      0.00
    4    2   44      7.60      0.00
    6    2   44     15.81      0.00
    8    2   44     -3.19      0.00
   10    2   44    -13.40      0.00
   12    2   44      3.22      0.00
    0    4   44      0.95      0.00
    2    4   44     -6.25      0.00
    4    4   44     -7.78      0.00
    6    4   44     -3.34      0.00
    8    4   44      0.60      0.00
   10    4   44      0.07      0.00
   12    4   44     -3.18      0.00
    2    6   44      1.27      0.00
    4    6   44     -2.42      0.00
    6    6   44      3.88      0.00
    8    6   44      1.74      0.00
   10    6   44     10.13      0.00
   12    6   44     -1.64      0.00
    0    8   44     10.57      0.00
    2    8   44      2.66      0.00
    4    8   44     -2.69      0.00
    6    8   44     -3.80      0.00
    8    8   44      5.58      0.00
   10    8   44      6.43      0.00
   12    8   44     -5.85      0.00
    2   10   44      6.61      0.00
    4   10   44     -4.72      0.00
    6   10   44     -3.16      0.00
    8   10   44     -4.84      0.00
   10   10   44      6.15      0.00
   12   10   44     -8.89      0.00
    0   12   44     -9.51      0.00
    2   12   44     -0.51      0.00
    4   12   44      5.22      0.00
    6   12   44     -3.36      0.00
    8   12   44     -9.06      0.00
   10   12   44     -3.28      0.00
    2   14   44     -4.38      0.00
    4   14   44      2.46      0.00
    6   14   44      4.73      0.00
    8   14   44     -4.83      0.00
   10   14   44     -7.28      0.00
    0   16   44      0.29      0.00
    2   16   44      5.95      0.00
    4   16   44      3.29      0.00
    6   16   44     -5.37      0.00
    8   16   44     -1.73      0.00
    2   18   44      4.64      0.00
    4   18   44     -0.86      0.00
    6   18   44     -4.00      0.00
    0   20   44      5.34      0.00
    2   20   44     -0.52      0.00
    1    1   45      0.72      0.00
    3    1   45     -5.72      0.00
    5    1   45      0.06      0.00
    7    1   45     -0.13      0.00
    9    1   45      6.99      0.00
   11    1   45      0.28      0.00
   13    1   45     -3.31      0.00
    1    3   45     17.65      0.00
    3    3   45     -1.91      0.00
    5    3   45     -4.51      0.00
    7    3   45      5.51      0.00
    9    3   45      8.68      0.00
   11    3   45     -6.45      0.00
   13    3   45      0.77      0.00
    1    5   45      8.65      0.00
    3    5   45     10.04      0.00
    5    5   45     -5.21      0.00
    7    5   45    -11.61      0.00
    9    5   45      0.51      0.00
   11    5   45      5.03      0.00
   13    5   45     -1.22      0.00
    1    7   45    -10.93      0.00
    3    7   45      6.18      0.00
    5    7   45      5.18      0.00
    7    7   45     -4.09      0.00
    9    7   45    -11.21      0.00
   11    7   45      8.94      0.00
    1    9   45     -3.13      0.00
    3    9   45     -6.89      0.00
    5    9   45      5.83      0.00
    7    9   45      4.39      0.00
    9    9   45     -5.69      0.00
   11    9   45      7.30      0.00
    1   11   45      0.14      0.00
    3   11   45      1.24      0.00
    5   11   45     -0.48      0.00
    7   11   45      9.76      0.00
    9   11   45      1.32      0.00
   11   11   45      9.14      0.00
    1   13   45     -1.90      0.00
    3   13   45     -1.98      0.00
    5   13   45     -2.52      0.00
    7   13   45      0.80      0.00
    9   13   45      3.51      0.00
    1   15   45      1.46      0.00
    3   15   45     -4.80      0.00
    5   15   45     -4.79      0.00
    7   15   45      8.13      0.00
    9   15   45      1.06      0.00
    1   17   45     -3.45      0.00
    3   17   45      5.21      0.00
    5   17   45      6.36      0.00
    7   17   45     -5.61      0.00
    1   19   45     -3.91      0.00
    3   19   45      6.91      0.00
    2    0   46     14.44      0.00
    6    0   46    -11.34      0.00
   10    0   46      6.10      0.00
    0    2   46    -24.96      0.00
    2    2   46     -6.35      0.00
    4    2   46      5.99      0.00
    6    2   46      0.81      0.00
    8    2   46    -11.37      0.00
   10    2   46     -0.55      0.00
   12    2   46      6.24      0.00
    2    4   46     -6.44      0.00
    4    4   46      4.15      0.00
    6    4   46      7.06      0.00
    8    4   46     -3.31      0.00
   10    4   46     -0.47      0.00
   12    4   46     -5.61      0.00
    0    6   46      1.28      0.00
    2    6   46      0.85      0.00
    4    6   46      0.19      0.00
    6    6   46      4.64      0.00
    8    6   46     -0.04      0.00
   10    6   46     -3.66      0.00
   12    6   46      3.98      0.00
    2    8   46     -3.47      0.00
    4    8   46     -1.92      0.00
    6    8   46      3.08      0.00
    8    8   46      8.27      0.00
   10    8   46     -9.61      0.00
   12    8   46     -4.25      0.00
    0   10   46      6.66      0.00
    2   10   46      4.52      0.00
    4   10   46    -11.30      0.00
    6   10   46     -6.16      0.00
    8   10   46      2.45      0.00
   10   10   46     -8.72      0.00
    2   12   46      4.34      0.00
    4   12   46      3.20      0.00
    6   12   46     -5.36      0.00
    8   12   46     -0.69      0.00
   10   12   46     -1.24      0.00
    0   14   46     -3.02      0.00
    2   14   46      1.53      0.00
    4   14   46      6.28      0.00
    6   14   46     -1.82      0.00
    8   14   46     -7.45      0.00
    2   16   46      0.46      0.00
    4   16   46     -4.14      0.00
    6   16   46     -3.28      0.00
    8   16   46      3.00      0.00
    0   18   46      0.78      0.00
    2   18   46     -4.16      0.00
    4   18   46     -2.61      0.00
    1    1   47      2.86      0.00
    3    1   47      4.60      0.00
    5    1   47      9.58      0.00
    7    1   47     -1.75      0.00
    9    1   47     -3.74      0.00
   11    1   47      2.51      0.00
   13    1   47      1.41      0.00
    1    3   47     -7.50      0.00
    3    3   47     -9.37      0.00
    5    3   47     -2.91      0.00
    7    3   47      8.42      0.00
    9    3   47     -0.63      0.00
   11    3   47     -4.86      0.00
   13    3   47     -0.11      0.00
    1    5   47      7.11      0.00
    3    5   47    -10.64      0.00
    5    5   47     -9.48      0.00
    7    5   47      3.97      0.00
    9    5   47      7.29      0.00
   11    5   47      1.16      0.00
   13    5   47    -21.96      0.00
    1    7   47      5.36      0.00
    3    7   47      6.49      0.00
    5    7   47     -6.08      0.00
    7    7   47     -5.44      0.00
    9    7   47      2.32      0.00
   11    7   47      0.36      0.00
    1    9   47     -3.39      0.00
    3    9   47      5.76      0.00
    5    9   47      5.59      0.00
    7    9   47     -5.43      0.00
    9    9   47      7.46      0.00
   11    9   47      3.23      0.00
    1   11   47     -2.34      0.00
    3   11   47      4.11      0.00
    5   11   47     -0.49      0.00
    7   11   47     -0.85      0.00
    9   11   47      1.16      0.00
   11   11   47      1.00      0.00
    1   13   47     -3.57      0.00
    3   13   47     -1.43      0.00
    5   13   47      2.63      0.00
    7   13   47      4.50      0.00
    9   13   47     -1.13      0.00
    1   15   47     -5.91      0.00
    3   15   47      0.27      0.00
    5   15   47      6.48      0.00
    7   15   47      3.71      0.00
    1   17   47      1.99      0.00
    3   17   47      2.63      0.00
    5   17   47      0.62      0.00
    1   19   47     -0.66      0.00
    3   19   47      4.90      0.00
    0    0   48      9.99      0.00
    4    0   48    -21.49      0.00
    8    0   48     13.90      0.00
   12    0   48     -6.87      0.00
    2    2   48     13.94      0.00
    4    2   48     -4.95      0.00
    6    2   48     -1.97      0.00
    8    2   48     -3.47      0.00
   10    2   48      2.28      0.00
   12    2   48      6.15      0.00
    0    4   48     -6.11      0.00
    2    4   48      2.29      0.00
    4    4   48      9.51      0.00
    6    4   48     -1.38      0.00
    8    4   48     -1.67      0.00
   10    4   48      0.20      0.00
   12    4   48     10.44      0.00
    2    6   48      2.08      0.00
    4    6   48      4.47      0.00
    6    6   48     -2.20      0.00
    8    6   48     -4.48      0.00
   10    6   48      4.95      0.00
   12    6   48     11.73      0.00
    0    8   48     -7.50      0.00
    2    8   48     -2.34      0.00
    4    8   48      3.50      0.00
    6    8   48      2.60      0.00
    8    8   48     -4.92      0.00
   10    8   48     -6.98      0.00
   12    8   48     -1.71      0.00
    2   10   48     -5.41      0.00
    4   10   48     -0.45      0.00
    6   10   48      8.38      0.00
    8   10   48     -8.25      0.00
   10   10   48     -3.18      0.00
    0   12   48     12.38      0.00
    2   12   48     -1.56      0.00
    4   12   48     -2.86      0.00
    6   12   48     -3.43      0.00
    8   12   48      0.77      0.00
   10   12   48     -0.52      0.00
    2   14   48      3.55      0.00
    4   14   48     -4.11      0.00
    6   14   48     -1.86      0.00
    8   14   48      5.87      0.00
    0   16   48      0.32      0.00
    2   16   48     -2.66      0.00
    4   16   48     -3.81      0.00
    6   16   48     -3.47      0.00
    2   18   48     -0.17      0.00
    4   18   48     -3.76      0.00
    1    1   49      1.00      0.00
    3    1   49     11.20      0.00
    5    1   49     -3.93      0.00
    7    1   49     -7.37      0.00
    9    1   49      7.62      0.00
   11    1   49      1.19      0.00
   13    1   49     -4.90      0.00
    1    3   49     -6.52      0.00
    3    3   49      9.10      0.00
    5    3   49     -1.16      0.00
    7    3   49     -0.32      0.00
    9    3   49     -7.20      0.00
   11    3   49     -6.29      0.00
    1    5   49     -9.78      0.00
    3    5   49    -11.53      0.00
    5    5   49      7.02      0.00
    7    5   49      7.29      0.00
    9    5   49     -1.76      0.00
   11    5   49    -13.22      0.00
    1    7   49     10.15      0.00
    3    7   49     -5.34      0.00
    5    7   49     -3.73      0.00
    7    7   49      4.98      0.00
    9    7   49      1.80      0.00
   11    7   49     -0.01      0.00
    1    9   49      3.61      0.00
    3    9   49     -0.95      0.00
    5    9   49     -7.39      0.00
    7    9   49      6.30      0.00
    9    9   49      8.37      0.00
   11    9   49      2.65      0.00
    1   11   49     -6.67      0.00
    3   11   49      0.98      0.00
    5   11   49      0.74      0.00
    7   11   49      8.36      0.00
    9   11   49      0.19      0.00
    1   13   49      5.75      0.00
    3   13   49     -2.67      0.00
    5   13   49     -2.13      0.00
    7   13   49     -8.45      0.00
    9   13   49     -0.48      0.00
    1   15   49     -2.74      0.00
    3   15   49      5.68      0.00
    5   15   49      3.48      0.00
    7   15   49      2.81      0.00
    1   17   49     -5.64      0.00
    3   17   49      6.55      0.00
    5   17   49      3.70      0.00
    1   19   49      9.26      0.00
    2    0   50    -15.94      0.00
    6    0   50     11.94      0.00
   10    0   50     -5.67      0.00
    0    2   50     13.73      0.00
    2    2   50     -6.79      0.00
    4    2   50     -7.66      0.00
    6    2   50      5.10      0.00
    8    2   50      3.87      0.00
   10    2   50      4.51      0.00
   12    2   50      1.71      0.00
    2    4   50      4.75      0.00
    4    4   50      5.91      0.00
    6    4   50     -5.97      0.00
    8    4   50      3.48      0.00
   10    4   50      2.77      0.00
   12    4   50     -3.17      0.00
    0    6   50     -4.77      0.00
    2    6   50      0.04      0.00
    4    6   50     -2.51      0.00
    6    6   50     -1.50      0.00
    8    6   50     -0.37      0.00
   10    6   50      8.00      0.00
   12    6   50     -6.89      0.00
    2    8   50      8.82      0.00
    4    8   50      7.57      0.00
    6    8   50     -5.15      0.00
    8    8   50     -4.30      0.00
   10    8   50     -1.29      0.00
    0   10   50     -2.40      0.00
    2   10   50      7.21      0.00
    4   10   50      7.07      0.00
    6   10   50     -9.31      0.00
    8   10   50     -7.45      0.00
   10   10   50     -1.17      0.00
    2   12   50     -4.81      0.00
    4   12   50      2.26      0.00
    6   12   50      5.38      0.00
    8   12   50      3.84      0.00
   10   12   50     -0.46      0.00
    0   14   50     -2.77      0.00
    2   14   50      5.18      0.00
    4   14   50    -10.72      0.00
    6   14   50      0.19      0.00
    8   14   50     -6.66      0.00
    2   16   50     -4.69      0.00
    4   16   50     -6.96      0.00
    6   16   50     -3.98      0.00
    0   18   50     -2.57      0.00
    2   18   50     -9.67      0.00
    4   18   50      4.78      0.00
    1    1   51      3.43      0.00
    3    1   51      1.90      0.00
    5    1   51     -7.11      0.00
    7    1   51     -3.13      0.00
    9    1   51      0.71      0.00
   11    1   51      1.91      0.00
    1    3   51      9.61      0.00
    3    3   51      1.26      0.00
    5    3   51     -8.21      0.00
    7    3   51     -2.37      0.00
    9    3   51      0.84      0.00
   11    3   51      5.17      0.00
    1    5   51     -5.13      0.00
    3    5   51      0.70      0.00
    5    5   51     10.44      0.00
    7    5   51     -3.85      0.00
    9    5   51     -4.59      0.00
   11    5   51      0.09      0.00
    1    7   51    -13.33      0.00
    3    7   51    -11.20      0.00
    5    7   51      1.71      0.00
    7    7   51      5.18      0.00
    9    7   51     -8.35      0.00
   11    7   51      6.69      0.00
    1    9   51     -2.86      0.00
    3    9   51     -8.84      0.00
    5    9   51      1.07      0.00
    7    9   51      5.83      0.00
    9    9   51      5.17      0.00
   11    9   51      1.36      0.00
    1   11   51     -2.28      0.00
    3   11   51     -0.77      0.00
    5   11   51     -1.19      0.00
    7   11   51     -2.48      0.00
    9   11   51      0.78      0.00
    1   13   51      2.69      0.00
    3   13   51      3.34      0.00
    5   13   51      3.81      0.00
    7   13   51      4.45      0.00
    9   13   51      1.14      0.00
    1   15   51     -4.79      0.00
    3   15   51     16.77      0.00
    5   15   51      0.06      0.00
    7   15   51      8.01      0.00
    1   17   51      6.66      0.00
    3   17   51     -0.23      0.00
    5   17   51      1.22      0.00
    0    0   52    -12.69      0.00
    4    0   52      9.89      0.00
    8    0   52      0.32      0.00
   12    0   52      0.38      0.00
    2    2   52     -7.90      0.00
    4    2   52      7.72      0.00
    6    2   52      6.90      0.00
    8    2   52     -3.05      0.00
   10    2   52     -7.48      0.00
   12    2   52     -3.46      0.00
    0    4   52      3.69      0.00
    2    4   52      2.97      0.00
    4    4   52     -4.29      0.00
    6    4   52     -0.61      0.00
    8    4   52      2.38      0.00
   10    4   52     -1.59      0.00
   12    4   52     -1.50      0.00
    2    6   52      7.92      0.00
    4    6   52     -3.07      0.00
    6    6   52      0.06      0.00
    8    6   52      3.76      0.00
   10    6   52      3.89      0.00
    0    8   52     13.24      0.00
    2    8   52      2.23      0.00
    4    8   52     -2.37      0.00
    6    8   52     -5.59      0.00
    8    8   52      1.81      0.00
   10    8   52     -3.96      0.00
    2   10   52      9.39      0.00
    4   10   52      1.97      0.00
    6   10   52     -0.36      0.00
    8   10   52     -4.76      0.00
   10   10   52      3.04      0.00
    0   12   52     -2.42      0.00
    2   12   52     -1.30      0.00
    4   12   52     -3.74      0.00
    6   12   52     -5.90      0.00
    8   12   52     -6.56      0.00
    2   14   52     -6.80      0.00
    4   14   52     -6.03      0.00
    6   14   52     -1.70      0.00
    8   14   52     -1.68      0.00
    0   16   52      0.60      0.00
    2   16   52    -10.03      0.00
    4   16   52      4.90      0.00
    6   16   52     -9.75      0.00
    2   18   52      0.91      0.00
    1    1   53     -2.93      0.00
    3    1   53     -7.88      0.00
    5    1   53     -2.49      0.00
    7    1   53      1.27      0.00
    9    1   53      5.22      0.00
   11    1   53      4.69      0.00
    1    3   53      5.42      0.00
    3    3   53     -3.65      0.00
    5    3   53     -6.04      0.00
    7    3   53      2.88      0.00
    9    3   53      5.77      0.00
   11    3   53      2.01      0.00
    1    5   53      3.23      0.00
    3    5   53      3.28      0.00
    5    5   53     -4.71      0.00
    7    5   53     -4.51      0.00
    9    5   53     -4.75      0.00
   11    5   53      4.51      0.00
    1    7   53    -10.76      0.00
    3    7   53      6.50      0.00
    5    7   53      8.68      0.00
    7    7   53     -0.30      0.00
    9    7   53     -4.71      0.00
   11    7   53      7.73      0.00
    1    9   53     -0.27      0.00
    3    9   53     -5.06      0.00
    5    9   53      2.72      0.00
    7    9   53      0.24      0.00
    9    9   53      0.78      0.00
    1   11   53     -2.29      0.00
    3   11   53      4.43      0.00
    5   11   53      4.32      0.00
    7   11   53     13.18      0.00
    9   11   53     -2.79      0.00
    1   13   53      0.68      0.00
    3   13   53      6.80      0.00
    5   13   53      2.23      0.00
    7   13   53      0.70      0.00
    1   15   53      5.83      0.00
    3   15   53     -1.73      0.00
    5   15   53      3.53      0.00
    7   15   53      3.22      0.00
    1   17   53      6.52      0.00
    3   17   53      0.38      0.00
    2    0   54     18.08      0.00
    6    0   54     -6.78      0.00
   10    0   54     -3.59      0.00
    0    2   54    -11.50      0.00
    2    2   54      2.29      0.00
    4    2   54      7.98      0.00
    6    2   54      1.12      0.00
    8    2   54    -10.54      0.00
   10    2   54     -4.94      0.00
   12    2   54      5.19      0.00
    2    4   54     -2.47      0.00
    4    4   54      3.47      0.00
    6    4   54      2.04      0.00
    8    4   54      4.88      0.00
   10    4   54      2.31      0.00
    0    6   54      4.22      0.00
    2    6   54      1.76      0.00
    4    6   54     -1.07      0.00
    6    6   54     -1.78      0.00
    8    6   54      0.54      0.00
   10    6   54     -6.59      0.00
    2    8   54     -4.83      0.00
    4    8   54     -1.39      0.00
    6    8   54      5.42      0.00
    8    8   54      5.66      0.00
   10    8   54     -6.72      0.00
    0   10   54      0.39      0.00
    2   10   54      3.78      0.00
    4   10   54     -9.44      0.00
    6   10   54     -5.74      0.00
    8   10   54      1.06      0.00
   10   10   54      3.54      0.00
    2   12   54     -2.02      0.00
    4   12   54     -1.18      0.00
    6   12   54     -5.82      0.00
    8   12   54      8.28      0.00
    0   14   54    -11.31      0.00
    2   14   54     -1.59      0.00
    4   14   54      2.77      0.00
    6   14   54     -4.08      0.00
    2   16   54     -4.15      0.00
    4   16   54     -8.28      0.00
    0   18   54     -9.83      0.00
    1    1   55     -4.98      0.00
    3    1   55      3.66      0.00
    5    1   55      2.99      0.00
    7    1   55     -0.76      0.00
    9    1   55      1.80      0.00
   11    1   55      0.36      0.00
    1    3   55     -9.33      0.00
    3    3   55     -4.60      0.00
    5    3   55      1.91      0.00
    7    3   55      5.00      0.00
    9    3   55     -7.78      0.00
   11    3   55     -8.88      0.00
    1    5   55      2.19      0.00
    3    5   55     -5.88      0.00
    5    5   55     -6.01      0.00
    7    5   55      2.56      0.00
    9    5   55      6.92      0.00
   11    5   55     -0.18      0.00
    1    7   55      5.99      0.00
    3    7   55      6.10      0.00
    5    7   55     -4.94      0.00
    7    7   55     -6.98      0.00
    9    7   55      2.61      0.00
   11    7   55      1.74      0.00
    1    9   55     -0.63      0.00
    3    9   55      1.24      0.00
    5    9   55      1.28      0.00
    7    9   55     -2.12      0.00
    9    9   55      3.45      0.00
    1   11   55     -7.53      0.00
    3   11   55      3.32      0.00
    5   11   55      2.02      0.00
    7   11   55     -5.75      0.00
    9   11   55     -3.70      0.00
    1   13   55      5.19      0.00
    3   13   55      0.33      0.00
    5   13   55      6.42      0.00
    7   13   55     -4.09      0.00
    1   15   55     -4.51      0.00
    3   15   55      5.58      0.00
    5   15   55      5.59      0.00
    1   17   55      6.21      0.00
    3   17   55     -4.05      0.00
    0    0   56     12.60      0.00
    4    0   56    -12.47      0.00
    8    0   56      4.64      0.00
    2    2   56      6.34      0.00
    4    2   56     -0.09      0.00
    6    2   56     -2.64      0.00
    8    2   56      3.03      0.00
   10    2   56      7.07      0.00
    0    4   56     -0.67      0.00
    2    4   56     -0.08      0.00
    4    4   56      7.72      0.00
    6    4   56     -4.37      0.00
    8    4   56      1.10      0.00
   10    4   56      3.28      0.00
    2    6   56      0.37      0.00
    4    6   56      1.45      0.00
    6    6   56     -1.56      0.00
    8    6   56      0.05      0.00
   10    6   56      3.25      0.00
    0    8   56     -5.26      0.00
    2    8   56     -3.46      0.00
    4    8   56      3.15      0.00
    6    8   56      5.09      0.00
    8    8   56     -4.06      0.00
   10    8   56     -2.18      0.00
    2   10   56     -3.74      0.00
    4   10   56     -0.64      0.00
    6   10   56      6.91      0.00
    8   10   56     -0.21      0.00
    0   12   56      3.32      0.00
    2   12   56     -5.26      0.00
    4   12   56     -5.41      0.00
    6   12   56      2.81      0.00
    8   12   56      1.02      0.00
    2   14   56      4.09      0.00
    4   14   56     -8.19      0.00
    6   14   56     -0.76      0.00
    0   16   56      5.29      0.00
    2   16   56     -0.58      0.00
    4   16   56      3.34      0.00
    1    1   57     -0.80      0.00
    3    1   57      3.72      0.00
    5    1   57     -3.00      0.00
    7    1   57     -4.79      0.00
    9    1   57     -4.32      0.00
   11    1   57      3.20      0.00
    1    3   57     -5.94      0.00
    3    3   57      0.36      0.00
    5    3   57      3.74      0.00
    7    3   57      0.27      0.00
    9    3   57     -7.14      0.00
   11    3   57      3.82      0.00
    1    5   57     -4.60      0.00
    3    5   57     -7.93      0.00
    5    5   57      7.92      0.00
    7    5   57     -1.13      0.00
    9    5   57     -2.08      0.00
   11    5   57      1.30      0.00
    1    7   57      9.97      0.00
    3    7   57     -2.15      0.00
    5    7   57     -4.75      0.00
    7    7   57     -0.05      0.00
    9    7   57      0.25      0.00
    1    9   57      5.50      0.00
    3    9   57      0.41      0.00
    5    9   57     -8.94      0.00
    7    9   57     -1.85      0.00
    9    9   57      0.17      0.00
    1   11   57      1.33      0.00
    3   11   57      2.44      0.00
    5   11   57     -2.52      0.00
    7   11   57     -1.76      0.00
    1   13   57     -0.07      0.00
    3   13   57      3.45      0.00
    5   13   57      3.37      0.00
    7   13   57      4.28      0.00
    1   15   57     -7.09      0.00
    3   15   57      3.63      0.00
    5   15   57     -1.91      0.00
    1   17   57      5.28      0.00
    2    0   58     -6.85      0.00
    6    0   58     12.00      0.00
   10    0   58     -0.18      0.00
    0    2   58     10.55      0.00
    2    2   58     -0.13      0.00
    4    2   58     -1.46      0.00
    6    2   58      0.25      0.00
    8    2   58      5.78      0.00
   10    2   58     -0.55      0.00
    2    4   58      8.41      0.00
    4    4   58     -1.23      0.00
    6    4   58     -3.21      0.00
    8    4   58      4.88      0.00
   10    4   58     -5.19      0.00
    0    6   58     -2.03      0.00
    2    6   58      3.25      0.00
    4    6   58     -3.09      0.00
    6    6   58      0.84      0.00
    8    6   58     -1.79      0.00
   10    6   58      0.19      0.00
    2    8   58      1.54      0.00
    4    8   58      3.60      0.00
    6    8   58      4.74      0.00
    8    8   58      0.58      0.00
   10    8   58     -1.97      0.00
    0   10   58    -10.35      0.00
    2   10   58      0.45      0.00
    4   10   58      8.73      0.00
    6   10   58      5.63      0.00
    8   10   58     -1.10      0.00
    2   12   58     -0.80      0.00
    4   12   58      1.94      0.00
    6   12   58     -4.62      0.00
    8   12   58     -6.77      0.00
    0   14   58      8.20      0.00
    2   14   58     -0.30      0.00
    4   14   58     -6.34      0.00
    6   14   58      1.04      0.00
    2   16   58     -9.26      0.00
    1    1   59     -0.11      0.00
    3    1   59     -3.44      0.00
    5    1   59     -8.56      0.00
    7    1   59      3.40      0.00
    9    1   59     -2.24      0.00
   11    1   59     -0.81      0.00
    1    3   59      1.41      0.00
    3    3   59      3.24      0.00
    5    3   59      1.08      0.00
    7    3   59     -7.32      0.00
    9    3   59      2.69      0.00
   11    3   59      0.90      0.00
    1    5   59    -10.73      0.00
    3    5   59      4.10      0.00
    5    5   59      5.43      0.00
    7    5   59     -0.63      0.00
    9    5   59      2.07      0.00
    1    7   59     -4.69      0.00
    3    7   59     -2.00      0.00
    5    7   59     -1.27      0.00
    7    7   59      3.33      0.00
    9    7   59     -1.80      0.00
    1    9   59      3.99      0.00
    3    9   59     -4.81      0.00
    5    9   59     -8.74      0.00
    7    9   59     -2.05      0.00
    9    9   59      0.91      0.00
    1   11   59     -1.93      0.00
    3   11   59     -5.22      0.00
    5   11   59     -1.82      0.00
    7   11   59      7.91      0.00
    1   13   59     -1.83      0.00
    3   13   59      1.95      0.00
    5   13   59      6.64      0.00
    1   15   59      5.08      0.00
    3   15   59      4.09      0.00
    0    0   60     -6.60      0.00
    4    0   60     15.41      0.00
    8    0   60     -2.35      0.00
    2    2   60     -4.86      0.00
    4    2   60     -2.19      0.00
    6    2   60      1.45      0.00
    8    2   60      3.96      0.00
   10    2   60     -5.17      0.00
    0    4   60     13.09      0.00
    2    4   60      0.42      0.00
    4    4   60     -5.09      0.00
    6    4   60      1.38      0.00
    8    4   60     -6.59      0.00
   10    4   60      2.33      0.00
    2    6   60     -4.20      0.00
    4    6   60     -0.74      0.00
    6    6   60      1.52      0.00
    8    6   60     -0.17      0.00
   10    6   60      3.97      0.00
    0    8   60     -3.74      0.00
    2    8   60      0.53      0.00
    4    8   60      2.41      0.00
    6    8   60      0.06      0.00
    8    8   60      6.20      0.00
    2   10   60      8.05      0.00
    4   10   60      5.09      0.00
    6   10   60     -7.73      0.00
    8   10   60     -7.07      0.00
    0   12   60      0.58      0.00
    2   12   60      1.48      0.00
    4   12   60     -7.19      0.00
    6   12   60     -5.21      0.00
    2   14   60     -5.41      0.00
    4   14   60     -0.25      0.00
    0   16   60      5.46      0.00
    1    1   61      2.14      0.00
    3    1   61     -0.81      0.00
    5    1   61      2.66      0.00
    7    1   61      2.53      0.00
    9    1   61      3.88      0.00
    1    3   61      1.26      0.00
    3    3   61     -2.07      0.00
    5    3   61     -3.03      0.00
    7    3   61      4.38      0.00
    9    3   61      7.19      0.00
    1    5   61      4.94      0.00
    3    5   61      4.61      0.00
    5    5   61     -2.54      0.00
    7    5   61     -0.49      0.00
    9    5   61     -4.92      0.00
    1    7   61     -1.62      0.00
    3    7   61      4.80      0.00
    5    7   61     -1.04      0.00
    7    7   61     -5.26      0.00
    9    7   61     -5.20      0.00
    1    9   61     -4.94      0.00
    3    9   61     -3.47      0.00
    5    9   61      2.33      0.00
    7    9   61      0.88      0.00
    1   11   61     -0.51      0.00
    3   11   61      1.61      0.00
    5   11   61      6.72      0.00
    7   11   61     -0.25      0.00
    1   13   61     -3.07      0.00
    3   13   61      1.94      0.00
    5   13   61     -0.57      0.00
    1   15   61     -5.80      0.00
    3   15   61     -1.77      0.00
    2    0   62      2.84      0.00
    6    0   62     -7.21      0.00
   10    0   62     -0.51      0.00
    0    2   62     -6.11      0.00
    2    2   62      2.69      0.00
    4    2   62      5.43      0.00
    6    2   62     -4.67      0.00
    8    2   62     -4.94      0.00
   10    2   62      2.93      0.00
    2    4   62     -4.53      0.00
    4    4   62     -0.57      0.00
    6    4   62      1.81      0.00
    8    4   62     -2.08      0.00
   10    4   62      2.46      0.00
    0    6   62      1.49      0.00
    2    6   62     -1.93      0.00
    4    6   62      2.54      0.00
    6    6   62      7.39      0.00
    8    6   62      3.23      0.00
    2    8   62     -1.59      0.00
    4    8   62      5.34      0.00
    6    8   62      0.30      0.00
    8    8   62     -0.29      0.00
    0   10   62     10.42      0.00
    2   10   62     -0.48      0.00
    4   10   62     -5.34      0.00
    6   10   62      3.26      0.00
    8   10   62      1.84      0.00
    2   12   62      4.14      0.00
    4   12   62      0.05      0.00
    6   12   62     -1.69      0.00
    0   14   62      8.13      0.00
    2   14   62     -1.91      0.00
    4   14   62     -0.67      0.00
    1    1   63     -1.30      0.00
    3    1   63     -3.33      0.00
    5    1   63      1.53      0.00
    7    1   63     -0.35      0.00
    9    1   63     -0.65      0.00
    1    3   63     -4.23      0.00
    3    3   63     -5.75      0.00
    5    3   63      3.78      0.00
    7    3   63      4.26      0.00
    9    3   63     -0.82      0.00
    1    5   63     -0.06      0.00
    3    5   63     -6.34      0.00
    5    5   63     -8.51      0.00
    7    5   63      2.32      0.00
    9    5   63      0.12      0.00
    1    7   63      5.55      0.00
    3    7   63      3.16      0.00
    5    7   63     -3.54      0.00
    7    7   63     -0.14      0.00
    9    7   63      3.71      0.00
    1    9   63     -4.37      0.00
    3    9   63      3.54      0.00
    5    9   63      1.00      0.00
    7    9   63     -6.33      0.00
    1   11   63      1.97      0.00
    3   11   63     -7.39      0.00
    5   11   63     -0.69      0.00
    7   11   63      4.73      0.00
    1   13   63     -2.34      0.00
    3   13   63      2.71      0.00
    5   13   63      3.56      0.00
    1   15   63      6.28      0.00
    0    0   64     11.30      0.00
    4    0   64     -1.91      0.00
    8    0   64      3.35      0.00
    2    2   64      7.69      0.00
    4    2   64      0.66      0.00
    6    2   64     -5.34      0.00
    8    2   64     -6.47      0.00
    0    4   64      0.83      0.00
    2    4   64      6.95      0.00
    4    4   64      3.82      0.00
    6    4   64      0.68      0.00
    8    4   64     -2.72      0.00
    2    6   64      0.53      0.00
    4    6   64      2.38      0.00
    6    6   64     -5.65      0.00
    8    6   64     -1.16      0.00
    0    8   64     -1.72      0.00
    2    8   64     -5.05      0.00
    4    8   64     -3.22      0.00
    6    8   64      4.24      0.00
    8    8   64     -0.47      0.00
    2   10   64     -2.58      0.00
    4   10   64      4.26      0.00
    6   10   64      3.53      0.00
    0   12   64     -5.63      0.00
    2   12   64      3.38      0.00
    4   12   64     -5.42      0.00
    2   14   64      4.88      0.00
    1    1   65      2.70      0.00
    3    1   65     -1.28      0.00
    5    1   65      0.30      0.00
    7    1   65      2.94      0.00
    9    1   65      5.30      0.00
    1    3   65     -8.55      0.00
    3    3   65     -0.04      0.00
    5    3   65      4.78      0.00
    7    3   65      5.30      0.00
    9    3   65     -2.05      0.00
    1    5   65     -5.42      0.00
    3    5   65     -3.94      0.00
    5    5   65     -1.95      0.00
    7    5   65      7.70      0.00
    9    5   65     -0.84      0.00
    1    7   65      7.78      0.00
    3    7   65      2.07      0.00
    5    7   65      0.83      0.00
    7    7   65     -1.15      0.00
    1    9   65     -0.64      0.00
    3    9   65     -4.08      0.00
    5    9   65     -4.54      0.00
    7    9   65     -0.39      0.00
    1   11   65     -0.16      0.00
    3   11   65      3.00      0.00
    5   11   65     -3.72      0.00
    1   13   65     -8.19      0.00
    3   13   65     -3.25      0.00
    2    0   66     -7.23      0.00
    6    0   66      3.62      0.00
    0    2   66     -0.55      0.00
    2    2   66      5.19      0.00
    4    2   66     -1.28      0.00
    6    2   66     -6.47      0.00
    8    2   66     -5.17      0.00
    2    4   66      9.55      0.00
    4    4   66      1.37      0.00
    6    4   66     -3.24      0.00
    8    4   66      0.95      0.00
    0    6   66      1.78      0.00
    2    6   66     -3.44      0.00
    4    6   66     -0.34      0.00
    6    6   66     -6.66      0.00
    8    6   66      1.73      0.00
    2    8   66      4.73      0.00
    4    8   66      4.70      0.00
    6    8   66     -0.30      0.00
    0   10   66      7.64      0.00
    2   10   66      0.47      0.00
    4   10   66      4.72      0.00
    6   10   66      9.10      0.00
    2   12   66      5.74      0.00
    4   12   66     12.56      0.00
    1    1   67     -0.29      0.00
    3    1   67     -0.95      0.00
    5    1   67     -0.53      0.00
    7    1   67      4.50      0.00
    9    1   67      3.81      0.00
    1    3   67     -7.65      0.00
    3    3   67     -1.03      0.00
    5    3   67      2.48      0.00
    7    3   67     -1.38      0.00
    1    5   67     -5.23      0.00
    3    5   67      3.77      0.00
    5    5   67      1.02      0.00
    7    5   67      1.29      0.00
    1    7   67     -4.33      0.00
    3    7   67     -9.53      0.00
    5    7   67      7.92      0.00
    7    7   67     -1.66      0.00
    1    9   67    -11.33      0.00
    3    9   67     -2.51      0.00
    5    9   67     -4.63      0.00
    1   11   67      6.15      0.00
    3   11   67     -8.61      0.00
    5   11   67     -6.53      0.00
    1   13   67      1.61      0.00
    0    0   68     -1.87      0.00
    4    0   68      1.39      0.00
    8    0   68     -8.06      0.00
    2    2   68     -0.18      0.00
    4    2   68      2.93      0.00
    6    2   68     -1.13      0.00
    8    2   68     -3.12      0.00
    0    4   68     13.67      0.00
    2    4   68      2.08      0.00
    4    4   68     -4.02      0.00
    6    4   68     -0.76      0.00
    8    4   68      0.30      0.00
    2    6   68      3.91      0.00
    4    6   68     -3.38      0.00
    6    6   68     -4.81      0.00
    0    8   68     15.12      0.00
    2    8   68      3.31      0.00
    4    8   68     -6.24      0.00
    6    8   68     13.14      0.00
    2   10   68     -2.56      0.00
    4   10   68      9.87      0.00
    0   12   68    -14.96      0.00
    2   12   68      2.41      0.00
    1    1   69      0.88      0.00
    3    1   69     -0.02      0.00
    5    1   69     -2.69      0.00
    7    1   69      6.59      0.00
    1    3   69     -2.91      0.00
    3    3   69     -4.73      0.00
    5    3   69      0.58      0.00
    7    3   69      3.44      0.00
    1    5   69      0.45      0.00
    3    5   69      4.06      0.00
    5    5   69      3.09      0.00
    7    5   69     -4.64      0.00
    1    7   69    -10.44      0.00
    3    7   69      9.42      0.00
    5    7   69      0.95      0.00
    1    9   69      6.62      0.00
    3    9   69     -0.90      0.00
    5    9   69    -13.00      0.00
    1   11   69     11.41      0.00
    3   11   69     -7.49      0.00
    2    0   70      3.16      0.00
    6    0   70     -1.69      0.00
    0    2   70      0.42      0.00
    2    2   70      2.57      0.00
    4    2   70      5.63      0.00
    6    2   70     -3.71      0.00
    2    4   70     -2.25      0.00
    4    4   70     -0.43      0.00
    6    4   70      0.63      0.00
    0    6   70      3.62      0.00
    2    6   70     -1.61      0.00
    4    6   70     -1.05      0.00
    6    6   70      6.28      0.00
    2    8   70     -6.09      0.00
    4    8   70      2.00      0.00
    0   10   70     -6.31      0.00
    2   10   70      0.41      0.00
    4   10   70      6.89      0.00
    1    1   71     -0.07      0.00
    3    1   71     -3.85      0.00
    5    1   71     -2.37      0.00
    7    1   71      3.42      0.00
    1    3   71     -2.30      0.00
    3    3   71     -7.49      0.00
    5    3   71      4.40      0.00
    7    3   71      2.35      0.00
    1    5   71      0.30      0.00
    3    5   71     -0.94      0.00
    5    5   71     -2.18      0.00
    1    7   71      3.79      0.00
    3    7   71      6.50      0.00
    5    7   71     -2.26      0.00
    1    9   71      3.11      0.00
    3    9   71     -1.62      0.00
    1   11   71      1.23      0.00
    0    0   72      1.70      0.00
    4    0   72     -0.48      0.00
    2    2   72      3.50      0.00
    4    2   72      0.27      0.00
    6    2   72     -6.03      0.00
    0    4   72     -6.32      0.00
    2    4   72      4.48      0.00
    4    4   72     -1.71      0.00
    6    4   72      2.75      0.00
    2    6   72     -1.97      0.00
    4    6   72     -2.24      0.00
    6    6   72     -0.76      0.00
    0    8   72      1.83      0.00
    2    8   72     -5.38      0.00
    4    8   72      4.85      0.00
    2   10   72     -4.08      0.00
    1    1   73      1.08      0.00
    3    1   73      0.43      0.00
    5    1   73      1.52      0.00
    1    3   73      0.58      0.00
    3    3   73     -2.87      0.00
    5    3   73      3.20      0.00
    1    5   73     -7.93      0.00
    3    5   73      7.72      0.00
    5    5   73      1.49      0.00
    1    7   73      5.30      0.00
    3    7   73      4.24      0.00
    1    9   73      7.96      0.00
    3    9   73     -2.94      0.00
    2    0   74     -5.99      0.00
    6    0   74     -2.89      0.00
    0    2   74     -5.63      0.00
    2    2   74      3.62      0.00
    4    2   74      0.61      0.00
    6    2   74     -0.70      0.00
    2    4   74      4.99      0.00
    4    4   74     -5.10      0.00
    0    6   74      3.55      0.00
    2    6   74    -15.21      0.00
    4    6   74      2.08      0.00
    2    8   74     -4.79      0.00
    1    1   75      3.98      0.00
    3    1   75     -1.09      0.00
    5    1   75      1.20      0.00
    1    3   75     -6.00      0.00
    3    3   75      1.87      0.00
    5    3   75      1.27      0.00
    1    5   75      6.62      0.00
    3    5   75      5.97      0.00
    1    7   75      7.43      0.00
    3    7   75     -5.49      0.00
    0    0   76    -15.13      0.00
    4    0   76     -2.02      0.00
    2    2   76      6.46      0.00
    4    2   76      1.37      0.00
    0    4   76      0.17      0.00
    2    4   76    -10.06      0.00
    4    4   76     -4.14      0.00
    2    6   76     -2.08      0.00
    1    1   77     -8.20      0.00
    3    1   77     -1.44      0.00
    1    3   77      3.66      0.00
    3    3   77      5.36      0.00
    1    5   77      3.20      0.00
    3    5   77     -0.42      0.00
    2    0   78      6.46      0.00
    0    2   78      2.59      0.00
    2    2   78     -3.15      0.00
    2    4   78     -1.33      0.00
    1    1   79     -0.50      0.00
    1    3   79     -0.73      0.00
    0    0   80      0.54      0.00
    1    1    1    575.15      0.00
    0    0    4    128.20      0.00
   13   15    9    -12.64      0.00
   16    6   10      1.27      0.00
   13   15   11     -1.77      0.00
   16    6   12    -10.91      0.00
    2   24   12     -7.94      0.00
   13   15   13     -3.90      0.00
    5   23   13    -10.28      0.00
    2   24   14      6.89      0.00
    5   23   15     -5.92      0.00
    0   24   16      2.52      0.00
   16    4   18      1.86      0.00
   14   12   18     -0.58      0.00
   12   16   18      1.01      0.00
   15    9   19      3.65      0.00
   14   12   20     -1.49      0.00
   12   16   20    -14.41      0.00
    6   22   20      0.58      0.00
   16    2   22     -5.79      0.00
   11   17   23     11.72      0.00
    7   21   23     -2.58      0.00
    3   23   23     -0.56      0.00
    7   21   25      2.09      0.00
   10   18   26      4.74      0.00
    8   20   26      4.06      0.00
   15    7   27     -0.75      0.00
   13   13   27      4.50      0.00
    9   19   27     -7.07      0.00
    1   23   27      0.16      0.00
   14   10   28     -6.15      0.00
    4   22   30     -7.77      0.00
   15    5   31      1.66      0.00
   12   14   32     -7.70      0.00
    5   21   33      9.72      0.00
    2   22   34     -2.03      0.00
   15    1   35      0.80      0.00
   13   11   35     -0.71      0.00
   11   15   35      2.45      0.00
    6   20   36     -8.58      0.00
    8   18   38     -2.05      0.00
    9   17   39      1.47      0.00
    3   21   39      0.89      0.00
   12    0   40    -15.75      0.00
   12   12   40     -8.83      0.00
   13    9   41     -0.41      0.00
    1   21   41      4.64      0.00
   14    4   42     -1.75      0.00
    4   20   42     -0.64      0.00
   11   13   43      5.10      0.00
   13    7   45      0.30      0.00
    5   19   45      4.11      0.00
    6   18   46      3.89      0.00
    2   20   46     -5.09      0.00
    9   15   47     -0.85      0.00
    7   17   47      2.26      0.00
   13    3   49     -0.88      0.00
   11   11   49      3.20      0.00
    3   19   49      0.38      0.00
    1   19   51      1.61      0.00
   12    6   52     -4.31      0.00
   11    9   53     -1.60      0.00
    9   13   53     -3.10      0.00
    5   17   53      5.04      0.00
   12    4   54      1.99      0.00
    8   14   54     -1.75      0.00
    6   16   54     -0.10      0.00
    2   18   54      1.15      0.00
   12    0   56     -6.13      0.00
    9   11   57      1.50      0.00
    4   16   58      2.44      0.00
    7   13   59      0.31      0.00
    5   15   59     -3.86      0.00
    2   16   60      2.93      0.00
    9    9   61      2.96      0.00
   10    2   64      2.12      0.00
    6   12   64     -0.18      0.00
    0   14   66      8.62      0.00
    9    3   67     -3.31      0.00
    7    9   67     -6.24      0.00
    3   13   67     -2.53      0.00
    8    6   68      5.25      0.00
    7    7   69    -11.47      0.00
    8    2   70     -1.00      0.00
    6    8   70      8.77      0.00
    7    5   71     -1.61      0.00
    5    9   71     -9.74      0.00
    7    1   73      2.95      0.00
    5    7   73     -6.28      0.00
    6    4   74     -0.72      0.00
    5    5   75      0.30      0.00
    1    9   75     -1.17      0.00
    0    8   76     -2.27      0.00
    1    7   77     -3.65      0.00
    4    2   78      3.23      0.00
    0    6   78      3.63      0.00
    3    1   79      1.01      0.00
    0    0    0      0.00      0.00
# SQUEEZE RESULTS (Version =  21116)
# Note: Data are Listed for all Voids in the P1 Unit Cell
# i.e. Centre of Gravity, Solvent Accessible Volume,
# Recovered number of Electrons in the Void and
# Details about the Squeezed Material
loop_
  _platon_squeeze_void_nr
  _platon_squeeze_void_average_x
  _platon_squeeze_void_average_y
  _platon_squeeze_void_average_z
  _platon_squeeze_void_volume
  _platon_squeeze_void_count_electrons
  _platon_squeeze_void_content
   1 -0.040  0.460 -0.016      4713      1136 ' '
   2  0.125  0.834  0.125        10         9 ' '
   3  0.125  0.125  0.125         9         0 ' '
   4  0.125  0.416  0.125        10         9 ' '
   5  0.125  0.125  0.328        11         0 ' '
   6  0.125  0.625  0.422        11         0 ' '
   7  0.125  0.334  0.625        10         9 ' '
   8  0.125  0.625  0.625         9         0 ' '
   9  0.125  0.916  0.625        10         9 ' '
  10  0.125  0.625  0.828        11         0 ' '
  11  0.125  0.125  0.922        11         0 ' '
  12  0.375  0.375  0.078        11         0 ' '
  13  0.375  0.875  0.172        11         0 ' '
  14  0.375  0.166  0.375        10         9 ' '
  15  0.375  0.584  0.375        10         9 ' '
  16  0.375  0.875  0.375         9         0 ' '
  17  0.375  0.875  0.578        11         0 ' '
  18  0.375  0.375  0.672        11         0 ' '
  19  0.375  0.666  0.875        10         9 ' '
  20  0.375  0.084  0.875        10         9 ' '
  21  0.375  0.375  0.875         9         0 ' '
  22  0.625  0.334  0.125        10         9 ' '
  23  0.625  0.625  0.125         9         0 ' '
  24  0.625  0.916  0.125        10         9 ' '
  25  0.625  0.625  0.328        11         0 ' '
  26  0.625  0.125  0.422        11         0 ' '
  27  0.625  0.834  0.625        10         9 ' '
  28  0.625  0.125  0.625         9         0 ' '
  29  0.625  0.416  0.625        10         9 ' '
  30  0.625  0.125  0.828        11         0 ' '
  31  0.625  0.625  0.922        11         0 ' '
  32  0.875  0.875  0.078        11         0 ' '
  33  0.875  0.375  0.172        11         0 ' '
  34  0.875  0.666  0.375        10         9 ' '
  35  0.875  0.084  0.375        10         9 ' '
  36  0.875  0.375  0.375         9         0 ' '
  37  0.875  0.375  0.578        11         0 ' '
  38  0.875  0.875  0.672        11         0 ' '
  39  0.875  0.166  0.875        10         9 ' '
  40  0.875  0.584  0.875        10         9 ' '
  41  0.875  0.875  0.875         9         0 ' '
# Missing Reflections Below sin(th)/lambda = 0.25
loop_
  _platon_missing_refln_index_h
  _platon_missing_refln_index_k
  _platon_missing_refln_index_l
  _platon_missing_refln_theta
    1    1    1     1.944
    0    0    4     1.314
_platon_squeeze_void_probe_radius                  1.20
_platon_squeeze_details
)
TITL mo_xjr2016F d d dicd_0mR = 0.09
CELL   12.8500   18.9060   61.9800     90.00     90.00     90.00
SPGR Fddd
# Solvent Accessible Volume =      5101
# Electrons Found in S.A.V. =      1267
# Note: Atoms in Void as Cxxx and Qxxx all others
C101 0.125 0.422 0.124 !       8.47 eA-3
C102 0.519 0.125 0.125 !       4.35 eA-3
Q103 0.157 0.702 0.084 !       2.14 eA-3
Q104 0.657 0.202 0.084 !       2.14 eA-3
C105 0.817 0.239 0.032 !       1.62 eA-3
C106 0.459 0.230 0.232 !       1.49 eA-3
C107 0.250 0.500 0.250 !       1.40 eA-3
C108 0.529 0.061 0.032 !       1.22 eA-3
C109 0.339 0.472 0.243 !       1.14 eA-3
C110 0.779 0.200 0.074 !       1.09 eA-3
C111 0.345 0.357 0.299 !       1.06 eA-3
C112 0.580 0.144 0.196 !       1.04 eA-3
C113 0.389 0.415 0.258 !       1.00 eA-3
Q114 0.652 0.485 0.144 !       0.92 eA-3
C115 0.361 0.407 0.274 !       0.91 eA-3
C116 0.456 0.455 0.490 !       0.86 eA-3
C117 0.436 0.408 0.460 !       0.86 eA-3
Q118 0.781 0.216 0.280 !       0.76 eA-3
Q119 0.189 0.219 0.279 !       0.69 eA-3
Q120 0.112 0.349 0.304 !       0.68 eA-3
Q121 0.929 0.442 0.218 !       0.67 eA-3
Q122 0.839 0.449 0.427 !       0.67 eA-3
Q123 0.574 0.286 0.415 !       0.65 eA-3
C124 0.334 0.411 0.262 !       0.64 eA-3
Q125 0.298 0.190 0.310 !       0.64 eA-3
Q126 0.908 0.040-0.001 !       0.63 eA-3
C127 0.847 0.448 0.001 !       0.59 eA-3
C128 0.187 0.281 0.441 !       0.56 eA-3
C129 0.859 0.343 0.018 !       0.53 eA-3
Q130 0.112 0.096 0.410 !       0.52 eA-3
)
;
_shelx_shelxl_version_number     2014/7
_olex2_submission_special_instructions 'No special instructions were received'
loop_
_space_group_symop_operation_xyz
'x, y, z'
'x, -y+1/4, -z+1/4'
'-x+1/4, y, -z+1/4'
'-x+1/4, -y+1/4, z'
'x, y+1/2, z+1/2'
'x, -y+3/4, -z+3/4'
'-x+1/4, y+1/2, -z+3/4'
'-x+1/4, -y+3/4, z+1/2'
'x+1/2, y, z+1/2'
'x+1/2, -y+1/4, -z+3/4'
'-x+3/4, y, -z+3/4'
'-x+3/4, -y+1/4, z+1/2'
'x+1/2, y+1/2, z'
'x+1/2, -y+3/4, -z+1/4'
'-x+3/4, y+1/2, -z+1/4'
'-x+3/4, -y+3/4, z'
'-x, -y, -z'
'-x, y-1/4, z-1/4'
'x-1/4, -y, z-1/4'
'x-1/4, y-1/4, -z'
'-x, -y+1/2, -z+1/2'
'-x, y+1/4, z+1/4'
'x-1/4, -y+1/2, z+1/4'
'x-1/4, y+1/4, -z+1/2'
'-x+1/2, -y, -z+1/2'
'-x+1/2, y-1/4, z+1/4'
'x+1/4, -y, z+1/4'
'x+1/4, y-1/4, -z+1/2'
'-x+1/2, -y+1/2, -z'
'-x+1/2, y+1/4, z-1/4'
'x+1/4, -y+1/2, z-1/4'
'x+1/4, y+1/4, -z'
loop_
_atom_site_label
_atom_site_type_symbol
_atom_site_fract_x
_atom_site_fract_y
_atom_site_fract_z
_atom_site_U_iso_or_equiv
_atom_site_adp_type
_atom_site_occupancy
_atom_site_site_symmetry_order
_atom_site_calc_flag
_atom_site_refinement_flags_posn
_atom_site_refinement_flags_adp
_atom_site_refinement_flags_occupancy
Cd1 Cd 0.3750 0.8750 0.65445(2) 0.03739(9) Uani 1 2 d S T P
O1 O 0.46360(13) 0.58625(10) 0.41964(3) 0.0533(4) Uani 1 1 d . . .
O2 O 0.53770(13) 0.68094(9) 0.43371(3) 0.0507(4) Uani 1 1 d . . .
O3 O 0.28475(13) 0.81659(9) 0.62908(2) 0.0464(4) Uani 1 1 d . . .
O4 O 0.43241(13) 0.75928(10) 0.62494(3) 0.0550(4) Uani 1 1 d . . .
N1 N 0.22474(13) 0.65033(9) 0.52400(2) 0.0306(4) Uani 1 1 d . . .
C16 C 0.46935(19) 0.63453(13) 0.43388(3) 0.0426(6) Uani 1 1 d . . .
C1 C 0.34257(17) 0.77420(11) 0.61902(3) 0.0364(5) Uani 1 1 d . . .
C2 C 0.29932(16) 0.74078(11) 0.59893(3) 0.0319(4) Uani 1 1 d . . .
C7 C 0.36480(16) 0.71177(13) 0.58349(4) 0.0437(5) Uani 1 1 d . . .
H7 H 0.4365 0.7132 0.5855 0.052 Uiso 1 1 calc R . .
C6 C 0.32459(16) 0.68071(13) 0.56505(3) 0.0414(5) Uani 1 1 d . . .
H6 H 0.3693 0.6623 0.5547 0.050 Uiso 1 1 calc R . .
C5 C 0.21810(15) 0.67692(10) 0.56201(3) 0.0292(4) Uani 1 1 d . . .
C8 C 0.17295(15) 0.64305(10) 0.54257(3) 0.0271(4) Uani 1 1 d . . .
C9 C 0.17830(15) 0.63313(10) 0.50533(3) 0.0279(4) Uani 1 1 d . . .
C10 C 0.24891(16) 0.63316(11) 0.48629(3) 0.0316(4) Uani 1 1 d . . .
C15 C 0.33308(18) 0.67922(12) 0.48606(3) 0.0388(5) Uani 1 1 d . . .
H15 H 0.3431 0.7100 0.4976 0.047 Uiso 1 1 calc R . .
C14 C 0.40221(18) 0.68003(12) 0.46899(4) 0.0433(5) Uani 1 1 d . . .
H14 H 0.4574 0.7119 0.4690 0.052 Uiso 1 1 calc R . .
C13 C 0.39006(17) 0.63394(12) 0.45186(3) 0.0388(5) Uani 1 1 d . . .
C12 C 0.3073(2) 0.58733(13) 0.45209(3) 0.0474(6) Uani 1 1 d . . .
H12 H 0.2988 0.5558 0.4407 0.057 Uiso 1 1 calc R . .
C11 C 0.23681(19) 0.58674(13) 0.46903(4) 0.0450(6) Uani 1 1 d . . .
H11 H 0.1812 0.5552 0.4689 0.054 Uiso 1 1 calc R . .
C4 C 0.15277(15) 0.70759(10) 0.57725(3) 0.0312(4) Uani 1 1 d . . .
H4 H 0.0811 0.7064 0.5752 0.037 Uiso 1 1 calc R . .
C3 C 0.19277(16) 0.73966(11) 0.59536(3) 0.0329(4) Uani 1 1 d . . .
H3 H 0.1481 0.7607 0.6053 0.039 Uiso 1 1 calc R . .
loop_
_atom_site_aniso_label
_atom_site_aniso_U_11
_atom_site_aniso_U_22
_atom_site_aniso_U_33
_atom_site_aniso_U_23
_atom_site_aniso_U_13
_atom_site_aniso_U_12
Cd1 0.02589(12) 0.06996(17) 0.01632(11) 0.000 0.000 -0.01232(10)
O1 0.0550(10) 0.0763(11) 0.0288(9) -0.0044(8) 0.0142(8) 0.0153(9)
O2 0.0444(10) 0.0693(11) 0.0384(10) 0.0046(8) 0.0152(7) 0.0093(9)
O3 0.0493(9) 0.0603(10) 0.0297(9) -0.0182(7) -0.0034(7) -0.0005(8)
O4 0.0429(9) 0.0718(11) 0.0504(10) -0.0147(9) -0.0204(8) -0.0029(8)
N1 0.0342(9) 0.0406(9) 0.0172(8) -0.0023(7) 0.0037(7) -0.0014(7)
C16 0.0428(13) 0.0624(15) 0.0227(11) 0.0064(10) 0.0068(9) 0.0209(12)
C1 0.0387(12) 0.0438(12) 0.0266(11) -0.0035(9) -0.0045(9) -0.0070(10)
C2 0.0322(10) 0.0413(11) 0.0222(10) -0.0051(8) -0.0022(8) -0.0032(9)
C7 0.0232(10) 0.0696(15) 0.0384(13) -0.0160(11) 0.0010(9) -0.0049(10)
C6 0.0291(11) 0.0659(15) 0.0292(12) -0.0187(10) 0.0071(9) -0.0029(10)
C5 0.0320(10) 0.0393(11) 0.0163(9) -0.0028(8) 0.0001(8) -0.0039(9)
C8 0.0295(9) 0.0370(11) 0.0148(9) 0.0007(7) 0.0005(7) 0.0026(8)
C9 0.0356(10) 0.0334(10) 0.0148(9) -0.0003(7) 0.0019(8) 0.0018(9)
C10 0.0374(11) 0.0418(11) 0.0157(9) -0.0008(8) 0.0032(8) 0.0051(9)
C15 0.0456(12) 0.0470(12) 0.0237(11) -0.0037(9) 0.0083(9) -0.0036(11)
C14 0.0442(13) 0.0527(13) 0.0329(12) 0.0013(10) 0.0114(10) -0.0023(11)
C13 0.0400(12) 0.0525(13) 0.0241(10) 0.0027(9) 0.0083(9) 0.0124(10)
C12 0.0566(15) 0.0635(15) 0.0219(11) -0.0133(10) 0.0070(10) 0.0046(13)
C11 0.0474(13) 0.0608(14) 0.0269(12) -0.0120(10) 0.0067(10) -0.0085(11)
C4 0.0265(10) 0.0443(11) 0.0228(10) -0.0047(8) -0.0020(8) 0.0030(8)
C3 0.0301(10) 0.0452(11) 0.0233(10) -0.0090(8) 0.0026(8) 0.0021(9)
loop_
_atom_type_symbol
_atom_type_description
_atom_type_scat_dispersion_real
_atom_type_scat_dispersion_imag
_atom_type_scat_source
C C 0.0033 0.0016 'International Tables Vol C Tables 4.2.6.8 and 6.1.1.4'
H H 0.0000 0.0000 'International Tables Vol C Tables 4.2.6.8 and 6.1.1.4'
Cd Cd -0.8075 1.2024 'International Tables Vol C Tables 4.2.6.8 and 6.1.1.4'
N N 0.0061 0.0033 'International Tables Vol C Tables 4.2.6.8 and 6.1.1.4'
O O 0.0106 0.0060 'International Tables Vol C Tables 4.2.6.8 and 6.1.1.4'
loop_
_geom_angle_atom_site_label_1
_geom_angle_atom_site_label_2
_geom_angle_atom_site_label_3
_geom_angle
_geom_angle_site_symmetry_1
_geom_angle_site_symmetry_3
O1 Cd1 O1 133.66(8) 22_655 23_565
O1 Cd1 C16 27.96(7) 23_565 23_565
O1 Cd1 C16 27.96(7) 22_655 22_655
O1 Cd1 C16 110.74(7) 23_565 22_655
O1 Cd1 C16 110.74(7) 22_655 23_565
O2 Cd1 O1 88.44(6) 23_565 22_655
O2 Cd1 O1 55.09(6) 22_655 22_655
O2 Cd1 O1 55.09(6) 23_565 23_565
O2 Cd1 O1 88.44(6) 22_655 23_565
O2 Cd1 O2 80.75(8) 22_655 23_565
O2 Cd1 C16 27.22(6) 23_565 23_565
O2 Cd1 C16 82.23(7) 23_565 22_655
O2 Cd1 C16 82.23(7) 22_655 23_565
O2 Cd1 C16 27.22(6) 22_655 22_655
O3 Cd1 O1 124.95(6) . 22_655
O3 Cd1 O1 88.76(6) 16_565 22_655
O3 Cd1 O1 124.95(6) 16_565 23_565
O3 Cd1 O1 88.76(6) . 23_565
O3 Cd1 O2 174.85(6) . 22_655
O3 Cd1 O2 174.85(6) 16_565 23_565
O3 Cd1 O2 94.10(7) 16_565 22_655
O3 Cd1 O2 94.10(7) . 23_565
O3 Cd1 O3 91.05(9) . 16_565
O3 Cd1 C16 93.29(7) 16_565 22_655
O3 Cd1 C16 152.22(7) . 22_655
O3 Cd1 C16 152.22(7) 16_565 23_565
O3 Cd1 C16 93.29(7) . 23_565
C16 Cd1 C16 95.49(10) 22_655 23_565
C16 O1 Cd1 90.17(15) . 18_655
C16 O2 Cd1 91.48(13) . 18_655
C1 O3 Cd1 110.83(14) . .
C8 N1 C9 119.74(17) . .
O1 C16 Cd1 61.87(12) . 18_655
O1 C16 C13 117.9(2) . .
O2 C16 Cd1 61.29(11) . 18_655
O2 C16 O1 122.8(2) . .
O2 C16 C13 119.3(2) . .
C13 C16 Cd1 173.30(15) . 18_655
O3 C1 C2 117.40(19) . .
O4 C1 O3 123.10(19) . .
O4 C1 C2 119.5(2) . .
C7 C2 C1 120.90(19) . .
C3 C2 C1 120.25(18) . .
C3 C2 C7 118.84(18) . .
C2 C7 H7 119.6 . .
C6 C7 C2 120.71(19) . .
C6 C7 H7 119.6 . .
C7 C6 H6 119.9 . .
C5 C6 C7 120.22(19) . .
C5 C6 H6 119.9 . .
C6 C5 C8 121.34(17) . .
C6 C5 C4 118.90(18) . .
C4 C5 C8 119.73(17) . .
N1 C8 C5 117.42(17) . .
N1 C8 C8 119.04(11) . 4_565
C8 C8 C5 123.47(11) 4_565 .
N1 C9 C9 119.15(11) . 4_565
N1 C9 C10 114.35(17) . .
C9 C9 C10 126.50(11) 4_565 .
C15 C10 C9 118.87(17) . .
C15 C10 C11 118.33(19) . .
C11 C10 C9 122.73(19) . .
C10 C15 H15 119.5 . .
C14 C15 C10 121.0(2) . .
C14 C15 H15 119.5 . .
C15 C14 H14 119.7 . .
C15 C14 C13 120.6(2) . .
C13 C14 H14 119.7 . .
C14 C13 C16 119.1(2) . .
C12 C13 C16 122.1(2) . .
C12 C13 C14 118.77(19) . .
C13 C12 H12 119.5 . .
C13 C12 C11 121.1(2) . .
C11 C12 H12 119.5 . .
C10 C11 H11 119.9 . .
C12 C11 C10 120.2(2) . .
C12 C11 H11 119.9 . .
C5 C4 H4 119.6 . .
C3 C4 C5 120.84(18) . .
C3 C4 H4 119.6 . .
C2 C3 H3 119.8 . .
C4 C3 C2 120.39(18) . .
C4 C3 H3 119.8 . .
loop_
_geom_bond_atom_site_label_1
_geom_bond_atom_site_label_2
_geom_bond_distance
_geom_bond_site_symmetry_2
Cd1 O1 2.3926(18) 22_655
Cd1 O1 2.3926(18) 23_565
Cd1 O2 2.3802(17) 22_655
Cd1 O2 2.3802(17) 23_565
Cd1 O3 2.2442(15) 16_565
Cd1 O3 2.2442(15) .
Cd1 C16 2.713(2) 23_565
Cd1 C16 2.713(2) 22_655
O1 Cd1 2.3926(18) 18_655
O1 C16 1.272(3) .
O2 Cd1 2.3803(17) 18_655
O2 C16 1.242(3) .
O3 C1 1.258(3) .
O4 C1 1.244(3) .
N1 C8 1.337(2) .
N1 C9 1.342(2) .
C16 Cd1 2.713(2) 18_655
C16 C13 1.510(3) .
C1 C2 1.503(3) .
C2 C7 1.388(3) .
C2 C3 1.387(3) .
C7 H7 0.9300 .
C7 C6 1.385(3) .
C6 H6 0.9300 .
C6 C5 1.383(3) .
C5 C8 1.483(3) .
C5 C4 1.391(3) .
C8 C8 1.409(4) 4_565
C9 C9 1.404(4) 4_565
C9 C10 1.489(3) .
C10 C15 1.389(3) .
C10 C11 1.392(3) .
C15 H15 0.9300 .
C15 C14 1.382(3) .
C14 H14 0.9300 .
C14 C13 1.383(3) .
C13 C12 1.381(3) .
C12 H12 0.9300 .
C12 C11 1.387(3) .
C11 H11 0.9300 .
C4 H4 0.9300 .
C4 C3 1.375(3) .
C3 H3 0.9300 .
loop_
_geom_torsion_atom_site_label_1
_geom_torsion_atom_site_label_2
_geom_torsion_atom_site_label_3
_geom_torsion_atom_site_label_4
_geom_torsion
_geom_torsion_site_symmetry_1
_geom_torsion_site_symmetry_4
Cd1 O1 C16 O2 6.6(2) 18_655 .
Cd1 O1 C16 C13 -172.42(17) 18_655 .
Cd1 O2 C16 O1 -6.6(2) 18_655 .
Cd1 O2 C16 C13 172.37(17) 18_655 .
Cd1 O3 C1 O4 10.8(3) . .
Cd1 O3 C1 C2 -169.10(14) . .
O1 C16 C13 C14 171.8(2) . .
O1 C16 C13 C12 -6.2(3) . .
O2 C16 C13 C14 -7.2(3) . .
O2 C16 C13 C12 174.8(2) . .
O3 C1 C2 C7 159.9(2) . .
O3 C1 C2 C3 -18.9(3) . .
O4 C1 C2 C7 -20.0(3) . .
O4 C1 C2 C3 161.2(2) . .
N1 C9 C10 C15 -30.3(3) . .
N1 C9 C10 C11 146.9(2) . .
C16 C13 C12 C11 178.5(2) . .
C1 C2 C7 C6 179.7(2) . .
C1 C2 C3 C4 -178.41(19) . .
C2 C7 C6 C5 -1.4(4) . .
C7 C2 C3 C4 2.8(3) . .
C7 C6 C5 C8 -179.1(2) . .
C7 C6 C5 C4 2.9(3) . .
C6 C5 C8 N1 -35.1(3) . .
C6 C5 C8 C8 147.9(2) . 4_565
C6 C5 C4 C3 -1.6(3) . .
C5 C4 C3 C2 -1.2(3) . .
C8 N1 C9 C9 8.5(3) . 4_565
C8 N1 C9 C10 -171.17(17) . .
C8 C5 C4 C3 -179.65(18) . .
C9 N1 C8 C5 -166.99(17) . .
C9 N1 C8 C8 10.1(3) . 4_565
C9 C9 C10 C15 150.1(2) 4_565 .
C9 C9 C10 C11 -32.8(4) 4_565 .
C9 C10 C15 C14 178.4(2) . .
C9 C10 C11 C12 -177.5(2) . .
C10 C15 C14 C13 -1.2(4) . .
C15 C10 C11 C12 -0.3(3) . .
C15 C14 C13 C16 -177.8(2) . .
C15 C14 C13 C12 0.3(3) . .
C14 C13 C12 C11 0.5(4) . .
C13 C12 C11 C10 -0.5(4) . .
C11 C10 C15 C14 1.2(3) . .
C4 C5 C8 N1 142.85(19) . .
C4 C5 C8 C8 -34.1(3) . 4_565
C3 C2 C7 C6 -1.5(4) . .
