#------------------------------------------------------------------------------
#$Date: 2018-11-22 01:52:04 +0200 (Thu, 22 Nov 2018) $
#$Revision: 212093 $
#$URL: file:///home/coder/svn-repositories/cod/cif/7/23/18/7231852.cif $
#------------------------------------------------------------------------------
#
# This file is available in the Crystallography Open Database (COD),
# http://www.crystallography.net/
#
# All data on this site have been placed in the public domain by the
# contributors.
#
data_7231852
loop_
_publ_author_name
'wang, tao'
'Huang, Kun'
'Peng, Mengni'
'Li, Xianglin'
'Han, Defang'
'jing, linhai'
'Qin, Dabin'
_publ_section_title
;
 Metal-Organic Frameworks Based on Tetraphenylpyrazine Derived
 Tetracarboxylic Acid for Electrocatalytic Hydrogen Evolution Reaction and
 NACs Sensing
;
_journal_name_full               CrystEngComm
_journal_paper_doi               10.1039/C8CE01868E
_journal_year                    2018
_chemical_formula_moiety         'C32 H16 N2 O8 Pb2'
_chemical_formula_sum            'C32 H16 N2 O8 Pb2'
_chemical_formula_weight         970.85
_space_group_crystal_system      triclinic
_space_group_IT_number           2
_space_group_name_Hall           '-P 1'
_space_group_name_H-M_alt        'P -1'
_symmetry_space_group_name_Hall  '-P 1'
_symmetry_space_group_name_H-M   'P -1'
_atom_sites_solution_hydrogens   geom
_audit_creation_date             2018-07-04
_audit_creation_method
;
Olex2 1.2
(compiled 2018.05.18 svn.r3508 for OlexSys, GUI svn.r5506)
;
_audit_update_record
;
2018-08-06 deposited with the CCDC.
2018-11-21 downloaded from the CCDC.
;
_cell_angle_alpha                84.722(3)
_cell_angle_beta                 72.677(3)
_cell_angle_gamma                87.758(3)
_cell_formula_units_Z            2
_cell_length_a                   9.9328(7)
_cell_length_b                   11.8804(9)
_cell_length_c                   14.8808(10)
_cell_measurement_reflns_used    9981
_cell_measurement_temperature    293(2)
_cell_measurement_theta_max      27.54
_cell_measurement_theta_min      2.33
_cell_volume                     1669.1(2)
_computing_molecular_graphics    'Olex2 (Dolomanov et al., 2009)'
_computing_publication_material  'Olex2 (Dolomanov et al., 2009)'
_computing_structure_refinement  'ShelXL (Sheldrick, 2015)'
_diffrn_ambient_temperature      293.15
_diffrn_measured_fraction_theta_full 0.994
_diffrn_measured_fraction_theta_max 0.994
_diffrn_measurement_device_type  'Bruker APEX-II CCD'
_diffrn_radiation_type           MoK\a
_diffrn_radiation_wavelength     0.71073
_diffrn_reflns_av_R_equivalents  0.0996
_diffrn_reflns_av_unetI/netI     0.0453
_diffrn_reflns_Laue_measured_fraction_full 0.994
_diffrn_reflns_Laue_measured_fraction_max 0.994
_diffrn_reflns_limit_h_max       11
_diffrn_reflns_limit_h_min       -11
_diffrn_reflns_limit_k_max       13
_diffrn_reflns_limit_k_min       -13
_diffrn_reflns_limit_l_max       17
_diffrn_reflns_limit_l_min       -17
_diffrn_reflns_number            51405
_diffrn_reflns_point_group_measured_fraction_full 0.994
_diffrn_reflns_point_group_measured_fraction_max 0.994
_diffrn_reflns_theta_full        24.406
_diffrn_reflns_theta_max         24.406
_diffrn_reflns_theta_min         2.204
_exptl_absorpt_coefficient_mu    10.122
_exptl_crystal_colour            colourless
_exptl_crystal_colour_primary    colourless
_exptl_crystal_density_diffrn    1.932
_exptl_crystal_description       block
_exptl_crystal_F_000             900
_exptl_crystal_size_max          0.23
_exptl_crystal_size_mid          0.21
_exptl_crystal_size_min          0.2
_refine_diff_density_max         1.409
_refine_diff_density_min         -1.509
_refine_diff_density_rms         0.159
_refine_ls_extinction_method     none
_refine_ls_goodness_of_fit_ref   1.074
_refine_ls_hydrogen_treatment    constr
_refine_ls_matrix_type           full
_refine_ls_number_parameters     397
_refine_ls_number_reflns         5478
_refine_ls_number_restraints     0
_refine_ls_restrained_S_all      1.074
_refine_ls_R_factor_all          0.0406
_refine_ls_R_factor_gt           0.0282
_refine_ls_shift/su_max          0.001
_refine_ls_shift/su_mean         0.000
_refine_ls_structure_factor_coef Fsqd
_refine_ls_weighting_details
'w=1/[\s^2^(Fo^2^)+(0.0224P)^2^+6.2129P] where P=(Fo^2^+2Fc^2^)/3'
_refine_ls_weighting_scheme      calc
_refine_ls_wR_factor_gt          0.0675
_refine_ls_wR_factor_ref         0.0729
_reflns_Friedel_coverage         0.000
_reflns_number_gt                4384
_reflns_number_total             5478
_reflns_threshold_expression     'I > 2\s(I)'
_cod_data_source_file            c8ce01868e2.cif
_cod_data_source_block           mo_xjr201674_0m_sq_sq
_cod_database_code               7231852
_shelx_shelxl_version_number     2018/3
_shelx_space_group_comment
;
The symmetry employed for this shelxl refinement is uniquely defined
by the following loop, which should always be used as a source of
symmetry information in preference to the above space-group names.
They are only intended as comments.
;
_shelx_estimated_absorpt_t_max   0.237
_shelx_estimated_absorpt_t_min   0.204
_olex2_refinement_description
;
1. Fixed Uiso
 At 1.2 times of:
  All C(H) groups
2. Rigid body (RIGU) restrains
 C28, C31
 with sigma for 1-2 distances of 0.004 and sigma for 1-3 distances of 0.004
3.a Aromatic/amide H refined with riding coordinates:
 C3(H3), C4(H4), C6(H6), C7(H7), C12(H12), C15(H15), C16(H16), C19(H19),
 C20(H20), C22(H22), C11(H11), C28(H28), C29(H29), C30(H30), C31(H31), C23(H23)
;
_shelx_res_file
;
TITL mo_xjr201674_0m_a.res in P-1
    mo_xjr201674_0m_sq_sq.res
    created by SHELXL-2018/3 at 10:17:18 on 04-Jul-2018
REM #####
CELL 0.71073 9.9328 11.8804 14.8808 84.722 72.677 87.758
ZERR 2 0.0007 0.0009 0.001 0.003 0.003 0.003
LATT 1
SFAC C H N O Pb
UNIT 64 32 4 16 4
RIGU C28 C31

L.S. 5 0 72
PLAN  -6
SIZE 0.2 0.21 0.23
TEMP 20
BOND $H
MORE -1
CONF
HTAB
ABIN
fmap 2
acta
SHEL 999 0.86
OMIT 0 0 2
OMIT -2 3 11
OMIT 0 2 0
OMIT -1 1 0
OMIT 1 1 1
OMIT -6 7 7
REM <olex2.extras>
REM <HklSrc "%.\\mo_xjr201674_0m_sq_sq.hkl">
REM </olex2.extras>

WGHT    0.022400    6.212900
FVAR       0.30589
O1    4    0.044026    0.185778    0.054146    11.00000    0.05230    0.03250 =
         0.04490   -0.00322   -0.03745   -0.00851
PB1   5   -0.129125    0.123877   -0.016671    11.00000    0.03567    0.02080 =
         0.02018    0.00163   -0.01483   -0.00435
N1    3    0.207245    0.339930    0.474587    11.00000    0.04386    0.02428 =
         0.02065    0.00526   -0.01850   -0.01086
C1    1    0.104720    0.139386    0.109969    11.00000    0.02844    0.02938 =
         0.02040   -0.00707   -0.00947   -0.00820
PB2   5    0.563046    0.947641    0.866196    11.00000    0.03690    0.02290 =
         0.02132    0.00128   -0.01135   -0.00725
O2    4    0.156322    0.040265    0.109131    11.00000    0.04964    0.02662 =
         0.03985   -0.01443   -0.02455    0.00326
N2    3    0.303584    0.556800    0.443922    11.00000    0.05315    0.02250 =
         0.02181   -0.00059   -0.02058   -0.00950
C2    1    0.124674    0.208008    0.185320    11.00000    0.02436    0.02742 =
         0.02648   -0.00674   -0.00851   -0.00021
O3    4    0.450515    0.854924    0.777755    11.00000    0.09477    0.05647 =
         0.05038   -0.01478   -0.04107   -0.02174
C3    1    0.125272    0.325149    0.174652    11.00000    0.04237    0.03652 =
         0.01993   -0.00566   -0.01900   -0.00042
AFIX  43
H3    2    0.105106    0.362532    0.122371    11.00000   -1.20000
AFIX   0
C21   1    0.335160    0.707252    0.736762    11.00000    0.04348    0.02800 =
         0.03041   -0.00678   -0.01685    0.00479
C4    1    0.155000    0.387020    0.239638    11.00000    0.04925    0.02177 =
         0.03018   -0.00246   -0.01931   -0.00388
AFIX  43
H4    2    0.155106    0.465526    0.230593    11.00000   -1.20000
AFIX   0
O7    4   -0.125910   -0.016838    0.098283    11.00000    0.04997    0.02550 =
         0.02407    0.00893   -0.01361   -0.01336
C5    1    0.185142    0.333727    0.319275    11.00000    0.03363    0.02140 =
         0.01437    0.00334   -0.01178   -0.00550
O6    4    0.570959    0.755565   -0.046048    11.00000    0.04424    0.03399 =
         0.03078    0.00857   -0.00178    0.00234
C6    1    0.176450    0.215753    0.333910    11.00000    0.05646    0.02797 =
         0.02149   -0.00148   -0.01859   -0.00570
AFIX  43
H6    2    0.190148    0.178820    0.388433    11.00000   -1.20000
AFIX   0
O5    4    0.415853    0.884366    0.020317    11.00000    0.03467    0.01975 =
         0.02184    0.00471   -0.01319   -0.00164
C7    1    0.147415    0.153589    0.267235    11.00000    0.05129    0.01764 =
         0.03385   -0.00025   -0.01646   -0.01063
AFIX  43
H7    2    0.143060    0.075204    0.277127    11.00000   -1.20000
AFIX   0
O4    4    0.277591    0.768062    0.892697    11.00000    0.06152    0.06859 =
         0.03869   -0.03869   -0.01574    0.00856
C18   1    0.294647    0.572347    0.604240    11.00000    0.03975    0.02666 =
         0.01964   -0.00162   -0.01533   -0.00536
C12   1    0.474484    0.600155    0.117277    11.00000    0.04111    0.03057 =
         0.02192   -0.00086   -0.00336   -0.00159
AFIX  43
H12   2    0.540995    0.573083    0.065193    11.00000   -1.20000
AFIX   0
C13   1    0.420662    0.708410    0.110405    11.00000    0.03409    0.02181 =
         0.02026    0.00418   -0.01354   -0.00503
C14   1    0.474744    0.785278    0.021431    11.00000    0.02735    0.02706 =
         0.02451    0.00986   -0.01834   -0.00825
C15   1    0.321179    0.747521    0.187775    11.00000    0.03096    0.02303 =
         0.02394    0.00221   -0.00770   -0.00139
AFIX  43
H15   2    0.282920    0.819716    0.182866    11.00000   -1.20000
AFIX   0
C16   1    0.277617    0.682096    0.271722    11.00000    0.03413    0.02216 =
         0.02474   -0.00496   -0.01007   -0.00061
AFIX  43
H16   2    0.212444    0.710610    0.323698    11.00000   -1.20000
AFIX   0
C8    1    0.225804    0.395913    0.389852    11.00000    0.03904    0.02184 =
         0.02003   -0.00158   -0.01428   -0.00330
O8    4   -0.346428   -0.065061    0.109585    11.00000    0.04222    0.03295 =
         0.03531    0.00418   -0.01935    0.00275
C17   1    0.277876    0.502983    0.530137    11.00000    0.03889    0.02633 =
         0.01598    0.00046   -0.01521   -0.01007
C19   1    0.401558    0.652481    0.578242    11.00000    0.05500    0.03846 =
         0.02044   -0.00417   -0.00844   -0.01679
AFIX  43
H19   2    0.459785    0.660709    0.516262    11.00000   -1.20000
AFIX   0
C10   1    0.331841    0.571786    0.278908    11.00000    0.03742    0.02400 =
         0.01783    0.00200   -0.01630   -0.00749
C20   1    0.421221    0.719919    0.644616    11.00000    0.04338    0.04243 =
         0.03623   -0.01232   -0.01119   -0.01492
AFIX  43
H20   2    0.492176    0.773490    0.627063    11.00000   -1.20000
AFIX   0
C9    1    0.285856    0.503822    0.373090    11.00000    0.04280    0.02160 =
         0.02671    0.00143   -0.02009   -0.00544
C22   1    0.227279    0.628884    0.763483    11.00000    0.04165    0.04787 =
         0.03233   -0.00688   -0.01414   -0.00544
AFIX  43
H22   2    0.168698    0.621269    0.825386    11.00000   -1.20000
AFIX   0
C11   1    0.431256    0.532017    0.199798    11.00000    0.04793    0.02348 =
         0.03016   -0.00137   -0.01867    0.00599
AFIX  43
H11   2    0.468111    0.459117    0.203229    11.00000   -1.20000
AFIX   0
C25   1    0.233473    0.312331    0.629430    11.00000    0.04319    0.02488 =
         0.02051    0.00326   -0.01451   -0.00721
C26   1   -0.239585   -0.075468    0.136312    11.00000    0.03226    0.02236 =
         0.02700   -0.00165   -0.01815    0.00024
C27   1   -0.235195   -0.158378    0.217249    11.00000    0.03098    0.02574 =
         0.02142    0.00516   -0.01612   -0.00671
C28   1   -0.128070   -0.155471    0.261160    11.00000    0.04042    0.02969 =
         0.02922    0.01047   -0.01427   -0.01737
AFIX  43
H28   2   -0.056385   -0.102829    0.238492    11.00000   -1.20000
AFIX   0
C29   1   -0.129323   -0.230280    0.337421    11.00000    0.03710    0.03922 =
         0.02512    0.00557   -0.01884   -0.01451
AFIX  43
H29   2   -0.059966   -0.226267    0.367375    11.00000   -1.20000
AFIX   0
C30   1   -0.339154   -0.314489    0.326774    11.00000    0.03965    0.03035 =
         0.02697    0.00563   -0.01536   -0.01867
AFIX  43
H30   2   -0.409464   -0.368444    0.348072    11.00000   -1.20000
AFIX   0
C31   1   -0.340101   -0.236993    0.251946    11.00000    0.03154    0.03879 =
         0.03050    0.00555   -0.01823   -0.01211
AFIX  43
H31   2   -0.412820   -0.237942    0.224549    11.00000   -1.20000
AFIX   0
C32   1    0.237773    0.388905    0.543830    11.00000    0.04423    0.02173 =
         0.01939   -0.00077   -0.01570   -0.00514
C24   1    0.354555    0.782214    0.809822    11.00000    0.04953    0.03545 =
         0.04690   -0.01688   -0.02820    0.01052
C23   1    0.207943    0.561869    0.696423    11.00000    0.04570    0.03538 =
         0.03156   -0.00361   -0.01283   -0.01336
AFIX  43
H23   2    0.135760    0.509365    0.713860    11.00000   -1.20000
AFIX   0
HKLF 4




REM  mo_xjr201674_0m_a.res in P-1
REM wR2 = 0.0729, GooF = S = 1.074, Restrained GooF = 1.074 for all data
REM R1 = 0.0282 for 4384 Fo > 4sig(Fo) and 0.0406 for all 5478 data
REM 397 parameters refined using 0 restraints

END

WGHT      0.0226      6.2003

REM No hydrogen bonds found for HTAB generation

REM Highest difference peak  1.409,  deepest hole -1.509,  1-sigma level  0.159
Q1    1   0.1830  0.2957  0.1012  11.00000  0.05    1.41
Q2    1  -0.0280  0.1228 -0.0447  11.00000  0.05    1.12
Q3    1   0.6673  0.9396  0.8415  11.00000  0.05    1.01
Q4    1   0.4760  1.0000  0.9164  11.00000  0.05    1.01
Q5    1  -0.2387  0.1299 -0.0006  11.00000  0.05    0.98
Q6    1   0.4558  0.9541  0.8890  11.00000  0.05    0.96
;
_shelx_res_checksum              30528
_shelx_fab_file
;
    2    0    0    -12.59      0.00
    3    0    0      0.04      0.00
    4    0    0      1.10      0.00
    5    0    0     -0.18      0.00
    6    0    0      1.05      0.00
    7    0    0      0.38      0.00
    8    0    0      0.23      0.00
    9    0    0     -2.41      0.00
   10    0    0     -2.82      0.00
   11    0    0     -1.79      0.00
   12    0    0      2.70      0.00
  -12    1    0      4.17      0.00
  -11    1    0      1.04      0.00
  -10    1    0      1.56      0.00
   -9    1    0     -1.21      0.00
   -8    1    0     -0.98      0.00
   -7    1    0     -0.74      0.00
   -6    1    0     -0.34      0.00
   -5    1    0     -0.17      0.00
   -4    1    0     -2.77      0.00
   -3    1    0     -1.22      0.00
   -2    1    0    -15.10      0.00
   -1    1    0    -34.16      0.00
    1    1    0      0.46      0.00
    2    1    0     -0.91      0.00
    3    1    0      1.00      0.00
    4    1    0     -3.21      0.00
    5    1    0     -1.34      0.00
    6    1    0      1.74      0.00
    7    1    0      0.00      0.00
    8    1    0     -1.95      0.00
    9    1    0     -1.90      0.00
   10    1    0     -2.64      0.00
   11    1    0     -2.18      0.00
   12    1    0      0.14      0.00
  -12    2    0      3.74      0.00
  -11    2    0     -1.77      0.00
  -10    2    0     -1.38      0.00
   -9    2    0      0.32      0.00
   -8    2    0     -0.05      0.00
   -7    2    0     -0.11      0.00
   -6    2    0      0.76      0.00
   -5    2    0      0.59      0.00
   -4    2    0      4.27      0.00
   -3    2    0      6.55      0.00
   -2    2    0    -12.32      0.00
   -1    2    0    -20.55      0.00
    1    2    0     20.59      0.00
    2    2    0     -1.07      0.00
    3    2    0     -2.08      0.00
    4    2    0     -1.34      0.00
    5    2    0     -1.80      0.00
    6    2    0     -0.21      0.00
    7    2    0     -0.31      0.00
    8    2    0     -1.75      0.00
    9    2    0     -0.84      0.00
   10    2    0     -2.25      0.00
   11    2    0      1.47      0.00
   12    2    0      1.20      0.00
  -12    3    0      1.93      0.00
  -11    3    0      1.44      0.00
  -10    3    0      3.58      0.00
   -9    3    0      1.42      0.00
   -8    3    0      1.59      0.00
   -7    3    0      1.74      0.00
   -6    3    0     -0.66      0.00
   -5    3    0     -0.17      0.00
   -4    3    0     -0.58      0.00
   -3    3    0      1.18      0.00
   -2    3    0     -2.96      0.00
   -1    3    0    -15.18      0.00
    0    3    0     11.42      0.00
    1    3    0     13.77      0.00
    2    3    0      1.71      0.00
    3    3    0     -1.17      0.00
    4    3    0      0.16      0.00
    5    3    0     -1.02      0.00
    6    3    0      0.42      0.00
    7    3    0      0.86      0.00
    8    3    0     -0.94      0.00
    9    3    0     -0.71      0.00
   10    3    0     -5.96      0.00
   11    3    0     -2.02      0.00
   12    3    0     -2.91      0.00
  -11    4    0     -1.29      0.00
  -10    4    0      0.61      0.00
   -9    4    0      0.08      0.00
   -8    4    0     -0.01      0.00
   -7    4    0      0.68      0.00
   -6    4    0     -0.10      0.00
   -5    4    0     -0.12      0.00
   -4    4    0      2.28      0.00
   -3    4    0      3.18      0.00
   -2    4    0      0.67      0.00
   -1    4    0    -11.96      0.00
    0    4    0     -3.67      0.00
    1    4    0      6.43      0.00
    2    4    0      1.87      0.00
    3    4    0      0.12      0.00
    4    4    0      0.05      0.00
    5    4    0     -0.45      0.00
    6    4    0      0.99      0.00
    7    4    0      1.47      0.00
    8    4    0     -0.57      0.00
    9    4    0      0.27      0.00
   10    4    0     -1.37      0.00
   11    4    0      1.45      0.00
  -11    5    0     -1.28      0.00
  -10    5    0      1.84      0.00
   -9    5    0      0.65      0.00
   -8    5    0     -0.10      0.00
   -7    5    0      0.56      0.00
   -6    5    0      0.51      0.00
   -5    5    0      0.28      0.00
   -4    5    0      0.98      0.00
   -3    5    0      0.68      0.00
   -2    5    0      4.66      0.00
   -1    5    0     -7.51      0.00
    0    5    0     -5.97      0.00
    1    5    0      2.94      0.00
    2    5    0      0.43      0.00
    3    5    0      1.01      0.00
    4    5    0      0.79      0.00
    5    5    0     -1.00      0.00
    6    5    0     -0.40      0.00
    7    5    0     -0.37      0.00
    8    5    0     -0.22      0.00
    9    5    0      0.19      0.00
   10    5    0     -2.64      0.00
   11    5    0     -0.33      0.00
  -11    6    0     -0.62      0.00
  -10    6    0      2.18      0.00
   -9    6    0      3.11      0.00
   -8    6    0      0.26      0.00
   -7    6    0     -0.19      0.00
   -6    6    0     -0.68      0.00
   -5    6    0     -1.29      0.00
   -4    6    0      1.24      0.00
   -3    6    0      1.68      0.00
   -2    6    0      3.73      0.00
   -1    6    0     -3.32      0.00
    0    6    0     -4.27      0.00
    1    6    0      1.87      0.00
    2    6    0      0.09      0.00
    3    6    0      0.47      0.00
    4    6    0      1.43      0.00
    5    6    0      0.31      0.00
    6    6    0      0.21      0.00
    7    6    0      0.66      0.00
    8    6    0     -0.41      0.00
    9    6    0      1.22      0.00
   10    6    0      0.93      0.00
   11    6    0      0.21      0.00
  -10    7    0     -0.80      0.00
   -9    7    0      0.87      0.00
   -8    7    0      0.08      0.00
   -7    7    0      1.43      0.00
   -6    7    0      0.23      0.00
   -5    7    0      1.26      0.00
   -4    7    0     -0.77      0.00
   -3    7    0      0.03      0.00
   -2    7    0      3.25      0.00
   -1    7    0      0.61      0.00
    0    7    0     -4.28      0.00
    1    7    0      0.65      0.00
    2    7    0      1.18      0.00
    3    7    0      0.36      0.00
    4    7    0     -1.19      0.00
    5    7    0     -0.09      0.00
    6    7    0     -0.21      0.00
    7    7    0      0.18      0.00
    8    7    0     -0.02      0.00
    9    7    0      0.13      0.00
   10    7    0      0.43      0.00
   11    7    0     -0.89      0.00
  -10    8    0     -0.65      0.00
   -9    8    0      1.20      0.00
   -8    8    0      0.32      0.00
   -7    8    0      2.70      0.00
   -6    8    0     -0.72      0.00
   -5    8    0     -0.15      0.00
   -4    8    0     -1.51      0.00
   -3    8    0     -0.15      0.00
   -2    8    0      1.96      0.00
   -1    8    0      1.90      0.00
    0    8    0     -3.14      0.00
    1    8    0     -1.16      0.00
    2    8    0     -0.37      0.00
    3    8    0      0.45      0.00
    4    8    0      0.30      0.00
    5    8    0      1.04      0.00
    6    8    0      0.47      0.00
    7    8    0      0.15      0.00
    8    8    0     -0.58      0.00
    9    8    0      0.46      0.00
   10    8    0      3.21      0.00
   -9    9    0     -0.10      0.00
   -8    9    0     -1.97      0.00
   -7    9    0     -0.44      0.00
   -6    9    0      0.37      0.00
   -5    9    0      1.38      0.00
   -4    9    0     -1.27      0.00
   -3    9    0     -0.35      0.00
   -2    9    0      2.81      0.00
   -1    9    0      1.29      0.00
    0    9    0     -2.88      0.00
    1    9    0     -2.15      0.00
    2    9    0      0.51      0.00
    3    9    0     -0.88      0.00
    4    9    0     -1.57      0.00
    5    9    0      0.12      0.00
    6    9    0      0.50      0.00
    7    9    0      0.31      0.00
    8    9    0     -0.05      0.00
    9    9    0     -1.71      0.00
   10    9    0      1.15      0.00
   -9   10    0     -1.65      0.00
   -8   10    0     -0.41      0.00
   -7   10    0      0.34      0.00
   -6   10    0      0.94      0.00
   -5   10    0     -1.13      0.00
   -4   10    0     -1.34      0.00
   -3   10    0     -1.22      0.00
   -2   10    0      0.76      0.00
   -1   10    0      0.66      0.00
    0   10    0      0.64      0.00
    1   10    0     -0.93      0.00
    2   10    0      1.47      0.00
    3   10    0     -0.91      0.00
    4   10    0     -1.00      0.00
    5   10    0     -0.24      0.00
    6   10    0     -0.35      0.00
    7   10    0     -0.27      0.00
    8   10    0      0.54      0.00
    9   10    0     -2.79      0.00
   -8   11    0      1.28      0.00
   -7   11    0     -0.96      0.00
   -6   11    0      0.11      0.00
   -5   11    0     -0.76      0.00
   -4   11    0      0.05      0.00
   -3   11    0     -1.67      0.00
   -2   11    0      0.03      0.00
   -1   11    0     -0.05      0.00
    0   11    0      0.68      0.00
    1   11    0     -1.99      0.00
    2   11    0      1.99      0.00
    3   11    0      1.86      0.00
    4   11    0      0.97      0.00
    5   11    0      0.09      0.00
    6   11    0      0.32      0.00
    7   11    0     -0.01      0.00
    8   11    0      1.20      0.00
   -7   12    0      1.04      0.00
   -6   12    0      0.11      0.00
   -5   12    0     -1.67      0.00
   -4   12    0      1.16      0.00
   -3   12    0     -1.01      0.00
   -2   12    0      0.39      0.00
   -1   12    0     -0.20      0.00
    0   12    0      0.34      0.00
    1   12    0     -1.38      0.00
    2   12    0     -0.77      0.00
    3   12    0     -1.01      0.00
    4   12    0      0.78      0.00
    5   12    0     -0.81      0.00
    6   12    0     -1.39      0.00
    7   12    0     -0.46      0.00
   -6   13    0      1.62      0.00
   -5   13    0      0.18      0.00
   -4   13    0      2.49      0.00
   -3   13    0     -0.06      0.00
   -2   13    0     -1.50      0.00
   -1   13    0     -0.78      0.00
    0   13    0      0.84      0.00
    1   13    0      1.69      0.00
    2   13    0      2.41      0.00
    3   13    0      0.02      0.00
    4   13    0      1.32      0.00
    5   13    0      1.57      0.00
    6   13    0      0.00      0.00
   -4   14    0      0.85      0.00
   -3   14    0      1.04      0.00
   -2   14    0     -0.13      0.00
   -1   14    0      0.69      0.00
    0   14    0     -1.22      0.00
    1   14    0     -1.81      0.00
    2   14    0     -1.17      0.00
    3   14    0     -0.72      0.00
    4   14    0      1.17      0.00
    5   14    0      0.89      0.00
   -2   15    0     -0.83      0.00
   -1   15    0      1.02      0.00
    0   15    0     -0.33      0.00
    1   15    0      0.98      0.00
    2   15    0      0.36      0.00
   -2  -15    1      2.03      0.00
   -1  -15    1      1.91      0.00
    0  -15    1      0.89      0.00
    1  -15    1     -1.79      0.00
    2  -15    1     -0.73      0.00
   -4  -14    1      0.26      0.00
   -3  -14    1      0.66      0.00
   -2  -14    1     -0.41      0.00
   -1  -14    1     -0.29      0.00
    0  -14    1     -0.83      0.00
    1  -14    1     -0.47      0.00
    2  -14    1      0.62      0.00
    3  -14    1     -0.30      0.00
    4  -14    1     -0.39      0.00
    5  -14    1      1.43      0.00
   -6  -13    1      0.22      0.00
   -5  -13    1     -0.32      0.00
   -4  -13    1     -0.52      0.00
   -3  -13    1      0.66      0.00
   -2  -13    1      2.39      0.00
   -1  -13    1      3.03      0.00
    0  -13    1      0.72      0.00
    1  -13    1      0.05      0.00
    2  -13    1     -0.80      0.00
    3  -13    1     -0.50      0.00
    4  -13    1     -1.88      0.00
    5  -13    1      2.29      0.00
    6  -13    1      1.08      0.00
   -7  -12    1      1.24      0.00
   -6  -12    1     -0.42      0.00
   -5  -12    1     -1.02      0.00
   -4  -12    1     -1.52      0.00
   -3  -12    1     -2.51      0.00
   -2  -12    1     -0.90      0.00
   -1  -12    1      2.22      0.00
    0  -12    1     -0.06      0.00
    1  -12    1      0.76      0.00
    2  -12    1      0.77      0.00
    3  -12    1      0.83      0.00
    4  -12    1     -2.06      0.00
    5  -12    1      0.68      0.00
    6  -12    1     -1.05      0.00
    7  -12    1     -0.47      0.00
   -8  -11    1     -0.23      0.00
   -7  -11    1      1.06      0.00
   -6  -11    1      0.32      0.00
   -5  -11    1      0.62      0.00
   -4  -11    1      0.72      0.00
   -3  -11    1      0.50      0.00
   -2  -11    1     -0.03      0.00
   -1  -11    1      1.47      0.00
    0  -11    1     -0.49      0.00
    1  -11    1      0.94      0.00
    2  -11    1      0.28      0.00
    3  -11    1      1.03      0.00
    4  -11    1     -0.23      0.00
    5  -11    1      1.56      0.00
    6  -11    1     -1.04      0.00
    7  -11    1     -0.47      0.00
    8  -11    1     -1.22      0.00
   -9  -10    1      1.49      0.00
   -8  -10    1      0.69      0.00
   -7  -10    1      0.51      0.00
   -6  -10    1     -0.70      0.00
   -5  -10    1      0.04      0.00
   -4  -10    1      0.06      0.00
   -3  -10    1     -0.80      0.00
   -2  -10    1     -0.11      0.00
   -1  -10    1      3.99      0.00
    0  -10    1      2.23      0.00
    1  -10    1      0.05      0.00
    2  -10    1     -2.25      0.00
    3  -10    1      0.27      0.00
    4  -10    1      1.07      0.00
    5  -10    1      0.59      0.00
    6  -10    1     -0.44      0.00
    7  -10    1      2.04      0.00
    8  -10    1      0.03      0.00
    9  -10    1     -1.38      0.00
   -9   -9    1     -0.40      0.00
   -8   -9    1      1.46      0.00
   -7   -9    1      1.09      0.00
   -6   -9    1      0.00      0.00
   -5   -9    1      0.10      0.00
   -4   -9    1     -0.27      0.00
   -3   -9    1     -0.55      0.00
   -2   -9    1     -0.81      0.00
   -1   -9    1      0.75      0.00
    0   -9    1      2.03      0.00
    1   -9    1     -0.04      0.00
    2   -9    1     -2.18      0.00
    3   -9    1      0.34      0.00
    4   -9    1      2.07      0.00
    5   -9    1      1.18      0.00
    6   -9    1      0.42      0.00
    7   -9    1      0.12      0.00
    8   -9    1      1.30      0.00
    9   -9    1      0.89      0.00
   10   -9    1      0.53      0.00
  -10   -8    1     -0.56      0.00
   -9   -8    1     -0.50      0.00
   -8   -8    1      0.07      0.00
   -7   -8    1      0.37      0.00
   -6   -8    1      0.27      0.00
   -5   -8    1      0.79      0.00
   -4   -8    1      1.52      0.00
   -3   -8    1      0.93      0.00
   -2   -8    1     -0.65      0.00
   -1   -8    1     -1.19      0.00
    0   -8    1      2.79      0.00
    1   -8    1      0.92      0.00
    2   -8    1     -3.43      0.00
    3   -8    1     -1.69      0.00
    4   -8    1      0.97      0.00
    5   -8    1     -1.63      0.00
    6   -8    1     -1.71      0.00
    7   -8    1     -0.75      0.00
    8   -8    1      1.21      0.00
    9   -8    1     -0.07      0.00
   10   -8    1      0.52      0.00
  -10   -7    1     -1.82      0.00
   -9   -7    1     -1.79      0.00
   -8   -7    1     -0.02      0.00
   -7   -7    1     -0.35      0.00
   -6   -7    1     -0.46      0.00
   -5   -7    1     -0.15      0.00
   -4   -7    1     -1.22      0.00
   -3   -7    1     -0.24      0.00
   -2   -7    1      0.79      0.00
   -1   -7    1     -1.21      0.00
    0   -7    1      2.12      0.00
    1   -7    1      2.74      0.00
    2   -7    1     -2.68      0.00
    3   -7    1     -2.26      0.00
    4   -7    1      0.30      0.00
    5   -7    1      1.64      0.00
    6   -7    1      0.67      0.00
    7   -7    1      0.30      0.00
    8   -7    1     -0.83      0.00
    9   -7    1     -3.38      0.00
   10   -7    1     -1.00      0.00
   11   -7    1      0.18      0.00
  -11   -6    1     -0.53      0.00
  -10   -6    1      1.19      0.00
   -9   -6    1      0.56      0.00
   -8   -6    1     -0.10      0.00
   -7   -6    1      0.77      0.00
   -6   -6    1      0.76      0.00
   -5   -6    1      0.76      0.00
   -4   -6    1     -0.75      0.00
   -3   -6    1     -1.68      0.00
   -2   -6    1      0.01      0.00
   -1   -6    1     -0.13      0.00
    0   -6    1      3.80      0.00
    1   -6    1      5.31      0.00
    2   -6    1     -4.43      0.00
    3   -6    1     -2.30      0.00
    4   -6    1     -1.20      0.00
    5   -6    1      0.07      0.00
    6   -6    1     -1.27      0.00
    7   -6    1      0.74      0.00
    8   -6    1      2.05      0.00
    9   -6    1     -0.85      0.00
   10   -6    1     -0.71      0.00
   11   -6    1      1.10      0.00
  -11   -5    1     -2.05      0.00
  -10   -5    1     -0.07      0.00
   -9   -5    1      0.32      0.00
   -8   -5    1      0.11      0.00
   -7   -5    1     -0.76      0.00
   -6   -5    1     -0.41      0.00
   -5   -5    1      0.73      0.00
   -4   -5    1     -0.02      0.00
   -3   -5    1     -0.51      0.00
   -2   -5    1     -0.44      0.00
   -1   -5    1     -4.16      0.00
    0   -5    1      1.81      0.00
    1   -5    1      9.84      0.00
    2   -5    1     -1.24      0.00
    3   -5    1     -4.33      0.00
    4   -5    1     -3.46      0.00
    5   -5    1      1.20      0.00
    6   -5    1     -0.29      0.00
    7   -5    1     -1.19      0.00
    8   -5    1      0.81      0.00
    9   -5    1     -0.83      0.00
   10   -5    1     -1.20      0.00
   11   -5    1      0.81      0.00
  -11   -4    1     -0.97      0.00
  -10   -4    1      3.36      0.00
   -9   -4    1      0.79      0.00
   -8   -4    1     -1.12      0.00
   -7   -4    1     -0.71      0.00
   -6   -4    1     -0.18      0.00
   -5   -4    1      0.50      0.00
   -4   -4    1     -0.28      0.00
   -3   -4    1     -0.67      0.00
   -2   -4    1     -0.34      0.00
   -1   -4    1     -7.10      0.00
    0   -4    1     -3.80      0.00
    1   -4    1      9.22      0.00
    2   -4    1      2.27      0.00
    3   -4    1     -0.58      0.00
    4   -4    1     -0.70      0.00
    5   -4    1      0.67      0.00
    6   -4    1      0.70      0.00
    7   -4    1     -2.29      0.00
    8   -4    1     -0.73      0.00
    9   -4    1     -1.11      0.00
   10   -4    1     -3.45      0.00
   11   -4    1     -1.21      0.00
   12   -4    1     -0.06      0.00
  -11   -3    1     -2.69      0.00
  -10   -3    1      0.46      0.00
   -9   -3    1      0.98      0.00
   -8   -3    1      0.44      0.00
   -7   -3    1     -0.20      0.00
   -6   -3    1     -0.11      0.00
   -5   -3    1      0.74      0.00
   -4   -3    1      1.48      0.00
   -3   -3    1      1.27      0.00
   -2   -3    1      0.74      0.00
   -1   -3    1     -8.07      0.00
    0   -3    1    -19.49      0.00
    1   -3    1     10.14      0.00
    2   -3    1      6.07      0.00
    3   -3    1     -5.40      0.00
    4   -3    1     -4.61      0.00
    5   -3    1     -0.40      0.00
    6   -3    1     -0.24      0.00
    7   -3    1     -0.33      0.00
    8   -3    1      0.24      0.00
    9   -3    1     -1.59      0.00
   10   -3    1      0.30      0.00
   11   -3    1      1.06      0.00
   12   -3    1     -2.99      0.00
  -12   -2    1      1.45      0.00
  -11   -2    1      0.38      0.00
  -10   -2    1      2.13      0.00
   -9   -2    1      1.69      0.00
   -8   -2    1     -0.47      0.00
   -7   -2    1     -0.84      0.00
   -6   -2    1     -1.12      0.00
   -5   -2    1      0.95      0.00
   -4   -2    1      2.44      0.00
   -3   -2    1     -0.55      0.00
   -2   -2    1     -1.44      0.00
   -1   -2    1      2.02      0.00
    0   -2    1    -21.93      0.00
    1   -2    1     28.88      0.00
    2   -2    1     11.82      0.00
    3   -2    1     -0.94      0.00
    4   -2    1      0.07      0.00
    5   -2    1      1.22      0.00
    6   -2    1      1.41      0.00
    7   -2    1     -0.16      0.00
    8   -2    1     -0.13      0.00
    9   -2    1     -0.39      0.00
   10   -2    1     -0.71      0.00
   11   -2    1     -2.16      0.00
   12   -2    1     -5.05      0.00
  -12   -1    1     -1.57      0.00
  -11   -1    1      0.72      0.00
  -10   -1    1      3.92      0.00
   -9   -1    1      5.04      0.00
   -8   -1    1     -1.57      0.00
   -7   -1    1     -0.54      0.00
   -6   -1    1      0.09      0.00
   -5   -1    1      0.44      0.00
   -4   -1    1      1.47      0.00
   -3   -1    1     -1.55      0.00
   -2   -1    1     -0.33      0.00
   -1   -1    1    -18.74      0.00
    0   -1    1   -102.65      0.00
    1   -1    1     -0.09      0.00
    2   -1    1     19.72      0.00
    3   -1    1     -0.73      0.00
    4   -1    1     -4.99      0.00
    5   -1    1      0.34      0.00
    6   -1    1     -0.35      0.00
    7   -1    1     -0.05      0.00
    8   -1    1     -0.27      0.00
    9   -1    1     -2.05      0.00
   10   -1    1      0.47      0.00
   11   -1    1      2.49      0.00
   12   -1    1     -2.00      0.00
  -12    0    1     -2.92      0.00
  -11    0    1     -0.39      0.00
  -10    0    1     -1.02      0.00
   -9    0    1      3.08      0.00
   -8    0    1     -0.30      0.00
   -7    0    1      0.30      0.00
   -6    0    1      0.42      0.00
   -5    0    1     -1.34      0.00
   -4    0    1      4.09      0.00
   -3    0    1      0.43      0.00
   -2    0    1      1.03      0.00
   -1    0    1     15.72      0.00
    1    0    1     11.96      0.00
    2    0    1     11.70      0.00
    3    0    1      0.36      0.00
    4    0    1      0.76      0.00
    5    0    1      0.32      0.00
    6    0    1     -1.24      0.00
    7    0    1      0.84      0.00
    8    0    1      2.24      0.00
    9    0    1      1.16      0.00
   10    0    1      1.56      0.00
   11    0    1      2.27      0.00
   12    0    1     -1.01      0.00
  -12    1    1     -3.38      0.00
  -11    1    1      0.49      0.00
  -10    1    1      3.10      0.00
   -9    1    1      4.56      0.00
   -8    1    1     -0.02      0.00
   -7    1    1     -0.64      0.00
   -6    1    1     -0.19      0.00
   -5    1    1     -1.31      0.00
   -4    1    1     -1.83      0.00
   -3    1    1     -3.44      0.00
   -2    1    1     11.07      0.00
   -1    1    1     11.62      0.00
    1    1    1    -26.97      0.00
    2    1    1      7.56      0.00
    3    1    1      4.67      0.00
    4    1    1     -0.36      0.00
    5    1    1      0.92      0.00
    6    1    1     -0.04      0.00
    7    1    1      0.95      0.00
    8    1    1      1.36      0.00
    9    1    1     -0.11      0.00
   10    1    1      1.08      0.00
   11    1    1     -0.34      0.00
   12    1    1     -1.24      0.00
  -12    2    1     -1.94      0.00
  -11    2    1     -2.06      0.00
  -10    2    1     -3.58      0.00
   -9    2    1     -0.64      0.00
   -8    2    1     -1.61      0.00
   -7    2    1     -1.55      0.00
   -6    2    1      1.21      0.00
   -5    2    1     -0.41      0.00
   -4    2    1      0.94      0.00
   -3    2    1     -0.62      0.00
   -2    2    1      4.25      0.00
   -1    2    1     15.81      0.00
    0    2    1    -22.58      0.00
    1    2    1    -17.75      0.00
    2    2    1     -1.59      0.00
    3    2    1      2.71      0.00
    4    2    1      0.41      0.00
    5    2    1      1.61      0.00
    6    2    1      0.04      0.00
    7    2    1      0.42      0.00
    8    2    1      2.36      0.00
    9    2    1      0.58      0.00
   10    2    1      4.32      0.00
   11    2    1      2.44      0.00
   12    2    1      2.02      0.00
  -11    3    1      1.70      0.00
  -10    3    1      0.55      0.00
   -9    3    1      0.09      0.00
   -8    3    1     -0.45      0.00
   -7    3    1      0.22      0.00
   -6    3    1     -0.13      0.00
   -5    3    1     -0.60      0.00
   -4    3    1     -0.77      0.00
   -3    3    1     -3.65      0.00
   -2    3    1      0.49      0.00
   -1    3    1     12.18      0.00
    0    3    1      2.29      0.00
    1    3    1     -7.20      0.00
    2    3    1     -1.52      0.00
    3    3    1      1.71      0.00
    4    3    1      1.29      0.00
    5    3    1      0.81      0.00
    6    3    1     -0.40      0.00
    7    3    1     -0.19      0.00
    8    3    1      2.03      0.00
    9    3    1      0.90      0.00
   10    3    1      2.38      0.00
   11    3    1     -1.52      0.00
   12    3    1      0.36      0.00
  -11    4    1      1.72      0.00
  -10    4    1     -1.77      0.00
   -9    4    1     -0.93      0.00
   -8    4    1     -2.81      0.00
   -7    4    1     -1.28      0.00
   -6    4    1      0.24      0.00
   -5    4    1     -0.90      0.00
   -4    4    1      0.12      0.00
   -3    4    1     -0.72      0.00
   -2    4    1     -4.60      0.00
   -1    4    1      6.42      0.00
    0    4    1      4.16      0.00
    1    4    1     -8.18      0.00
    2    4    1     -1.68      0.00
    3    4    1      0.67      0.00
    4    4    1     -0.73      0.00
    5    4    1      0.23      0.00
    6    4    1     -0.09      0.00
    7    4    1     -0.16      0.00
    8    4    1      0.39      0.00
    9    4    1     -0.06      0.00
   10    4    1      4.36      0.00
   11    4    1      1.34      0.00
   12    4    1      2.92      0.00
  -11    5    1      2.09      0.00
  -10    5    1     -1.45      0.00
   -9    5    1     -1.45      0.00
   -8    5    1     -1.23      0.00
   -7    5    1     -0.49      0.00
   -6    5    1      0.02      0.00
   -5    5    1     -0.07      0.00
   -4    5    1     -0.85      0.00
   -3    5    1     -0.79      0.00
   -2    5    1     -4.28      0.00
   -1    5    1      4.36      0.00
    0    5    1      7.29      0.00
    1    5    1     -1.67      0.00
    2    5    1     -1.89      0.00
    3    5    1     -1.08      0.00
    4    5    1     -0.89      0.00
    5    5    1     -0.10      0.00
    6    5    1      0.00      0.00
    7    5    1     -1.04      0.00
    8    5    1      0.46      0.00
    9    5    1     -0.08      0.00
   10    5    1      1.59      0.00
   11    5    1     -0.34      0.00
  -11    6    1      1.40      0.00
  -10    6    1      1.68      0.00
   -9    6    1      0.11      0.00
   -8    6    1     -1.45      0.00
   -7    6    1     -1.11      0.00
   -6    6    1      1.48      0.00
   -5    6    1     -1.08      0.00
   -4    6    1      0.94      0.00
   -3    6    1      0.98      0.00
   -2    6    1     -4.02      0.00
   -1    6    1     -0.77      0.00
    0    6    1      5.98      0.00
    1    6    1      0.49      0.00
    2    6    1     -2.00      0.00
    3    6    1     -1.78      0.00
    4    6    1      0.73      0.00
    5    6    1      0.52      0.00
    6    6    1      0.96      0.00
    7    6    1     -0.31      0.00
    8    6    1     -0.34      0.00
    9    6    1     -0.66      0.00
   10    6    1      0.89      0.00
   11    6    1      0.05      0.00
  -10    7    1      0.90      0.00
   -9    7    1     -3.36      0.00
   -8    7    1     -2.46      0.00
   -7    7    1     -3.29      0.00
   -6    7    1      2.71      0.00
   -5    7    1     -0.19      0.00
   -4    7    1      0.31      0.00
   -3    7    1     -0.24      0.00
   -2    7    1     -1.32      0.00
   -1    7    1     -3.56      0.00
    0    7    1      3.67      0.00
    1    7    1      2.22      0.00
    2    7    1      0.32      0.00
    3    7    1     -1.59      0.00
    4    7    1     -0.95      0.00
    5    7    1     -2.00      0.00
    6    7    1     -0.10      0.00
    7    7    1     -0.06      0.00
    8    7    1      0.64      0.00
    9    7    1     -0.65      0.00
   10    7    1     -1.18      0.00
   11    7    1      0.91      0.00
  -10    8    1      2.19      0.00
   -9    8    1      0.90      0.00
   -8    8    1      0.38      0.00
   -7    8    1     -3.91      0.00
   -6    8    1      0.89      0.00
   -5    8    1     -1.72      0.00
   -4    8    1      1.23      0.00
   -3    8    1      1.28      0.00
   -2    8    1     -0.85      0.00
   -1    8    1     -3.43      0.00
    0    8    1      2.64      0.00
    1    8    1      1.52      0.00
    2    8    1     -0.27      0.00
    3    8    1      0.56      0.00
    4    8    1      1.75      0.00
    5    8    1     -1.59      0.00
    6    8    1     -1.11      0.00
    7    8    1     -1.28      0.00
    8    8    1     -0.92      0.00
    9    8    1      0.14      0.00
   10    8    1     -1.76      0.00
   -9    9    1      2.50      0.00
   -8    9    1      1.20      0.00
   -7    9    1     -4.08      0.00
   -6    9    1     -2.21      0.00
   -5    9    1     -1.07      0.00
   -4    9    1      0.77      0.00
   -3    9    1      1.03      0.00
   -2    9    1     -0.08      0.00
   -1    9    1     -3.25      0.00
    0    9    1     -0.60      0.00
    1    9    1      1.31      0.00
    2    9    1     -0.47      0.00
    3    9    1      0.91      0.00
    4    9    1      1.41      0.00
    5    9    1     -0.54      0.00
    6    9    1      0.20      0.00
    7    9    1     -0.27      0.00
    8    9    1     -0.48      0.00
    9    9    1      2.40      0.00
   10    9    1     -0.89      0.00
   -9   10    1      0.76      0.00
   -8   10    1      1.22      0.00
   -7   10    1      2.44      0.00
   -6   10    1      0.96      0.00
   -5   10    1     -0.55      0.00
   -4   10    1     -0.04      0.00
   -3   10    1      0.62      0.00
   -2   10    1     -0.09      0.00
   -1   10    1     -1.24      0.00
    0   10    1     -0.87      0.00
    1   10    1      1.33      0.00
    2   10    1     -1.71      0.00
    3   10    1     -0.44      0.00
    4   10    1      0.03      0.00
    5   10    1     -0.36      0.00
    6   10    1     -0.40      0.00
    7   10    1     -1.08      0.00
    8   10    1     -0.53      0.00
    9   10    1      3.31      0.00
   -8   11    1     -0.46      0.00
   -7   11    1     -0.61      0.00
   -6   11    1      0.10      0.00
   -5   11    1      1.77      0.00
   -4   11    1      0.15      0.00
   -3   11    1     -0.08      0.00
   -2   11    1     -0.83      0.00
   -1   11    1     -0.41      0.00
    0   11    1     -0.79      0.00
    1   11    1      0.57      0.00
    2   11    1     -0.07      0.00
    3   11    1      1.73      0.00
    4   11    1     -0.13      0.00
    5   11    1      0.50      0.00
    6   11    1      0.74      0.00
    7   11    1     -1.11      0.00
    8   11    1     -1.73      0.00
   -7   12    1     -0.87      0.00
   -6   12    1     -1.64      0.00
   -5   12    1     -0.62      0.00
   -4   12    1     -1.91      0.00
   -3   12    1      0.36      0.00
   -2   12    1      0.68      0.00
   -1   12    1      0.04      0.00
    0   12    1     -1.30      0.00
    1   12    1     -2.26      0.00
    2   12    1     -2.55      0.00
    3   12    1      0.47      0.00
    4   12    1     -1.06      0.00
    5   12    1      0.32      0.00
    6   12    1      0.64      0.00
    7   12    1     -0.67      0.00
    8   12    1     -1.22      0.00
   -6   13    1      0.54      0.00
   -5   13    1      0.35      0.00
   -4   13    1     -1.58      0.00
   -3   13    1      0.32      0.00
   -2   13    1      0.70      0.00
   -1   13    1     -1.09      0.00
    0   13    1     -0.17      0.00
    1   13    1     -0.28      0.00
    2   13    1     -0.37      0.00
    3   13    1      0.76      0.00
    4   13    1     -2.68      0.00
    5   13    1     -0.40      0.00
    6   13    1      1.17      0.00
   -4   14    1     -0.97      0.00
   -3   14    1     -1.85      0.00
   -2   14    1      1.25      0.00
   -1   14    1     -0.03      0.00
    0   14    1      0.09      0.00
    1   14    1     -1.53      0.00
    2   14    1     -1.29      0.00
    3   14    1      2.12      0.00
    4   14    1      0.33      0.00
    5   14    1     -0.46      0.00
   -2   15    1      0.18      0.00
   -1   15    1     -1.41      0.00
    0   15    1      0.47      0.00
    1   15    1      0.13      0.00
    2   15    1      0.41      0.00
    3   15    1      0.85      0.00
   -1  -15    2      0.50      0.00
    0  -15    2      1.30      0.00
    1  -15    2      1.19      0.00
    2  -15    2     -0.54      0.00
   -4  -14    2     -1.03      0.00
   -3  -14    2     -0.70      0.00
   -2  -14    2     -2.35      0.00
   -1  -14    2     -2.80      0.00
    0  -14    2     -0.35      0.00
    1  -14    2      0.93      0.00
    2  -14    2      0.86      0.00
    3  -14    2      0.26      0.00
    4  -14    2      0.39      0.00
   -6  -13    2      0.70      0.00
   -5  -13    2      1.49      0.00
   -4  -13    2      0.35      0.00
   -3  -13    2      1.00      0.00
   -2  -13    2     -0.32      0.00
   -1  -13    2     -1.48      0.00
    0  -13    2      0.16      0.00
    1  -13    2      0.44      0.00
    2  -13    2     -0.40      0.00
    3  -13    2     -0.43      0.00
    4  -13    2      0.92      0.00
    5  -13    2     -1.84      0.00
    6  -13    2     -0.09      0.00
   -7  -12    2     -0.89      0.00
   -6  -12    2     -0.27      0.00
   -5  -12    2     -0.37      0.00
   -4  -12    2     -0.92      0.00
   -3  -12    2     -0.99      0.00
   -2  -12    2     -2.52      0.00
   -1  -12    2     -1.55      0.00
    0  -12    2      0.14      0.00
    1  -12    2     -0.19      0.00
    2  -12    2      0.34      0.00
    3  -12    2      0.81      0.00
    4  -12    2      1.92      0.00
    5  -12    2     -1.03      0.00
    6  -12    2     -0.34      0.00
    7  -12    2     -0.13      0.00
   -8  -11    2     -0.35      0.00
   -7  -11    2      0.24      0.00
   -6  -11    2      1.14      0.00
   -5  -11    2      0.52      0.00
   -4  -11    2      0.55      0.00
   -3  -11    2      1.91      0.00
   -2  -11    2     -1.61      0.00
   -1  -11    2     -4.82      0.00
    0  -11    2     -1.95      0.00
    1  -11    2     -0.74      0.00
    2  -11    2      0.30      0.00
    3  -11    2      0.61      0.00
    4  -11    2      0.72      0.00
    5  -11    2     -0.48      0.00
    6  -11    2      0.55      0.00
    7  -11    2     -1.11      0.00
    8  -11    2      0.66      0.00
   -8  -10    2     -2.27      0.00
   -7  -10    2     -1.19      0.00
   -6  -10    2      0.14      0.00
   -5  -10    2      0.13      0.00
   -4  -10    2      0.31      0.00
   -3  -10    2      1.03      0.00
   -2  -10    2      1.02      0.00
   -1  -10    2     -0.33      0.00
    0  -10    2     -0.13      0.00
    1  -10    2     -0.65      0.00
    2  -10    2      0.36      0.00
    3  -10    2     -0.30      0.00
    4  -10    2     -0.86      0.00
    5  -10    2     -1.13      0.00
    6  -10    2     -0.13      0.00
    7  -10    2     -0.19      0.00
    8  -10    2     -0.40      0.00
    9  -10    2     -1.29      0.00
   -9   -9    2      0.65      0.00
   -8   -9    2     -1.06      0.00
   -7   -9    2     -0.77      0.00
   -6   -9    2     -0.21      0.00
   -5   -9    2     -1.05      0.00
   -4   -9    2     -1.13      0.00
   -3   -9    2     -0.84      0.00
   -2   -9    2     -0.22      0.00
   -1   -9    2     -0.09      0.00
    0   -9    2     -0.96      0.00
    1   -9    2     -0.83      0.00
    2   -9    2      2.75      0.00
    3   -9    2      2.20      0.00
    4   -9    2     -0.98      0.00
    5   -9    2      0.49      0.00
    6   -9    2      0.79      0.00
    7   -9    2     -0.16      0.00
    8   -9    2     -1.86      0.00
    9   -9    2     -0.67      0.00
   10   -9    2      0.49      0.00
  -10   -8    2      1.71      0.00
   -9   -8    2      2.44      0.00
   -8   -8    2     -0.44      0.00
   -7   -8    2     -0.60      0.00
   -6   -8    2      0.36      0.00
   -5   -8    2     -0.31      0.00
   -4   -8    2      0.41      0.00
   -3   -8    2      0.16      0.00
   -2   -8    2     -0.84      0.00
   -1   -8    2     -0.80      0.00
    0   -8    2     -2.27      0.00
    1   -8    2     -2.52      0.00
    2   -8    2      1.29      0.00
    3   -8    2      1.91      0.00
    4   -8    2     -1.25      0.00
    5   -8    2     -1.01      0.00
    6   -8    2     -1.43      0.00
    7   -8    2     -0.58      0.00
    8   -8    2      0.30      0.00
    9   -8    2      0.57      0.00
   10   -8    2     -0.09      0.00
  -10   -7    2     -0.83      0.00
   -9   -7    2      0.61      0.00
   -8   -7    2      1.20      0.00
   -7   -7    2     -0.58      0.00
   -6   -7    2     -0.75      0.00
   -5   -7    2      0.21      0.00
   -4   -7    2      0.82      0.00
   -3   -7    2      1.24      0.00
   -2   -7    2      0.98      0.00
   -1   -7    2      0.81      0.00
    0   -7    2     -0.59      0.00
    1   -7    2     -3.00      0.00
    2   -7    2      2.19      0.00
    3   -7    2      2.76      0.00
    4   -7    2      0.99      0.00
    5   -7    2      1.16      0.00
    6   -7    2      1.26      0.00
    7   -7    2     -1.40      0.00
    8   -7    2     -1.94      0.00
    9   -7    2     -0.47      0.00
   10   -7    2     -0.80      0.00
   11   -7    2      0.08      0.00
  -10   -6    2     -1.10      0.00
   -9   -6    2     -0.58      0.00
   -8   -6    2      0.61      0.00
   -7   -6    2      0.37      0.00
   -6   -6    2     -0.42      0.00
   -5   -6    2     -0.59      0.00
   -4   -6    2     -0.01      0.00
   -3   -6    2      0.36      0.00
   -2   -6    2     -0.21      0.00
   -1   -6    2      2.23      0.00
    0   -6    2      1.56      0.00
    1   -6    2     -6.22      0.00
    2   -6    2      1.42      0.00
    3   -6    2      4.08      0.00
    4   -6    2      1.36      0.00
    5   -6    2     -1.50      0.00
    6   -6    2      1.03      0.00
    7   -6    2      0.48      0.00
    8   -6    2     -0.35      0.00
    9   -6    2      0.94      0.00
   10   -6    2     -0.30      0.00
   11   -6    2     -0.35      0.00
  -11   -5    2      3.11      0.00
  -10   -5    2     -1.92      0.00
   -9   -5    2     -1.52      0.00
   -8   -5    2      2.10      0.00
   -7   -5    2      0.24      0.00
   -6   -5    2     -0.92      0.00
   -5   -5    2     -0.30      0.00
   -4   -5    2      0.35      0.00
   -3   -5    2      2.39      0.00
   -2   -5    2     -0.24      0.00
   -1   -5    2      0.74      0.00
    0   -5    2      1.23      0.00
    1   -5    2     -6.51      0.00
    2   -5    2     -0.40      0.00
    3   -5    2      2.80      0.00
    4   -5    2      0.94      0.00
    5   -5    2     -1.35      0.00
    6   -5    2     -0.02      0.00
    7   -5    2      1.73      0.00
    8   -5    2     -0.40      0.00
    9   -5    2     -0.15      0.00
   10   -5    2      1.19      0.00
   11   -5    2     -0.61      0.00
  -11   -4    2      4.09      0.00
  -10   -4    2      0.27      0.00
   -9   -4    2     -2.61      0.00
   -8   -4    2     -0.13      0.00
   -7   -4    2      0.02      0.00
   -6   -4    2      0.07      0.00
   -5   -4    2      0.15      0.00
   -4   -4    2     -1.06      0.00
   -3   -4    2      0.40      0.00
   -2   -4    2     -0.09      0.00
   -1   -4    2      2.11      0.00
    0   -4    2      4.80      0.00
    1   -4    2     -4.66      0.00
    2   -4    2     -4.87      0.00
    3   -4    2      4.10      0.00
    4   -4    2      4.15      0.00
    5   -4    2      0.44      0.00
    6   -4    2      0.34      0.00
    7   -4    2      1.13      0.00
    8   -4    2     -0.63      0.00
    9   -4    2      0.67      0.00
   10   -4    2      0.88      0.00
   11   -4    2     -0.62      0.00
   12   -4    2     -0.06      0.00
  -11   -3    2      4.35      0.00
  -10   -3    2      0.40      0.00
   -9   -3    2     -1.76      0.00
   -8   -3    2      2.49      0.00
   -7   -3    2      1.60      0.00
   -6   -3    2      0.84      0.00
   -5   -3    2     -0.67      0.00
   -4   -3    2     -1.63      0.00
   -3   -3    2     -0.57      0.00
   -2   -3    2     -0.71      0.00
   -1   -3    2     -1.57      0.00
    0   -3    2      5.45      0.00
    1   -3    2     -6.57      0.00
    2   -3    2     -6.48      0.00
    3   -3    2     -0.63      0.00
    4   -3    2      0.50      0.00
    5   -3    2     -1.32      0.00
    6   -3    2     -2.27      0.00
    7   -3    2      1.13      0.00
    8   -3    2      0.85      0.00
    9   -3    2     -0.57      0.00
   10   -3    2     -0.14      0.00
   11   -3    2      2.82      0.00
   12   -3    2      3.65      0.00
  -11   -2    2      1.98      0.00
  -10   -2    2     -1.10      0.00
   -9   -2    2     -4.82      0.00
   -8   -2    2      1.82      0.00
   -7   -2    2      0.06      0.00
   -6   -2    2     -0.68      0.00
   -5   -2    2     -1.27      0.00
   -4   -2    2     -3.91      0.00
   -3   -2    2     -1.81      0.00
   -2   -2    2     -0.79      0.00
   -1   -2    2      4.23      0.00
    0   -2    2     40.98      0.00
    1   -2    2      4.51      0.00
    2   -2    2    -10.31      0.00
    3   -2    2      0.35      0.00
    4   -2    2      4.30      0.00
    5   -2    2     -0.81      0.00
    6   -2    2     -0.15      0.00
    7   -2    2      0.83      0.00
    8   -2    2      0.32      0.00
    9   -2    2      3.12      0.00
   10   -2    2      0.66      0.00
   11   -2    2     -1.95      0.00
   12   -2    2      0.75      0.00
  -11   -1    2      0.76      0.00
  -10   -1    2      1.76      0.00
   -9   -1    2     -2.35      0.00
   -8   -1    2      1.88      0.00
   -7   -1    2     -0.27      0.00
   -6   -1    2     -0.36      0.00
   -5   -1    2      2.23      0.00
   -4   -1    2     -3.18      0.00
   -3   -1    2     -0.61      0.00
   -2   -1    2      4.52      0.00
   -1   -1    2    -10.18      0.00
    0   -1    2     20.31      0.00
    1   -1    2    -15.12      0.00
    2   -1    2     -9.42      0.00
    3   -1    2      0.67      0.00
    4   -1    2      2.36      0.00
    5   -1    2      0.30      0.00
    6   -1    2     -0.63      0.00
    7   -1    2     -0.06      0.00
    8   -1    2     -0.21      0.00
    9   -1    2     -0.96      0.00
   10   -1    2     -1.32      0.00
   11   -1    2     -0.45      0.00
   12   -1    2      3.10      0.00
  -11    0    2      0.64      0.00
  -10    0    2     -4.94      0.00
   -9    0    2     -8.61      0.00
   -8    0    2      0.53      0.00
   -7    0    2      1.08      0.00
   -6    0    2     -0.67      0.00
   -5    0    2      2.66      0.00
   -4    0    2      0.13      0.00
   -3    0    2      1.48      0.00
   -2    0    2     -1.87      0.00
   -1    0    2     -0.73      0.00
    1    0    2     18.49      0.00
    2    0    2    -12.09      0.00
    3    0    2     -5.44      0.00
    4    0    2      3.59      0.00
    5    0    2      0.27      0.00
    6    0    2     -0.75      0.00
    7    0    2     -0.88      0.00
    8    0    2      0.26      0.00
    9    0    2      0.23      0.00
   10    0    2      0.50      0.00
   11    0    2     -1.04      0.00
   12    0    2     -0.37      0.00
  -11    1    2      2.83      0.00
  -10    1    2      2.28      0.00
   -9    1    2     -1.10      0.00
   -8    1    2      1.15      0.00
   -7    1    2      0.91      0.00
   -6    1    2     -2.94      0.00
   -5    1    2      1.43      0.00
   -4    1    2     -0.07      0.00
   -3    1    2     -0.83      0.00
   -2    1    2      0.92      0.00
   -1    1    2     -4.92      0.00
    0    1    2     21.72      0.00
    1    1    2     14.12      0.00
    2    1    2      0.64      0.00
    3    1    2     -2.39      0.00
    4    1    2      1.43      0.00
    5    1    2     -0.42      0.00
    6    1    2     -0.08      0.00
    7    1    2     -0.52      0.00
    8    1    2     -0.34      0.00
    9    1    2     -1.14      0.00
   10    1    2     -2.13      0.00
   11    1    2     -3.40      0.00
   12    1    2     -2.49      0.00
  -11    2    2      0.51      0.00
  -10    2    2     -1.44      0.00
   -9    2    2     -1.38      0.00
   -8    2    2     -0.63      0.00
   -7    2    2     -0.75      0.00
   -6    2    2     -0.31      0.00
   -5    2    2      0.55      0.00
   -4    2    2      0.42      0.00
   -3    2    2      2.06      0.00
   -2    2    2     -1.91      0.00
   -1    2    2     -7.93      0.00
    0    2    2     -1.59      0.00
    1    2    2      5.96      0.00
    2    2    2      0.24      0.00
    3    2    2     -3.37      0.00
    4    2    2     -1.39      0.00
    5    2    2     -0.25      0.00
    6    2    2      0.02      0.00
    7    2    2     -1.33      0.00
    8    2    2     -0.44      0.00
    9    2    2     -0.63      0.00
   10    2    2     -0.51      0.00
   11    2    2      0.99      0.00
   12    2    2      0.54      0.00
  -11    3    2     -0.18      0.00
  -10    3    2      1.75      0.00
   -8    3    2      2.98      0.00
   -7    3    2      1.33      0.00
   -6    3    2     -0.39      0.00
   -5    3    2      0.78      0.00
   -4    3    2      0.30      0.00
   -3    3    2      0.92      0.00
   -2    3    2      3.45      0.00
   -1    3    2     -2.07      0.00
    0    3    2     -3.80      0.00
    1    3    2      8.71      0.00
    2    3    2      1.18      0.00
    3    3    2     -3.32      0.00
    4    3    2     -0.10      0.00
    5    3    2      0.24      0.00
    6    3    2     -0.60      0.00
    7    3    2     -1.27      0.00
    8    3    2     -0.32      0.00
    9    3    2      0.02      0.00
   10    3    2     -2.30      0.00
   11    3    2     -1.05      0.00
   12    3    2     -1.43      0.00
  -11    4    2     -2.70      0.00
  -10    4    2      1.15      0.00
   -9    4    2      1.57      0.00
   -8    4    2      1.66      0.00
   -7    4    2      0.14      0.00
   -6    4    2      0.80      0.00
   -5    4    2      0.77      0.00
   -4    4    2      0.35      0.00
   -3    4    2      0.43      0.00
   -2    4    2      4.06      0.00
   -1    4    2     -2.74      0.00
    0    4    2     -9.34      0.00
    1    4    2     -0.67      0.00
    2    4    2      2.75      0.00
    3    4    2      1.55      0.00
    4    4    2     -0.59      0.00
    5    4    2      0.05      0.00
    6    4    2      0.19      0.00
    7    4    2      0.26      0.00
    8    4    2     -1.11      0.00
    9    4    2     -1.91      0.00
   10    4    2     -2.46      0.00
   11    4    2      0.42      0.00
   12    4    2     -1.04      0.00
  -11    5    2     -2.19      0.00
  -10    5    2     -0.97      0.00
   -9    5    2      0.35      0.00
   -8    5    2      3.28      0.00
   -7    5    2      1.47      0.00
   -6    5    2     -1.08      0.00
   -5    5    2      1.04      0.00
   -4    5    2     -0.85      0.00
   -3    5    2     -0.08      0.00
   -2    5    2      5.25      0.00
   -1    5    2     -0.81      0.00
    0    5    2     -6.26      0.00
    1    5    2     -0.29      0.00
    2    5    2      2.22      0.00
    3    5    2      1.70      0.00
    4    5    2     -0.69      0.00
    5    5    2     -0.77      0.00
    6    5    2     -0.56      0.00
    7    5    2      1.08      0.00
    8    5    2      0.75      0.00
    9    5    2      0.51      0.00
   10    5    2     -1.69      0.00
   11    5    2      0.53      0.00
   12    5    2     -1.34      0.00
  -10    6    2     -0.87      0.00
   -9    6    2      4.04      0.00
   -8    6    2      2.12      0.00
   -7    6    2      1.27      0.00
   -6    6    2     -2.38      0.00
   -5    6    2      0.87      0.00
   -4    6    2      0.67      0.00
   -3    6    2      1.39      0.00
   -2    6    2      1.34      0.00
   -1    6    2      1.99      0.00
    0    6    2     -3.75      0.00
    1    6    2     -2.54      0.00
    2    6    2      0.95      0.00
    3    6    2      1.96      0.00
    4    6    2      0.40      0.00
    5    6    2      0.50      0.00
    6    6    2     -1.18      0.00
    7    6    2      0.03      0.00
    8    6    2     -0.90      0.00
    9    6    2      0.12      0.00
   10    6    2     -1.14      0.00
   11    6    2     -0.12      0.00
  -10    7    2     -3.43      0.00
   -9    7    2      0.83      0.00
   -8    7    2      1.72      0.00
   -7    7    2      3.59      0.00
   -6    7    2     -3.70      0.00
   -5    7    2      0.37      0.00
   -4    7    2     -0.77      0.00
   -3    7    2     -1.16      0.00
   -2    7    2     -0.76      0.00
   -1    7    2      3.61      0.00
    0    7    2     -1.82      0.00
    1    7    2     -1.68      0.00
    2    7    2      1.35      0.00
    3    7    2      1.61      0.00
    4    7    2     -0.79      0.00
    5    7    2      1.23      0.00
    6    7    2      0.14      0.00
    7    7    2      1.13      0.00
    8    7    2      1.12      0.00
    9    7    2      0.81      0.00
   10    7    2     -0.08      0.00
   11    7    2     -0.13      0.00
  -10    8    2     -4.35      0.00
   -9    8    2      0.30      0.00
   -8    8    2      2.55      0.00
   -7    8    2      7.24      0.00
   -6    8    2      0.95      0.00
   -5    8    2      0.23      0.00
   -4    8    2     -0.03      0.00
   -3    8    2     -0.42      0.00
   -2    8    2     -0.33      0.00
   -1    8    2      5.23      0.00
    0    8    2      0.63      0.00
    1    8    2     -2.62      0.00
    2    8    2     -0.66      0.00
    3    8    2      0.76      0.00
    4    8    2     -0.62      0.00
    5    8    2      0.84      0.00
    6    8    2     -0.17      0.00
    7    8    2      0.29      0.00
    8    8    2      0.53      0.00
    9    8    2     -0.28      0.00
   10    8    2     -0.10      0.00
   11    8    2     -0.75      0.00
   -9    9    2     -2.33      0.00
   -8    9    2     -1.24      0.00
   -7    9    2      0.87      0.00
   -6    9    2      0.43      0.00
   -5    9    2      0.96      0.00
   -4    9    2      0.13      0.00
   -3    9    2     -1.23      0.00
   -2    9    2     -1.35      0.00
   -1    9    2      2.80      0.00
    0    9    2      1.47      0.00
    1    9    2     -0.75      0.00
    2    9    2      0.11      0.00
    3    9    2     -0.53      0.00
    4    9    2     -0.57      0.00
    5    9    2      0.93      0.00
    6    9    2      0.03      0.00
    7    9    2      1.01      0.00
    8    9    2      0.32      0.00
    9    9    2     -1.38      0.00
   10    9    2      1.51      0.00
   -8   10    2     -1.32      0.00
   -7   10    2      0.58      0.00
   -6   10    2      1.56      0.00
   -5   10    2     -0.19      0.00
   -4   10    2      0.60      0.00
   -3   10    2      1.13      0.00
   -2   10    2     -0.99      0.00
   -1   10    2      0.69      0.00
    0   10    2      1.27      0.00
    1   10    2     -0.07      0.00
    2   10    2      0.13      0.00
    3   10    2     -1.39      0.00
    4   10    2     -0.18      0.00
    5   10    2      1.13      0.00
    6   10    2      0.21      0.00
    7   10    2      1.31      0.00
    8   10    2      0.71      0.00
    9   10    2     -2.97      0.00
   -8   11    2     -0.30      0.00
   -7   11    2     -0.59      0.00
   -6   11    2      0.27      0.00
   -5   11    2      0.58      0.00
   -4   11    2      1.94      0.00
   -3   11    2      1.27      0.00
   -2   11    2     -0.75      0.00
   -1   11    2     -0.41      0.00
    0   11    2      0.92      0.00
    1   11    2      1.85      0.00
    2   11    2      1.66      0.00
    3   11    2     -0.59      0.00
    4   11    2      0.33      0.00
    5   11    2     -0.51      0.00
    6   11    2      0.09      0.00
    7   11    2      2.38      0.00
    8   11    2      0.85      0.00
    9   11    2     -2.21      0.00
   -7   12    2      0.74      0.00
   -6   12    2     -0.48      0.00
   -5   12    2     -0.97      0.00
   -4   12    2      1.30      0.00
   -3   12    2      0.14      0.00
   -2   12    2      0.29      0.00
   -1   12    2      1.11      0.00
    0   12    2     -0.08      0.00
    1   12    2      0.72      0.00
    2   12    2      0.63      0.00
    3   12    2     -0.82      0.00
    4   12    2      2.17      0.00
    5   12    2     -0.71      0.00
    6   12    2     -1.65      0.00
    7   12    2      0.61      0.00
    8   12    2      0.14      0.00
   -6   13    2      1.17      0.00
   -5   13    2      0.38      0.00
   -4   13    2      1.79      0.00
   -3   13    2      2.01      0.00
   -2   13    2      0.39      0.00
   -1   13    2      0.74      0.00
    0   13    2      0.42      0.00
    1   13    2      1.64      0.00
    2   13    2      1.28      0.00
    3   13    2     -2.15      0.00
    4   13    2      0.41      0.00
    5   13    2      0.18      0.00
    6   13    2      0.06      0.00
    7   13    2      0.65      0.00
   -4   14    2      2.51      0.00
   -3   14    2      1.55      0.00
   -2   14    2     -0.75      0.00
   -1   14    2      0.82      0.00
    0   14    2     -0.13      0.00
    1   14    2     -0.47      0.00
    2   14    2     -0.26      0.00
    3   14    2     -0.72      0.00
    4   14    2      1.01      0.00
    5   14    2      0.71      0.00
   -2   15    2     -1.04      0.00
   -1   15    2      0.17      0.00
    0   15    2     -0.20      0.00
    1   15    2      0.07      0.00
    2   15    2     -0.59      0.00
    3   15    2     -1.15      0.00
   -3  -14    3      0.02      0.00
   -2  -14    3     -0.10      0.00
   -1  -14    3      0.65      0.00
    0  -14    3     -0.04      0.00
    1  -14    3     -0.39      0.00
    2  -14    3      1.07      0.00
    3  -14    3      1.45      0.00
    4  -14    3      0.51      0.00
   -5  -13    3      0.50      0.00
   -4  -13    3      1.22      0.00
   -3  -13    3      1.30      0.00
   -2  -13    3      2.29      0.00
   -1  -13    3      0.18      0.00
    0  -13    3     -0.24      0.00
    1  -13    3     -0.97      0.00
    2  -13    3     -0.57      0.00
    3  -13    3      0.03      0.00
    4  -13    3     -0.55      0.00
    5  -13    3      0.79      0.00
    6  -13    3      1.63      0.00
   -6  -12    3     -0.69      0.00
   -5  -12    3     -0.50      0.00
   -4  -12    3      0.24      0.00
   -3  -12    3     -1.21      0.00
   -2  -12    3      2.32      0.00
   -1  -12    3      2.84      0.00
    0  -12    3      1.50      0.00
    1  -12    3     -0.01      0.00
    2  -12    3     -0.08      0.00
    3  -12    3     -0.50      0.00
    4  -12    3     -0.45      0.00
    5  -12    3      0.14      0.00
    6  -12    3      1.24      0.00
    7  -12    3      1.44      0.00
   -7  -11    3     -0.10      0.00
   -6  -11    3      0.43      0.00
   -5  -11    3     -0.49      0.00
   -4  -11    3      0.39      0.00
   -3  -11    3     -0.17      0.00
   -2  -11    3      0.72      0.00
   -1  -11    3     -0.29      0.00
    0  -11    3     -0.47      0.00
    1  -11    3      0.69      0.00
    2  -11    3      0.19      0.00
    3  -11    3     -0.78      0.00
    4  -11    3     -0.89      0.00
    5  -11    3     -0.92      0.00
    6  -11    3      0.24      0.00
    7  -11    3     -0.11      0.00
    8  -11    3     -0.27      0.00
   -8  -10    3      0.73      0.00
   -7  -10    3     -1.21      0.00
   -6  -10    3     -0.28      0.00
   -5  -10    3      0.27      0.00
   -4  -10    3      0.32      0.00
   -3  -10    3     -0.36      0.00
   -2  -10    3      1.27      0.00
   -1  -10    3      1.29      0.00
    0  -10    3     -0.33      0.00
    1  -10    3      0.74      0.00
    2  -10    3     -0.79      0.00
    3  -10    3     -1.60      0.00
    4  -10    3      0.69      0.00
    5  -10    3     -0.17      0.00
    6  -10    3     -0.21      0.00
    7  -10    3     -0.20      0.00
    8  -10    3      1.73      0.00
    9  -10    3      0.49      0.00
   -9   -9    3     -0.91      0.00
   -8   -9    3      1.42      0.00
   -7   -9    3      0.30      0.00
   -6   -9    3     -0.40      0.00
   -5   -9    3      0.25      0.00
   -4   -9    3      0.09      0.00
   -3   -9    3     -0.69      0.00
   -2   -9    3      0.11      0.00
   -1   -9    3      1.36      0.00
    0   -9    3      1.42      0.00
    1   -9    3      1.33      0.00
    2   -9    3     -0.38      0.00
    3   -9    3     -0.97      0.00
    4   -9    3      1.50      0.00
    5   -9    3      0.79      0.00
    6   -9    3      1.95      0.00
    7   -9    3     -0.04      0.00
    8   -9    3      0.69      0.00
    9   -9    3      0.97      0.00
   10   -9    3     -0.24      0.00
   -9   -8    3     -1.16      0.00
   -8   -8    3     -0.89      0.00
   -7   -8    3      0.15      0.00
   -6   -8    3      0.55      0.00
   -5   -8    3     -0.10      0.00
   -4   -8    3     -0.13      0.00
   -3   -8    3     -0.29      0.00
   -2   -8    3     -1.30      0.00
   -1   -8    3     -1.74      0.00
    0   -8    3     -1.08      0.00
    1   -8    3      1.29      0.00
    2   -8    3     -0.07      0.00
    3   -8    3     -3.04      0.00
    4   -8    3     -1.41      0.00
    5   -8    3     -0.77      0.00
    6   -8    3      0.84      0.00
    7   -8    3      1.11      0.00
    8   -8    3      1.54      0.00
    9   -8    3      1.26      0.00
   10   -8    3      0.05      0.00
  -10   -7    3      1.25      0.00
   -9   -7    3     -0.56      0.00
   -8   -7    3     -0.42      0.00
   -7   -7    3     -0.08      0.00
   -6   -7    3      0.59      0.00
   -5   -7    3      0.48      0.00
   -4   -7    3      0.48      0.00
   -3   -7    3      0.11      0.00
   -2   -7    3     -0.37      0.00
   -1   -7    3     -0.65      0.00
    0   -7    3     -1.54      0.00
    1   -7    3      3.39      0.00
    2   -7    3      1.20      0.00
    3   -7    3     -1.56      0.00
    4   -7    3     -0.67      0.00
    5   -7    3      0.35      0.00
    6   -7    3     -0.43      0.00
    7   -7    3      0.64      0.00
    8   -7    3     -0.36      0.00
    9   -7    3     -0.53      0.00
   10   -7    3      0.45      0.00
   11   -7    3     -1.45      0.00
  -10   -6    3      0.97      0.00
   -9   -6    3     -0.61      0.00
   -8   -6    3     -2.70      0.00
   -7   -6    3     -0.34      0.00
   -6   -6    3      1.67      0.00
   -5   -6    3     -0.20      0.00
   -4   -6    3     -0.38      0.00
   -3   -6    3     -1.76      0.00
   -2   -6    3     -0.67      0.00
   -1   -6    3      1.57      0.00
    0   -6    3     -2.22      0.00
    1   -6    3      3.13      0.00
    2   -6    3     -0.36      0.00
    3   -6    3     -1.62      0.00
    4   -6    3     -0.54      0.00
    5   -6    3      0.31      0.00
    6   -6    3     -0.99      0.00
    7   -6    3      0.21      0.00
    8   -6    3      1.21      0.00
    9   -6    3      1.48      0.00
   10   -6    3      0.94      0.00
   11   -6    3      0.20      0.00
  -10   -5    3      2.28      0.00
   -9   -5    3      2.75      0.00
   -8   -5    3     -0.17      0.00
   -7   -5    3     -0.01      0.00
   -6   -5    3      0.50      0.00
   -5   -5    3     -0.92      0.00
   -4   -5    3      0.03      0.00
   -3   -5    3     -0.94      0.00
   -2   -5    3     -0.31      0.00
   -1   -5    3      1.73      0.00
    0   -5    3     -1.20      0.00
    1   -5    3      5.10      0.00
    2   -5    3      1.89      0.00
    3   -5    3     -4.30      0.00
    4   -5    3     -1.68      0.00
    5   -5    3      0.31      0.00
    6   -5    3     -1.89      0.00
    7   -5    3     -1.22      0.00
    8   -5    3      0.88      0.00
    9   -5    3      0.80      0.00
   10   -5    3     -0.73      0.00
   11   -5    3      0.45      0.00
  -11   -4    3     -6.22      0.00
  -10   -4    3     -0.07      0.00
   -9   -4    3      2.09      0.00
   -8   -4    3     -3.33      0.00
   -7   -4    3     -1.69      0.00
   -6   -4    3      0.17      0.00
   -5   -4    3      0.32      0.00
   -4   -4    3     -0.33      0.00
   -3   -4    3     -1.62      0.00
   -2   -4    3     -0.26      0.00
   -1   -4    3      0.47      0.00
    0   -4    3     -2.85      0.00
    1   -4    3      0.59      0.00
    2   -4    3      4.72      0.00
    3   -4    3     -1.04      0.00
    4   -4    3     -0.28      0.00
    5   -4    3      2.04      0.00
    6   -4    3      1.89      0.00
    7   -4    3     -1.17      0.00
    8   -4    3     -1.26      0.00
    9   -4    3      1.68      0.00
   10   -4    3      0.75      0.00
   11   -4    3     -0.97      0.00
   12   -4    3     -0.90      0.00
  -11   -3    3     -4.81      0.00
  -10   -3    3     -1.17      0.00
   -9   -3    3      3.87      0.00
   -8   -3    3     -1.76      0.00
   -7   -3    3     -0.50      0.00
   -6   -3    3      0.52      0.00
   -5   -3    3      1.74      0.00
   -4   -3    3      3.20      0.00
   -3   -3    3      1.48      0.00
   -2   -3    3      0.24      0.00
   -1   -3    3      0.68      0.00
    0   -3    3     -8.82      0.00
    1   -3    3     -7.39      0.00
    2   -3    3      5.59      0.00
    3   -3    3      1.06      0.00
    4   -3    3     -1.52      0.00
    5   -3    3      0.52      0.00
    6   -3    3     -0.51      0.00
    7   -3    3     -0.35      0.00
    8   -3    3      0.81      0.00
    9   -3    3     -1.46      0.00
   10   -3    3     -1.41      0.00
   11   -3    3      1.45      0.00
   12   -3    3      1.64      0.00
  -11   -2    3     -3.86      0.00
  -10   -2    3     -3.64      0.00
   -9   -2    3      1.29      0.00
   -8   -2    3     -2.18      0.00
   -7   -2    3     -0.36      0.00
   -6   -2    3     -0.32      0.00
   -5   -2    3     -0.05      0.00
   -4   -2    3      2.97      0.00
   -3   -2    3      2.72      0.00
   -2   -2    3      0.01      0.00
   -1   -2    3      7.23      0.00
    0   -2    3      2.04      0.00
    1   -2    3      1.27      0.00
    2   -2    3      2.30      0.00
    3   -2    3      0.72      0.00
    4   -2    3     -2.07      0.00
    5   -2    3     -0.96      0.00
    6   -2    3      1.31      0.00
    7   -2    3     -0.27      0.00
    8   -2    3     -0.87      0.00
    9   -2    3      1.48      0.00
   10   -2    3      1.77      0.00
   11   -2    3     -1.28      0.00
   12   -2    3     -4.29      0.00
  -11   -1    3     -1.90      0.00
  -10   -1    3      3.42      0.00
   -9   -1    3      8.61      0.00
   -8   -1    3     -0.78      0.00
   -7   -1    3     -1.27      0.00
   -6   -1    3      0.41      0.00
   -5   -1    3     -0.94      0.00
   -4   -1    3      3.53      0.00
   -3   -1    3      2.77      0.00
   -2   -1    3      1.33      0.00
   -1   -1    3      2.31      0.00
    0   -1    3    -22.30      0.00
    1   -1    3    -11.99      0.00
    2   -1    3      7.46      0.00
    3   -1    3      5.11      0.00
    4   -1    3     -2.86      0.00
    5   -1    3      0.06      0.00
    6   -1    3      1.52      0.00
    7   -1    3      0.72      0.00
    8   -1    3     -0.18      0.00
    9   -1    3     -0.21      0.00
   10   -1    3     -3.06      0.00
   11   -1    3      0.25      0.00
   12   -1    3      1.40      0.00
  -11    0    3     -1.48      0.00
  -10    0    3     -0.74      0.00
   -9    0    3      1.65      0.00
   -8    0    3     -0.88      0.00
   -7    0    3     -0.11      0.00
   -6    0    3      2.39      0.00
   -5    0    3     -2.50      0.00
   -4    0    3     -0.10      0.00
   -3    0    3      2.62      0.00
   -2    0    3     -3.65      0.00
   -1    0    3     -1.36      0.00
    0    0    3     -6.62      0.00
    1    0    3     -8.15      0.00
    2    0    3     -2.12      0.00
    3    0    3      1.46      0.00
    4    0    3     -2.40      0.00
    5    0    3     -0.61      0.00
    6    0    3      0.26      0.00
    7    0    3      0.13      0.00
    8    0    3     -0.50      0.00
    9    0    3      4.04      0.00
   10    0    3      1.30      0.00
   11    0    3      2.60      0.00
   12    0    3      1.44      0.00
  -11    1    3     -2.48      0.00
  -10    1    3      3.21      0.00
   -9    1    3      4.56      0.00
   -8    1    3      2.51      0.00
   -7    1    3      1.79      0.00
   -6    1    3      0.75      0.00
   -5    1    3     -1.21      0.00
   -4    1    3     -1.17      0.00
   -3    1    3      0.01      0.00
   -2    1    3      1.57      0.00
   -1    1    3      2.42      0.00
    0    1    3      3.02      0.00
    1    1    3     -5.79      0.00
    2    1    3     -1.58      0.00
    3    1    3      2.28      0.00
    4    1    3     -1.01      0.00
    5    1    3     -1.44      0.00
    6    1    3     -1.00      0.00
    7    1    3      0.89      0.00
    8    1    3     -1.76      0.00
    9    1    3      2.04      0.00
   10    1    3     -0.39      0.00
   11    1    3      0.46      0.00
   12    1    3     -0.19      0.00
  -11    2    3     -1.96      0.00
  -10    2    3     -0.49      0.00
   -9    2    3     -0.22      0.00
   -8    2    3     -1.29      0.00
   -7    2    3     -0.64      0.00
   -6    2    3      0.74      0.00
   -5    2    3      0.73      0.00
   -4    2    3     -1.19      0.00
   -3    2    3      0.36      0.00
   -2    2    3     -1.78      0.00
   -1    2    3     -2.21      0.00
    0    2    3      6.71      0.00
    1    2    3     -5.26      0.00
    2    2    3     -1.24      0.00
    3    2    3      3.81      0.00
    4    2    3     -0.28      0.00
    5    2    3     -0.35      0.00
    6    2    3      1.02      0.00
    7    2    3      1.64      0.00
    8    2    3     -1.39      0.00
    9    2    3      0.97      0.00
   10    2    3      0.81      0.00
   11    2    3      2.06      0.00
   12    2    3      0.73      0.00
  -11    3    3      1.57      0.00
  -10    3    3      0.27      0.00
   -9    3    3     -0.92      0.00
   -8    3    3      0.21      0.00
   -6    3    3     -1.38      0.00
   -5    3    3      0.26      0.00
   -4    3    3      0.06      0.00
   -3    3    3      1.34      0.00
   -2    3    3     -2.28      0.00
   -1    3    3     -1.13      0.00
    0    3    3     10.80      0.00
    1    3    3      4.61      0.00
    2    3    3     -2.74      0.00
    3    3    3     -1.75      0.00
    4    3    3      2.35      0.00
    5    3    3      0.29      0.00
    6    3    3     -0.20      0.00
    7    3    3      1.16      0.00
    8    3    3      0.11      0.00
    9    3    3      1.83      0.00
   10    3    3      1.09      0.00
   11    3    3      0.09      0.00
   12    3    3     -0.60      0.00
  -11    4    3      0.79      0.00
  -10    4    3     -1.00      0.00
   -8    4    3     -2.70      0.00
   -7    4    3     -1.58      0.00
   -6    4    3     -0.29      0.00
   -5    4    3     -0.36      0.00
   -4    4    3     -0.41      0.00
   -3    4    3     -0.16      0.00
   -2    4    3     -4.18      0.00
   -1    4    3      1.85      0.00
    0    4    3      5.85      0.00
    1    4    3      0.13      0.00
    2    4    3     -1.76      0.00
    3    4    3     -1.39      0.00
    4    4    3      0.03      0.00
    5    4    3     -0.61      0.00
    6    4    3     -0.44      0.00
    7    4    3     -0.62      0.00
    8    4    3     -0.85      0.00
    9    4    3     -0.75      0.00
   10    4    3      0.53      0.00
   11    4    3     -0.08      0.00
   12    4    3      0.73      0.00
  -10    5    3     -0.83      0.00
   -9    5    3     -3.51      0.00
   -8    5    3      0.13      0.00
   -7    5    3     -0.68      0.00
   -6    5    3     -0.89      0.00
   -5    5    3     -0.44      0.00
   -4    5    3     -1.23      0.00
   -3    5    3     -2.44      0.00
   -2    5    3     -1.22      0.00
   -1    5    3      0.82      0.00
    0    5    3      3.54      0.00
    1    5    3      2.96      0.00
    2    5    3     -1.27      0.00
    3    5    3     -1.62      0.00
    4    5    3      0.08      0.00
    5    5    3     -0.12      0.00
    6    5    3      0.55      0.00
    7    5    3     -0.63      0.00
    8    5    3      1.53      0.00
    9    5    3      0.76      0.00
   10    5    3      1.05      0.00
   11    5    3     -0.60      0.00
   12    5    3     -0.04      0.00
  -10    6    3      1.19      0.00
   -9    6    3     -2.60      0.00
   -8    6    3     -0.11      0.00
   -7    6    3     -0.87      0.00
   -6    6    3      2.35      0.00
   -5    6    3      0.01      0.00
   -4    6    3      0.49      0.00
   -3    6    3      0.53      0.00
   -2    6    3      1.57      0.00
   -1    6    3     -1.79      0.00
    0    6    3      0.03      0.00
    1    6    3      1.54      0.00
    2    6    3     -1.79      0.00
    3    6    3     -1.54      0.00
    4    6    3      1.17      0.00
    5    6    3      0.80      0.00
    6    6    3      0.68      0.00
    7    6    3     -1.67      0.00
    8    6    3     -0.43      0.00
    9    6    3     -0.52      0.00
   10    6    3      0.86      0.00
   11    6    3     -0.90      0.00
  -10    7    3      3.91      0.00
   -9    7    3     -5.32      0.00
   -8    7    3     -3.23      0.00
   -7    7    3     -3.01      0.00
   -6    7    3      1.30      0.00
   -5    7    3      0.71      0.00
   -4    7    3     -1.48      0.00
   -3    7    3     -1.16      0.00
   -2    7    3      1.12      0.00
   -1    7    3     -3.58      0.00
    0    7    3     -1.32      0.00
    1    7    3      2.27      0.00
    2    7    3     -0.36      0.00
    3    7    3     -2.05      0.00
    4    7    3      0.50      0.00
    5    7    3      1.21      0.00
    6    7    3      1.08      0.00
    7    7    3     -0.52      0.00
    8    7    3      0.33      0.00
    9    7    3     -0.59      0.00
   10    7    3      1.10      0.00
   11    7    3      0.39      0.00
   -9    8    3     -0.95      0.00
   -8    8    3     -1.70      0.00
   -7    8    3     -2.23      0.00
   -6    8    3      0.14      0.00
   -5    8    3      1.59      0.00
   -4    8    3     -0.35      0.00
   -3    8    3      1.06      0.00
   -2    8    3      1.91      0.00
   -1    8    3     -2.18      0.00
    0    8    3     -1.52      0.00
    1    8    3      0.57      0.00
    2    8    3      0.77      0.00
    3    8    3      0.19      0.00
    4    8    3      0.07      0.00
    5    8    3     -0.29      0.00
    6    8    3      1.01      0.00
    7    8    3     -0.53      0.00
    8    8    3     -0.23      0.00
    9    8    3     -0.17      0.00
   10    8    3     -0.50      0.00
   11    8    3     -0.35      0.00
   -9    9    3      2.25      0.00
   -8    9    3     -0.32      0.00
   -7    9    3     -1.80      0.00
   -6    9    3     -3.03      0.00
   -5    9    3      1.07      0.00
   -4    9    3     -0.53      0.00
   -3    9    3     -0.16      0.00
   -2    9    3      1.89      0.00
   -1    9    3     -1.67      0.00
    0    9    3     -1.67      0.00
    1    9    3      0.70      0.00
    2    9    3      1.12      0.00
    3    9    3      0.62      0.00
    4    9    3     -0.02      0.00
    5    9    3     -1.43      0.00
    6    9    3     -0.10      0.00
    7    9    3     -0.59      0.00
    8    9    3     -0.42      0.00
    9    9    3      0.94      0.00
   10    9    3      1.14      0.00
   -8   10    3     -0.30      0.00
   -7   10    3      0.76      0.00
   -6   10    3     -1.34      0.00
   -5   10    3     -0.92      0.00
   -4   10    3     -1.91      0.00
   -3   10    3     -0.60      0.00
   -2   10    3      2.35      0.00
   -1   10    3      0.09      0.00
    0   10    3     -2.05      0.00
    1   10    3     -2.04      0.00
    2   10    3     -0.48      0.00
    3   10    3      0.57      0.00
    4   10    3      0.03      0.00
    5   10    3     -0.42      0.00
    6   10    3      0.07      0.00
    7   10    3     -1.59      0.00
    8   10    3      0.51      0.00
    9   10    3      1.97      0.00
   10   10    3     -0.45      0.00
   -7   11    3     -0.41      0.00
   -6   11    3      0.57      0.00
   -5   11    3      1.42      0.00
   -4   11    3     -1.27      0.00
   -3   11    3     -0.67      0.00
   -2   11    3      0.63      0.00
   -1   11    3      0.72      0.00
    0   11    3      0.49      0.00
    1   11    3     -0.90      0.00
    2   11    3     -0.75      0.00
    3   11    3      0.22      0.00
    4   11    3     -0.86      0.00
    5   11    3     -0.36      0.00
    6   11    3      0.09      0.00
    7   11    3     -1.47      0.00
    8   11    3      0.59      0.00
    9   11    3      2.12      0.00
   -6   12    3     -0.91      0.00
   -5   12    3      0.01      0.00
   -4   12    3     -2.34      0.00
   -3   12    3     -2.24      0.00
   -2   12    3     -1.73      0.00
   -1   12    3      0.21      0.00
    0   12    3      0.22      0.00
    1   12    3     -1.11      0.00
    2   12    3     -0.62      0.00
    3   12    3      1.38      0.00
    4   12    3      0.03      0.00
    5   12    3      0.20      0.00
    6   12    3     -0.72      0.00
    7   12    3     -2.31      0.00
    8   12    3     -0.48      0.00
   -5   13    3     -1.60      0.00
   -4   13    3     -3.64      0.00
   -3   13    3     -0.77      0.00
   -2   13    3      0.29      0.00
   -1   13    3     -0.04      0.00
    0   13    3      0.43      0.00
    1   13    3      0.81      0.00
    2   13    3     -0.27      0.00
    3   13    3     -0.49      0.00
    4   13    3     -1.53      0.00
    5   13    3     -0.18      0.00
    6   13    3      0.20      0.00
    7   13    3      0.06      0.00
   -4   14    3      0.49      0.00
   -3   14    3     -0.89      0.00
   -2   14    3      0.03      0.00
   -1   14    3      0.18      0.00
    0   14    3      0.10      0.00
    1   14    3      0.60      0.00
    2   14    3      1.08      0.00
    3   14    3      1.13      0.00
    4   14    3      0.69      0.00
    5   14    3      0.00      0.00
   -2   15    3     -0.65      0.00
   -1   15    3     -0.91      0.00
    0   15    3      0.41      0.00
    1   15    3      1.11      0.00
    2   15    3      1.48      0.00
    3   15    3      0.21      0.00
   -3  -14    4     -0.36      0.00
   -2  -14    4     -0.47      0.00
   -1  -14    4     -0.02      0.00
    0  -14    4     -0.25      0.00
    1  -14    4      0.47      0.00
    2  -14    4      0.04      0.00
    3  -14    4     -0.50      0.00
    4  -14    4      0.37      0.00
   -4  -13    4     -0.49      0.00
   -3  -13    4      0.87      0.00
   -2  -13    4     -0.52      0.00
   -1  -13    4     -0.36      0.00
    0  -13    4     -1.23      0.00
    1  -13    4     -0.06      0.00
    2  -13    4     -0.68      0.00
    3  -13    4     -1.44      0.00
    4  -13    4     -0.85      0.00
    5  -13    4      0.14      0.00
    6  -13    4     -1.89      0.00
   -6  -12    4     -1.68      0.00
   -5  -12    4     -0.07      0.00
   -4  -12    4     -1.19      0.00
   -3  -12    4     -1.10      0.00
   -2  -12    4     -2.03      0.00
   -1  -12    4      1.00      0.00
    0  -12    4      0.32      0.00
    1  -12    4     -0.13      0.00
    2  -12    4      0.45      0.00
    3  -12    4      0.17      0.00
    4  -12    4      0.36      0.00
    5  -12    4      1.86      0.00
    6  -12    4     -1.91      0.00
    7  -12    4     -0.48      0.00
   -7  -11    4      2.84      0.00
   -6  -11    4      0.17      0.00
   -5  -11    4      0.27      0.00
   -4  -11    4     -0.51      0.00
   -3  -11    4      0.61      0.00
   -2  -11    4     -2.33      0.00
   -1  -11    4     -2.17      0.00
    0  -11    4     -0.27      0.00
    1  -11    4     -1.23      0.00
    2  -11    4     -0.03      0.00
    3  -11    4      0.62      0.00
    4  -11    4     -0.65      0.00
    5  -11    4      1.20      0.00
    6  -11    4     -1.23      0.00
    7  -11    4     -0.88      0.00
    8  -11    4     -1.75      0.00
   -8  -10    4     -0.32      0.00
   -7  -10    4      1.25      0.00
   -6  -10    4      0.20      0.00
   -5  -10    4      1.05      0.00
   -4  -10    4      0.30      0.00
   -3  -10    4      1.11      0.00
   -2  -10    4      0.56      0.00
   -1  -10    4     -0.41      0.00
    0  -10    4     -0.20      0.00
    1  -10    4     -1.08      0.00
    2  -10    4      0.25      0.00
    3  -10    4      0.04      0.00
    4  -10    4     -0.79      0.00
    5  -10    4      1.77      0.00
    6  -10    4     -0.86      0.00
    7  -10    4      0.35      0.00
    8  -10    4     -1.34      0.00
    9  -10    4     -0.50      0.00
   -8   -9    4      0.88      0.00
   -7   -9    4      1.08      0.00
   -6   -9    4     -0.74      0.00
   -5   -9    4     -0.52      0.00
   -4   -9    4     -0.07      0.00
   -3   -9    4      0.46      0.00
   -2   -9    4      0.72      0.00
   -1   -9    4      1.84      0.00
    0   -9    4      2.04      0.00
    1   -9    4     -0.70      0.00
    2   -9    4     -0.37      0.00
    3   -9    4      1.78      0.00
    4   -9    4     -0.53      0.00
    5   -9    4     -0.44      0.00
    6   -9    4     -1.51      0.00
    7   -9    4      0.28      0.00
    8   -9    4     -1.56      0.00
    9   -9    4     -0.29      0.00
   10   -9    4      0.79      0.00
   -9   -8    4     -0.07      0.00
   -8   -8    4      0.02      0.00
   -7   -8    4      0.93      0.00
   -6   -8    4      0.07      0.00
   -5   -8    4     -0.68      0.00
   -4   -8    4     -0.80      0.00
   -3   -8    4      0.33      0.00
   -2   -8    4      0.74      0.00
   -1   -8    4     -0.75      0.00
    0   -8    4     -0.83      0.00
    1   -8    4     -1.86      0.00
    2   -8    4     -2.08      0.00
    3   -8    4      0.37      0.00
    4   -8    4     -0.33      0.00
    5   -8    4     -1.06      0.00
    6   -8    4     -1.01      0.00
    7   -8    4     -0.40      0.00
    8   -8    4     -0.15      0.00
    9   -8    4      0.31      0.00
   10   -8    4     -0.14      0.00
   -9   -7    4      1.49      0.00
   -8   -7    4      1.24      0.00
   -7   -7    4      0.60      0.00
   -6   -7    4     -1.51      0.00
   -5   -7    4     -0.21      0.00
   -4   -7    4     -0.05      0.00
   -3   -7    4      0.65      0.00
   -2   -7    4      2.48      0.00
   -1   -7    4      0.21      0.00
    0   -7    4      1.98      0.00
    1   -7    4     -1.16      0.00
    2   -7    4     -1.86      0.00
    3   -7    4      0.28      0.00
    4   -7    4      2.62      0.00
    5   -7    4      0.54      0.00
    6   -7    4     -0.14      0.00
    7   -7    4     -1.40      0.00
    8   -7    4     -0.77      0.00
    9   -7    4     -0.03      0.00
   10   -7    4     -0.10      0.00
   11   -7    4      0.84      0.00
  -10   -6    4     -2.35      0.00
   -9   -6    4     -0.33      0.00
   -8   -6    4     -0.39      0.00
   -7   -6    4     -0.05      0.00
   -6   -6    4     -0.85      0.00
   -5   -6    4      0.49      0.00
   -4   -6    4     -0.24      0.00
   -3   -6    4     -0.20      0.00
   -2   -6    4      1.74      0.00
   -1   -6    4     -1.29      0.00
    0   -6    4      2.49      0.00
    1   -6    4     -3.40      0.00
    2   -6    4     -1.66      0.00
    3   -6    4      0.56      0.00
    4   -6    4      0.92      0.00
    5   -6    4      0.04      0.00
    6   -6    4      2.36      0.00
    7   -6    4     -0.07      0.00
    8   -6    4     -1.37      0.00
    9   -6    4     -0.54      0.00
   10   -6    4      1.60      0.00
   11   -6    4      1.62      0.00
  -10   -5    4     -0.42      0.00
   -9   -5    4      0.27      0.00
   -8   -5    4      2.69      0.00
   -7   -5    4      0.70      0.00
   -6   -5    4     -1.26      0.00
   -5   -5    4     -0.07      0.00
   -4   -5    4      0.26      0.00
   -3   -5    4      0.62      0.00
   -2   -5    4      0.63      0.00
   -1   -5    4     -2.70      0.00
    0   -5    4      3.71      0.00
    1   -5    4     -0.88      0.00
    2   -5    4     -1.28      0.00
    3   -5    4      0.96      0.00
    4   -5    4     -1.03      0.00
    5   -5    4     -2.28      0.00
    6   -5    4      0.41      0.00
    7   -5    4      0.87      0.00
    8   -5    4      0.47      0.00
    9   -5    4     -2.48      0.00
   10   -5    4     -1.37      0.00
   11   -5    4     -0.70      0.00
   12   -5    4     -0.32      0.00
  -10   -4    4      0.17      0.00
   -9   -4    4     -1.78      0.00
   -8   -4    4      1.67      0.00
   -7   -4    4      0.25      0.00
   -6   -4    4     -0.74      0.00
   -5   -4    4     -0.14      0.00
   -4   -4    4     -0.12      0.00
   -3   -4    4      0.18      0.00
   -2   -4    4      1.58      0.00
   -1   -4    4     -3.12      0.00
    0   -4    4     -1.34      0.00
    1   -4    4      0.67      0.00
    2   -4    4     -1.46      0.00
    3   -4    4      1.59      0.00
    4   -4    4     -0.43      0.00
    5   -4    4     -0.86      0.00
    6   -4    4      2.61      0.00
    7   -4    4      0.52      0.00
    8   -4    4     -0.89      0.00
    9   -4    4     -0.14      0.00
   10   -4    4      1.95      0.00
   11   -4    4     -0.51      0.00
   12   -4    4     -2.49      0.00
  -11   -3    4      5.24      0.00
  -10   -3    4      3.30      0.00
   -9   -3    4     -0.45      0.00
   -8   -3    4      2.54      0.00
   -7   -3    4      1.18      0.00
   -6   -3    4      0.71      0.00
   -5   -3    4     -0.34      0.00
   -4   -3    4      0.63      0.00
   -3   -3    4     -0.23      0.00
   -2   -3    4     -1.11      0.00
   -1   -3    4     -3.17      0.00
    0   -3    4     -3.34      0.00
    1   -3    4      2.67      0.00
    2   -3    4     -0.52      0.00
    3   -3    4     -0.29      0.00
    4   -3    4      0.83      0.00
    5   -3    4      0.17      0.00
    6   -3    4     -0.94      0.00
    7   -3    4     -0.44      0.00
    8   -3    4      1.21      0.00
    9   -3    4     -1.74      0.00
   10   -3    4     -2.85      0.00
   11   -3    4      1.18      0.00
   12   -3    4      3.89      0.00
  -11   -2    4      3.64      0.00
  -10   -2    4      0.32      0.00
   -9   -2    4     -5.25      0.00
   -8   -2    4      1.64      0.00
   -7   -2    4      1.94      0.00
   -6   -2    4     -0.29      0.00
   -5   -2    4     -1.87      0.00
   -4   -2    4     -3.75      0.00
   -3   -2    4     -2.36      0.00
   -2   -2    4     -0.34      0.00
   -1   -2    4     -2.15      0.00
    0   -2    4      0.48      0.00
    1   -2    4      5.56      0.00
    2   -2    4     -2.24      0.00
    3   -2    4     -3.39      0.00
    4   -2    4     -0.16      0.00
    5   -2    4     -0.81      0.00
    6   -2    4     -1.17      0.00
    7   -2    4     -1.39      0.00
    8   -2    4     -0.67      0.00
    9   -2    4      1.11      0.00
   10   -2    4      3.64      0.00
   11   -2    4     -0.52      0.00
   12   -2    4     -2.98      0.00
  -11   -1    4      0.29      0.00
  -10   -1    4      1.61      0.00
   -9   -1    4     -0.06      0.00
   -8   -1    4      1.38      0.00
   -7   -1    4     -0.11      0.00
   -6   -1    4     -1.25      0.00
   -5   -1    4     -0.10      0.00
   -4   -1    4     -2.21      0.00
   -3   -1    4     -4.05      0.00
   -2   -1    4      0.96      0.00
   -1   -1    4      1.65      0.00
    0   -1    4     -3.47      0.00
    1   -1    4      2.96      0.00
    2   -1    4      3.01      0.00
    3   -1    4     -1.45      0.00
    4   -1    4      0.74      0.00
    5   -1    4      1.50      0.00
    6   -1    4     -0.34      0.00
    7   -1    4     -0.50      0.00
    8   -1    4      0.67      0.00
    9   -1    4     -3.13      0.00
   10   -1    4     -0.02      0.00
   11   -1    4     -1.05      0.00
   12   -1    4     -0.15      0.00
  -11    0    4      2.15      0.00
  -10    0    4     -3.68      0.00
   -9    0    4     -6.60      0.00
   -8    0    4     -2.33      0.00
   -7    0    4     -1.52      0.00
   -6    0    4     -0.18      0.00
   -5    0    4      0.80      0.00
   -4    0    4     -0.41      0.00
   -3    0    4     -2.01      0.00
   -2    0    4     -1.73      0.00
   -1    0    4      0.36      0.00
    0    0    4     -3.01      0.00
    1    0    4      3.32      0.00
    2    0    4      1.63      0.00
    3    0    4     -0.90      0.00
    4    0    4      1.64      0.00
    5    0    4      2.11      0.00
    6    0    4      1.11      0.00
    7    0    4     -1.47      0.00
    8    0    4      0.61      0.00
    9    0    4     -1.94      0.00
   10    0    4      4.09      0.00
   11    0    4      1.40      0.00
   12    0    4      0.50      0.00
  -11    1    4      1.65      0.00
  -10    1    4     -1.17      0.00
   -9    1    4     -1.16      0.00
   -8    1    4      0.89      0.00
   -7    1    4      0.06      0.00
   -6    1    4      0.14      0.00
   -5    1    4     -0.98      0.00
   -4    1    4      1.45      0.00
   -3    1    4     -1.20      0.00
   -2    1    4      0.24      0.00
   -1    1    4      4.34      0.00
    0    1    4     -5.73      0.00
    1    1    4      1.78      0.00
    2    1    4      1.67      0.00
    3    1    4     -1.73      0.00
    4    1    4      1.02      0.00
    5    1    4      0.13      0.00
    6    1    4     -0.72      0.00
    7    1    4     -1.68      0.00
    8    1    4     -0.35      0.00
    9    1    4     -4.97      0.00
   10    1    4     -1.23      0.00
   11    1    4     -2.16      0.00
   12    1    4     -0.03      0.00
  -11    2    4     -0.97      0.00
  -10    2    4     -2.96      0.00
   -9    2    4     -1.03      0.00
   -8    2    4     -1.43      0.00
   -7    2    4     -3.89      0.00
   -6    2    4      1.02      0.00
   -5    2    4     -1.82      0.00
   -4    2    4     -0.32      0.00
   -3    2    4     -1.58      0.00
   -2    2    4      0.86      0.00
   -1    2    4      4.25      0.00
    0    2    4     -8.04      0.00
    1    2    4     -6.32      0.00
    2    2    4      2.20      0.00
    3    2    4      2.33      0.00
    4    2    4     -2.70      0.00
    5    2    4     -0.34      0.00
    6    2    4      1.35      0.00
    7    2    4     -0.99      0.00
    8    2    4      0.57      0.00
    9    2    4     -2.23      0.00
   10    2    4     -0.90      0.00
   11    2    4     -0.99      0.00
   12    2    4      1.66      0.00
  -11    3    4      0.41      0.00
  -10    3    4      0.14      0.00
   -9    3    4     -0.75      0.00
   -8    3    4      1.24      0.00
   -7    3    4      0.67      0.00
   -6    3    4      0.94      0.00
   -5    3    4     -1.52      0.00
   -4    3    4      0.44      0.00
   -3    3    4     -1.07      0.00
   -2    3    4      2.02      0.00
   -1    3    4     -0.22      0.00
    0    3    4     -3.67      0.00
    1    3    4     -0.97      0.00
    2    3    4     -0.18      0.00
    3    3    4      0.75      0.00
    4    3    4      0.08      0.00
    5    3    4      1.09      0.00
    6    3    4      0.53      0.00
    7    3    4     -0.19      0.00
    8    3    4      1.17      0.00
    9    3    4      0.79      0.00
   10    3    4     -0.55      0.00
   11    3    4     -0.93      0.00
   12    3    4      0.79      0.00
  -10    4    4      0.24      0.00
   -9    4    4      0.73      0.00
   -8    4    4     -1.95      0.00
   -7    4    4      1.03      0.00
   -6    4    4      2.81      0.00
   -5    4    4     -1.69      0.00
   -4    4    4      0.94      0.00
   -3    4    4      1.53      0.00
   -2    4    4     -0.51      0.00
   -1    4    4     -1.69      0.00
    0    4    4     -1.64      0.00
    1    4    4     -2.02      0.00
    2    4    4      1.98      0.00
    3    4    4      3.05      0.00
    4    4    4      0.25      0.00
    5    4    4      0.84      0.00
    6    4    4      0.19      0.00
    7    4    4      0.23      0.00
    8    4    4     -1.48      0.00
    9    4    4     -0.61      0.00
   10    4    4     -0.45      0.00
   11    4    4      0.71      0.00
   12    4    4      1.74      0.00
  -10    5    4      1.75      0.00
   -9    5    4      1.82      0.00
   -8    5    4     -2.27      0.00
   -7    5    4      1.25      0.00
   -6    5    4      1.14      0.00
   -5    5    4     -0.96      0.00
   -4    5    4     -0.55      0.00
   -3    5    4      0.70      0.00
   -2    5    4     -1.49      0.00
   -1    5    4      0.05      0.00
    0    5    4      0.52      0.00
    1    5    4     -1.54      0.00
    2    5    4      1.24      0.00
    3    5    4      1.44      0.00
    4    5    4     -0.28      0.00
    5    5    4     -0.17      0.00
    6    5    4      0.02      0.00
    7    5    4      1.76      0.00
    8    5    4     -0.48      0.00
    9    5    4      0.51      0.00
   10    5    4     -0.74      0.00
   11    5    4      0.01      0.00
   12    5    4      0.20      0.00
  -10    6    4     -0.87      0.00
   -9    6    4      5.91      0.00
   -8    6    4     -1.23      0.00
   -7    6    4     -0.78      0.00
   -6    6    4      0.69      0.00
   -5    6    4     -0.75      0.00
   -4    6    4      0.65      0.00
   -3    6    4      2.45      0.00
   -2    6    4     -1.46      0.00
   -1    6    4      2.19      0.00
    0    6    4      2.72      0.00
    1    6    4     -1.32      0.00
    2    6    4      0.82      0.00
    3    6    4      1.05      0.00
    4    6    4     -0.67      0.00
    5    6    4     -1.59      0.00
    6    6    4     -0.43      0.00
    7    6    4      1.75      0.00
    8    6    4     -1.27      0.00
    9    6    4      1.16      0.00
   10    6    4      0.31      0.00
   11    6    4      0.17      0.00
   12    6    4     -0.09      0.00
   -9    7    4      4.49      0.00
   -8    7    4      0.06      0.00
   -7    7    4     -1.14      0.00
   -6    7    4     -0.04      0.00
   -5    7    4     -2.11      0.00
   -4    7    4     -0.05      0.00
   -3    7    4     -0.93      0.00
   -2    7    4     -3.35      0.00
   -1    7    4      0.24      0.00
    0    7    4      2.78      0.00
    1    7    4      0.31      0.00
    2    7    4     -0.82      0.00
    3    7    4     -0.71      0.00
    4    7    4     -0.44      0.00
    5    7    4     -1.34      0.00
    6    7    4     -1.77      0.00
    7    7    4      0.43      0.00
    8    7    4     -0.71      0.00
    9    7    4      0.37      0.00
   10    7    4      0.35      0.00
   11    7    4      1.15      0.00
   -9    8    4      1.98      0.00
   -8    8    4      2.09      0.00
   -7    8    4     -1.06      0.00
   -6    8    4      0.95      0.00
   -5    8    4     -2.92      0.00
   -4    8    4      0.63      0.00
   -3    8    4     -0.76      0.00
   -2    8    4     -2.07      0.00
   -1    8    4      0.98      0.00
    0    8    4      1.45      0.00
    1    8    4     -0.92      0.00
    2    8    4     -1.44      0.00
    3    8    4      0.03      0.00
    4    8    4      0.07      0.00
    5    8    4     -0.49      0.00
    6    8    4     -0.43      0.00
    7    8    4      0.35      0.00
    8    8    4     -0.24      0.00
    9    8    4     -0.06      0.00
   10    8    4     -1.41      0.00
   11    8    4      0.22      0.00
   -8    9    4      2.03      0.00
   -7    9    4     -0.54      0.00
   -6    9    4      3.17      0.00
   -5    9    4     -0.07      0.00
   -4    9    4      1.01      0.00
   -3    9    4     -1.13      0.00
   -2    9    4     -2.28      0.00
   -1    9    4      0.57      0.00
    0    9    4      2.10      0.00
    1    9    4      1.49      0.00
    2    9    4     -0.62      0.00
    3    9    4     -0.98      0.00
    4    9    4      0.08      0.00
    5    9    4      0.19      0.00
    6    9    4     -1.30      0.00
    7    9    4     -0.01      0.00
    8    9    4     -0.65      0.00
    9    9    4     -0.94      0.00
   10    9    4      0.19      0.00
   -8   10    4      0.44      0.00
   -7   10    4     -1.20      0.00
   -6   10    4     -0.51      0.00
   -5   10    4     -2.30      0.00
   -4   10    4      0.42      0.00
   -3   10    4     -0.41      0.00
   -2   10    4     -1.35      0.00
   -1   10    4     -0.92      0.00
    0   10    4     -0.38      0.00
    1   10    4     -0.06      0.00
    2   10    4      0.04      0.00
    3   10    4      0.03      0.00
    4   10    4     -0.01      0.00
    5   10    4      1.58      0.00
    6   10    4      0.53      0.00
    7   10    4      0.03      0.00
    8   10    4     -1.24      0.00
    9   10    4     -1.77      0.00
   10   10    4     -0.96      0.00
   -7   11    4      0.48      0.00
   -6   11    4      0.02      0.00
   -5   11    4     -0.65      0.00
   -4   11    4      1.95      0.00
   -3   11    4      0.56      0.00
   -2   11    4      1.28      0.00
   -1   11    4     -0.85      0.00
    0   11    4      0.27      0.00
    1   11    4      0.75      0.00
    2   11    4     -0.23      0.00
    3   11    4     -0.33      0.00
    4   11    4     -0.19      0.00
    5   11    4      1.23      0.00
    6   11    4      2.00      0.00
    7   11    4      2.41      0.00
    8   11    4     -0.68      0.00
    9   11    4     -0.92      0.00
   -6   12    4      0.43      0.00
   -5   12    4      0.87      0.00
   -4   12    4      3.50      0.00
   -3   12    4     -1.46      0.00
   -2   12    4     -0.38      0.00
   -1   12    4     -1.02      0.00
    0   12    4     -0.48      0.00
    1   12    4     -0.83      0.00
    2   12    4      0.49      0.00
    3   12    4      1.44      0.00
    4   12    4      0.50      0.00
    5   12    4      0.23      0.00
    6   12    4      0.47      0.00
    7   12    4      1.37      0.00
    8   12    4     -0.70      0.00
   -5   13    4     -1.14      0.00
   -4   13    4     -0.09      0.00
   -3   13    4      0.15      0.00
   -2   13    4      1.14      0.00
   -1   13    4     -0.78      0.00
    0   13    4      0.37      0.00
    1   13    4     -0.29      0.00
    2   13    4     -0.88      0.00
    3   13    4     -0.50      0.00
    4   13    4     -0.76      0.00
    5   13    4      0.13      0.00
    6   13    4      0.84      0.00
    7   13    4      0.94      0.00
   -4   14    4      3.32      0.00
   -3   14    4      1.83      0.00
   -2   14    4      0.45      0.00
   -1   14    4     -0.01      0.00
    0   14    4     -0.86      0.00
    1   14    4     -2.05      0.00
    2   14    4     -1.42      0.00
    3   14    4      0.43      0.00
    4   14    4     -0.43      0.00
    5   14    4     -0.08      0.00
   -1   15    4     -0.24      0.00
    0   15    4     -1.09      0.00
    1   15    4     -1.17      0.00
    2   15    4     -1.04      0.00
    3   15    4      0.15      0.00
   -2  -14    5     -0.78      0.00
   -1  -14    5     -0.11      0.00
    0  -14    5      0.73      0.00
    1  -14    5      0.25      0.00
    2  -14    5      0.75      0.00
    3  -14    5      1.40      0.00
   -4  -13    5      0.38      0.00
   -3  -13    5      0.87      0.00
   -2  -13    5      1.83      0.00
   -1  -13    5     -0.70      0.00
    0  -13    5     -0.12      0.00
    1  -13    5      0.32      0.00
    2  -13    5     -0.17      0.00
    3  -13    5      0.86      0.00
    4  -13    5      0.45      0.00
    5  -13    5     -1.23      0.00
    6  -13    5      1.79      0.00
   -5  -12    5      0.08      0.00
   -4  -12    5      1.01      0.00
   -3  -12    5     -0.72      0.00
   -2  -12    5      2.02      0.00
   -1  -12    5      2.16      0.00
    0  -12    5      0.50      0.00
    1  -12    5      1.24      0.00
    2  -12    5      0.47      0.00
    3  -12    5      1.04      0.00
    4  -12    5      1.67      0.00
    5  -12    5     -0.76      0.00
    6  -12    5      2.87      0.00
    7  -12    5      1.31      0.00
   -6  -11    5      0.32      0.00
   -5  -11    5     -1.66      0.00
   -4  -11    5      0.10      0.00
   -3  -11    5     -0.20      0.00
   -2  -11    5      0.02      0.00
   -1  -11    5      0.57      0.00
    0  -11    5     -0.38      0.00
    1  -11    5      0.71      0.00
    2  -11    5     -1.06      0.00
    3  -11    5      0.11      0.00
    4  -11    5     -0.21      0.00
    5  -11    5     -3.34      0.00
    6  -11    5      1.97      0.00
    7  -11    5      0.69      0.00
    8  -11    5      0.57      0.00
   -7  -10    5     -1.34      0.00
   -6  -10    5      0.88      0.00
   -5  -10    5      0.28      0.00
   -4  -10    5      0.25      0.00
   -3  -10    5     -0.53      0.00
   -2  -10    5      0.16      0.00
   -1  -10    5     -0.01      0.00
    0  -10    5     -1.46      0.00
    1  -10    5      1.60      0.00
    2  -10    5     -0.10      0.00
    3  -10    5     -0.47      0.00
    4  -10    5      1.36      0.00
    5  -10    5     -0.80      0.00
    6  -10    5      1.68      0.00
    7  -10    5     -0.13      0.00
    8  -10    5      1.49      0.00
    9  -10    5     -1.31      0.00
   -8   -9    5     -1.05      0.00
   -7   -9    5     -1.59      0.00
   -6   -9    5     -0.44      0.00
   -5   -9    5     -0.32      0.00
   -4   -9    5      0.21      0.00
   -3   -9    5     -0.71      0.00
   -2   -9    5     -0.42      0.00
   -1   -9    5      1.29      0.00
    0   -9    5      1.33      0.00
    1   -9    5      1.50      0.00
    2   -9    5      0.80      0.00
    3   -9    5      0.69      0.00
    4   -9    5      2.31      0.00
    5   -9    5     -0.32      0.00
    6   -9    5      0.58      0.00
    7   -9    5      0.13      0.00
    8   -9    5      2.11      0.00
    9   -9    5     -0.02      0.00
   10   -9    5      0.40      0.00
   -8   -8    5     -0.88      0.00
   -7   -8    5     -1.34      0.00
   -6   -8    5      1.16      0.00
   -5   -8    5      0.87      0.00
   -4   -8    5      0.03      0.00
   -3   -8    5     -0.42      0.00
   -2   -8    5     -1.98      0.00
   -1   -8    5     -1.43      0.00
    0   -8    5     -0.62      0.00
    1   -8    5      0.88      0.00
    2   -8    5      1.80      0.00
    3   -8    5     -0.72      0.00
    4   -8    5     -0.89      0.00
    5   -8    5      0.24      0.00
    6   -8    5      1.11      0.00
    7   -8    5      0.79      0.00
    8   -8    5      0.83      0.00
    9   -8    5     -1.55      0.00
   10   -8    5     -0.26      0.00
   -9   -7    5     -0.02      0.00
   -8   -7    5      1.13      0.00
   -7   -7    5     -0.63      0.00
   -6   -7    5      0.43      0.00
   -5   -7    5      0.47      0.00
   -4   -7    5      0.19      0.00
   -3   -7    5     -0.33      0.00
   -2   -7    5     -2.92      0.00
   -1   -7    5     -0.23      0.00
    0   -7    5     -0.88      0.00
    1   -7    5      1.97      0.00
    2   -7    5      2.96      0.00
    3   -7    5      0.87      0.00
    4   -7    5     -1.02      0.00
    5   -7    5      0.72      0.00
    6   -7    5     -0.29      0.00
    7   -7    5      0.45      0.00
    8   -7    5      1.02      0.00
    9   -7    5     -1.10      0.00
   10   -7    5     -1.76      0.00
   11   -7    5     -1.76      0.00
   -9   -6    5     -1.80      0.00
   -8   -6    5     -0.20      0.00
   -7   -6    5      0.13      0.00
   -6   -6    5      1.34      0.00
   -5   -6    5      0.61      0.00
   -4   -6    5      1.06      0.00
   -3   -6    5      0.95      0.00
   -2   -6    5     -2.18      0.00
   -1   -6    5      1.67      0.00
    0   -6    5     -2.76      0.00
    1   -6    5      1.40      0.00
    2   -6    5      2.06      0.00
    3   -6    5      1.59      0.00
    4   -6    5     -0.26      0.00
    5   -6    5      0.81      0.00
    6   -6    5     -1.07      0.00
    7   -6    5     -0.15      0.00
    8   -6    5      0.47      0.00
    9   -6    5      0.94      0.00
   10   -6    5      0.96      0.00
   11   -6    5      1.32      0.00
  -10   -5    5      0.20      0.00
   -9   -5    5     -0.61      0.00
   -8   -5    5     -0.37      0.00
   -7   -5    5      0.93      0.00
   -6   -5    5      1.28      0.00
   -5   -5    5     -0.51      0.00
   -4   -5    5      0.05      0.00
   -3   -5    5      0.75      0.00
   -2   -5    5     -2.88      0.00
   -1   -5    5      1.93      0.00
    0   -5    5     -0.93      0.00
    1   -5    5      1.31      0.00
    2   -5    5     -0.96      0.00
    3   -5    5     -1.13      0.00
    4   -5    5      0.18      0.00
    5   -5    5      0.21      0.00
    6   -5    5     -3.71      0.00
    7   -5    5     -0.47      0.00
    8   -5    5      1.25      0.00
    9   -5    5      0.60      0.00
   10   -5    5     -2.54      0.00
   11   -5    5     -1.17      0.00
   12   -5    5      2.30      0.00
  -10   -4    5     -1.72      0.00
   -9   -4    5     -0.22      0.00
   -8   -4    5     -1.43      0.00
   -7   -4    5      0.11      0.00
   -6   -4    5     -0.01      0.00
   -5   -4    5     -0.75      0.00
   -4   -4    5     -1.50      0.00
   -3   -4    5      0.42      0.00
   -2   -4    5      1.51      0.00
   -1   -4    5      3.47      0.00
    0   -4    5     -0.68      0.00
    1   -4    5     -0.69      0.00
    2   -4    5     -0.43      0.00
    3   -4    5     -0.32      0.00
    4   -4    5      0.35      0.00
    5   -4    5      1.39      0.00
    6   -4    5     -1.10      0.00
    7   -4    5      0.08      0.00
    8   -4    5     -0.36      0.00
    9   -4    5      2.16      0.00
   10   -4    5      2.65      0.00
   11   -4    5     -1.37      0.00
   12   -4    5     -2.45      0.00
  -10   -3    5     -2.97      0.00
   -9   -3    5      1.18      0.00
   -8   -3    5     -2.28      0.00
   -7   -3    5     -2.14      0.00
   -6   -3    5     -0.11      0.00
   -5   -3    5      0.75      0.00
   -4   -3    5      0.18      0.00
   -3   -3    5      0.00      0.00
   -2   -3    5     -1.53      0.00
   -1   -3    5      1.50      0.00
    0   -3    5      4.32      0.00
    1   -3    5      0.29      0.00
    2   -3    5     -2.20      0.00
    3   -3    5      0.07      0.00
    4   -3    5      1.85      0.00
    5   -3    5      1.79      0.00
    6   -3    5     -0.83      0.00
    7   -3    5      0.93      0.00
    8   -3    5      1.39      0.00
    9   -3    5     -0.35      0.00
   10   -3    5     -1.62      0.00
   11   -3    5      0.04      0.00
   12   -3    5      3.02      0.00
  -10   -2    5     -4.09      0.00
   -9   -2    5     -2.19      0.00
   -8   -2    5     -1.72      0.00
   -7   -2    5     -0.15      0.00
   -6   -2    5     -0.32      0.00
   -5   -2    5      0.26      0.00
   -4   -2    5      0.23      0.00
   -3   -2    5      1.45      0.00
   -2   -2    5      0.99      0.00
   -1   -2    5      0.38      0.00
    0   -2    5      4.39      0.00
    1   -2    5      0.49      0.00
    2   -2    5     -3.96      0.00
    3   -2    5      0.63      0.00
    4   -2    5      0.95      0.00
    5   -2    5     -1.54      0.00
    6   -2    5     -0.28      0.00
    7   -2    5      0.01      0.00
    8   -2    5     -1.50      0.00
    9   -2    5      1.45      0.00
   10   -2    5      2.84      0.00
   11   -2    5      1.90      0.00
   12   -2    5     -0.42      0.00
  -10   -1    5      0.52      0.00
   -9   -1    5      5.12      0.00
   -8   -1    5      0.94      0.00
   -7   -1    5      1.21      0.00
   -6   -1    5      1.28      0.00
   -5   -1    5      1.24      0.00
   -4   -1    5      1.41      0.00
   -3   -1    5      1.09      0.00
   -2   -1    5      0.57      0.00
   -1   -1    5     -0.59      0.00
    0   -1    5      3.22      0.00
    1   -1    5      2.71      0.00
    2   -1    5     -1.23      0.00
    3   -1    5     -0.88      0.00
    4   -1    5     -0.26      0.00
    5   -1    5     -1.50      0.00
    6   -1    5     -0.19      0.00
    7   -1    5      1.40      0.00
    8   -1    5     -0.91      0.00
    9   -1    5     -2.05      0.00
   10   -1    5     -6.74      0.00
   11   -1    5     -1.82      0.00
   12   -1    5      0.74      0.00
  -10    0    5      0.05      0.00
   -9    0    5      0.11      0.00
   -8    0    5     -2.92      0.00
   -7    0    5     -0.31      0.00
   -6    0    5     -0.67      0.00
   -5    0    5      1.31      0.00
   -4    0    5      0.61      0.00
   -3    0    5      1.65      0.00
   -2    0    5      0.56      0.00
   -1    0    5     -4.24      0.00
    0    0    5      2.37      0.00
    1    0    5      2.89      0.00
    2    0    5     -1.08      0.00
    3    0    5     -0.72      0.00
    4    0    5     -0.12      0.00
    5    0    5      0.22      0.00
    6    0    5      1.09      0.00
    7    0    5      1.95      0.00
    8    0    5      1.73      0.00
    9    0    5      4.23      0.00
   10    0    5     -0.74      0.00
   11    0    5      0.70      0.00
   12    0    5     -0.54      0.00
  -10    1    5      3.70      0.00
   -9    1    5      2.51      0.00
   -8    1    5     -0.37      0.00
   -7    1    5      4.57      0.00
   -6    1    5     -0.66      0.00
   -5    1    5      1.33      0.00
   -4    1    5      0.21      0.00
   -3    1    5     -0.27      0.00
   -2    1    5      0.14      0.00
   -1    1    5     -4.41      0.00
    0    1    5      1.85      0.00
    1    1    5      6.17      0.00
    2    1    5     -1.10      0.00
    3    1    5     -3.80      0.00
    4    1    5      1.64      0.00
    5    1    5     -0.03      0.00
    6    1    5     -1.90      0.00
    7    1    5      1.20      0.00
    8    1    5      1.04      0.00
    9    1    5      1.56      0.00
   10    1    5     -1.41      0.00
   11    1    5     -0.22      0.00
   12    1    5     -2.30      0.00
  -10    2    5      1.38      0.00
   -9    2    5      2.22      0.00
   -8    2    5     -2.22      0.00
   -7    2    5      0.53      0.00
   -6    2    5     -1.21      0.00
   -5    2    5      1.92      0.00
   -4    2    5     -0.21      0.00
   -3    2    5     -0.14      0.00
   -2    2    5     -1.56      0.00
   -1    2    5     -1.91      0.00
    0    2    5      1.15      0.00
    1    2    5      4.74      0.00
    2    2    5      3.78      0.00
    3    2    5     -1.09      0.00
    4    2    5     -0.51      0.00
    5    2    5     -0.52      0.00
    6    2    5     -0.20      0.00
    7    2    5      0.87      0.00
    8    2    5      0.78      0.00
    9    2    5      1.02      0.00
   10    2    5      1.79      0.00
   11    2    5      1.18      0.00
   12    2    5     -1.42      0.00
  -10    3    5      3.30      0.00
   -9    3    5      2.17      0.00
   -8    3    5      0.66      0.00
   -7    3    5      0.29      0.00
   -6    3    5     -1.91      0.00
   -5    3    5      3.27      0.00
   -4    3    5      0.32      0.00
   -3    3    5     -0.75      0.00
   -2    3    5      0.74      0.00
   -1    3    5     -1.25      0.00
    0    3    5     -2.67      0.00
    1    3    5      1.92      0.00
    2    3    5      0.05      0.00
    3    3    5     -3.47      0.00
    4    3    5      0.78      0.00
    5    3    5     -0.26      0.00
    6    3    5     -0.42      0.00
    7    3    5      0.34      0.00
    8    3    5      1.43      0.00
    9    3    5      0.60      0.00
   10    3    5      1.00      0.00
   11    3    5     -1.51      0.00
   12    3    5     -3.34      0.00
  -10    4    5     -1.23      0.00
   -9    4    5      0.64      0.00
   -8    4    5      1.86      0.00
   -7    4    5     -1.70      0.00
   -6    4    5     -1.15      0.00
   -5    4    5      2.12      0.00
   -4    4    5      0.15      0.00
   -3    4    5     -1.46      0.00
   -2    4    5      1.68      0.00
   -1    4    5      0.02      0.00
    0    4    5     -1.82      0.00
    1    4    5     -0.02      0.00
    2    4    5     -0.51      0.00
    3    4    5     -2.23      0.00
    4    4    5     -0.33      0.00
    5    4    5     -0.53      0.00
    6    4    5     -0.19      0.00
    7    4    5     -0.74      0.00
    8    4    5      0.39      0.00
    9    4    5     -1.02      0.00
   10    4    5      1.62      0.00
   11    4    5      0.52      0.00
   12    4    5     -1.54      0.00
  -10    5    5     -0.53      0.00
   -9    5    5     -2.52      0.00
   -7    5    5     -1.19      0.00
   -6    5    5     -3.01      0.00
   -5    5    5      1.76      0.00
   -4    5    5      0.94      0.00
   -3    5    5     -5.19      0.00
   -2    5    5      0.55      0.00
   -1    5    5     -1.81      0.00
    0    5    5     -2.53      0.00
    1    5    5      0.05      0.00
    2    5    5     -1.45      0.00
    3    5    5     -1.66      0.00
    4    5    5     -0.89      0.00
    5    5    5     -0.56      0.00
    6    5    5     -0.35      0.00
    7    5    5     -1.85      0.00
    8    5    5      1.17      0.00
    9    5    5     -1.34      0.00
   10    5    5     -0.44      0.00
   11    5    5      0.12      0.00
   12    5    5     -1.31      0.00
   -9    6    5     -3.16      0.00
   -8    6    5      3.72      0.00
   -7    6    5      1.98      0.00
   -6    6    5     -1.97      0.00
   -5    6    5      0.88      0.00
   -4    6    5      2.50      0.00
   -3    6    5     -0.85      0.00
   -2    6    5      2.74      0.00
   -1    6    5     -0.82      0.00
    0    6    5     -3.50      0.00
    1    6    5     -0.03      0.00
    2    6    5      1.40      0.00
    3    6    5      0.88      0.00
    4    6    5      0.03      0.00
    5    6    5      0.84      0.00
    6    6    5      1.50      0.00
    7    6    5     -0.24      0.00
    8    6    5      0.94      0.00
    9    6    5     -1.08      0.00
   10    6    5     -0.58      0.00
   11    6    5     -0.34      0.00
   12    6    5     -0.66      0.00
   -9    7    5     -3.98      0.00
   -8    7    5     -0.33      0.00
   -7    7    5      5.23      0.00
   -6    7    5      1.86      0.00
   -5    7    5      2.31      0.00
   -4    7    5      0.62      0.00
   -3    7    5      1.11      0.00
   -2    7    5      1.93      0.00
   -1    7    5     -1.18      0.00
    0    7    5     -2.17      0.00
    1    7    5      0.48      0.00
    2    7    5      1.61      0.00
    3    7    5      0.54      0.00
    4    7    5      0.11      0.00
    5    7    5      1.63      0.00
    6    7    5      0.24      0.00
    7    7    5     -0.38      0.00
    8    7    5      1.33      0.00
    9    7    5     -0.74      0.00
   10    7    5     -0.13      0.00
   11    7    5     -0.42      0.00
   -9    8    5     -1.92      0.00
   -8    8    5     -2.36      0.00
   -7    8    5      1.00      0.00
   -6    8    5     -4.01      0.00
   -5    8    5      0.44      0.00
   -4    8    5      0.45      0.00
   -3    8    5      2.01      0.00
   -2    8    5      1.04      0.00
   -1    8    5     -0.96      0.00
    0    8    5     -1.94      0.00
    1    8    5     -1.55      0.00
    2    8    5      0.85      0.00
    3    8    5      2.05      0.00
    4    8    5     -0.04      0.00
    5    8    5      0.70      0.00
    6    8    5      1.67      0.00
    7    8    5      1.00      0.00
    8    8    5      0.82      0.00
    9    8    5      0.55      0.00
   10    8    5     -0.37      0.00
   11    8    5     -1.09      0.00
   -8    9    5     -0.50      0.00
   -7    9    5      4.11      0.00
   -6    9    5      0.95      0.00
   -5    9    5      3.40      0.00
   -4    9    5      0.80      0.00
   -3    9    5      2.01      0.00
   -2    9    5      1.39      0.00
   -1    9    5      0.39      0.00
    0    9    5      0.85      0.00
    1    9    5      1.09      0.00
    2    9    5      0.10      0.00
    3    9    5      0.35      0.00
    4    9    5      0.21      0.00
    5    9    5     -0.99      0.00
    6    9    5     -0.57      0.00
    7    9    5      1.21      0.00
    8    9    5      0.65      0.00
    9    9    5      1.18      0.00
   10    9    5      2.03      0.00
   -7   10    5      1.69      0.00
   -6   10    5     -0.06      0.00
   -5   10    5      0.60      0.00
   -4   10    5     -1.27      0.00
   -3   10    5      1.39      0.00
   -2   10    5     -0.18      0.00
   -1   10    5      0.78      0.00
    0   10    5      0.31      0.00
    1   10    5      0.64      0.00
    2   10    5      0.50      0.00
    3   10    5     -0.10      0.00
    4   10    5     -0.15      0.00
    5   10    5     -1.83      0.00
    6   10    5     -1.72      0.00
    7   10    5     -0.42      0.00
    8   10    5      0.79      0.00
    9   10    5      0.35      0.00
   10   10    5      0.05      0.00
   -7   11    5     -1.86      0.00
   -6   11    5      0.77      0.00
   -5   11    5      1.06      0.00
   -4   11    5     -2.11      0.00
   -3   11    5      3.01      0.00
   -2   11    5     -0.49      0.00
   -1   11    5      0.20      0.00
    0   11    5      0.67      0.00
    1   11    5      1.74      0.00
    2   11    5     -0.52      0.00
    3   11    5     -2.23      0.00
    4   11    5      0.39      0.00
    5   11    5     -0.95      0.00
    6   11    5     -1.14      0.00
    7   11    5     -0.44      0.00
    8   11    5      1.31      0.00
    9   11    5      1.37      0.00
   -6   12    5      0.38      0.00
   -5   12    5      2.09      0.00
   -4   12    5      0.73      0.00
   -3   12    5      2.22      0.00
   -2   12    5     -2.15      0.00
   -1   12    5     -0.17      0.00
    0   12    5     -1.00      0.00
    1   12    5      0.38      0.00
    2   12    5      1.11      0.00
    3   12    5     -0.54      0.00
    4   12    5      0.42      0.00
    5   12    5     -1.32      0.00
    6   12    5     -1.77      0.00
    7   12    5     -1.51      0.00
    8   12    5      0.97      0.00
   -5   13    5     -2.20      0.00
   -4   13    5     -3.29      0.00
   -3   13    5      0.37      0.00
   -2   13    5      0.74      0.00
   -1   13    5      0.19      0.00
    0   13    5     -0.31      0.00
    1   13    5      1.91      0.00
    2   13    5      1.23      0.00
    3   13    5     -0.85      0.00
    4   13    5      0.40      0.00
    5   13    5     -0.80      0.00
    6   13    5     -0.72      0.00
    7   13    5     -0.98      0.00
   -3   14    5     -0.53      0.00
   -2   14    5      1.03      0.00
   -1   14    5      1.54      0.00
    0   14    5      0.61      0.00
    1   14    5      0.44      0.00
    2   14    5      0.20      0.00
    3   14    5     -0.11      0.00
    4   14    5      0.15      0.00
    5   14    5     -0.94      0.00
   -1   15    5     -0.05      0.00
    0   15    5      1.50      0.00
    1   15    5      2.41      0.00
    2   15    5      1.17      0.00
    3   15    5      0.73      0.00
    0  -14    6      0.26      0.00
    1  -14    6     -0.69      0.00
    2  -14    6     -0.04      0.00
   -3  -13    6      1.40      0.00
   -2  -13    6     -0.68      0.00
   -1  -13    6     -1.37      0.00
    0  -13    6      0.18      0.00
    1  -13    6     -1.47      0.00
    2  -13    6     -1.31      0.00
    3  -13    6     -1.83      0.00
    4  -13    6     -2.04      0.00
    5  -13    6      0.23      0.00
   -5  -12    6      0.90      0.00
   -4  -12    6     -0.30      0.00
   -3  -12    6     -0.13      0.00
   -2  -12    6     -0.74      0.00
   -1  -12    6     -1.09      0.00
    0  -12    6      1.50      0.00
    1  -12    6      0.00      0.00
    2  -12    6      0.36      0.00
    3  -12    6     -1.04      0.00
    4  -12    6     -0.48      0.00
    5  -12    6      1.84      0.00
    6  -12    6     -2.69      0.00
    7  -12    6     -0.18      0.00
   -6  -11    6     -0.42      0.00
   -5  -11    6     -0.53      0.00
   -4  -11    6     -1.35      0.00
   -3  -11    6      0.17      0.00
   -2  -11    6     -0.56      0.00
   -1  -11    6     -2.63      0.00
    0  -11    6      0.53      0.00
    1  -11    6     -1.41      0.00
    2  -11    6      0.38      0.00
    3  -11    6     -0.12      0.00
    4  -11    6     -1.43      0.00
    5  -11    6      0.06      0.00
    6  -11    6     -3.02      0.00
    7  -11    6      0.15      0.00
    8  -11    6     -0.29      0.00
   -7  -10    6      0.90      0.00
   -6  -10    6      0.79      0.00
   -5  -10    6      1.86      0.00
   -4  -10    6     -0.02      0.00
   -3  -10    6      0.02      0.00
   -2  -10    6      0.62      0.00
   -1  -10    6     -1.29      0.00
    0  -10    6      0.00      0.00
    1  -10    6     -0.83      0.00
    2  -10    6      0.85      0.00
    3  -10    6     -0.33      0.00
    4  -10    6     -1.26      0.00
    5  -10    6      2.08      0.00
    6  -10    6     -1.47      0.00
    7  -10    6     -0.36      0.00
    8  -10    6     -2.05      0.00
    9  -10    6      0.55      0.00
   -7   -9    6      0.64      0.00
   -6   -9    6     -1.12      0.00
   -5   -9    6     -0.71      0.00
   -4   -9    6     -0.39      0.00
   -3   -9    6     -0.34      0.00
   -2   -9    6      0.34      0.00
   -1   -9    6      1.23      0.00
    0   -9    6      0.84      0.00
    1   -9    6     -1.20      0.00
    2   -9    6      0.19      0.00
    3   -9    6      1.53      0.00
    4   -9    6     -1.61      0.00
    5   -9    6      0.50      0.00
    6   -9    6     -1.75      0.00
    7   -9    6     -0.89      0.00
    8   -9    6     -1.45      0.00
    9   -9    6      2.41      0.00
   10   -9    6      0.94      0.00
   -8   -8    6      0.10      0.00
   -7   -8    6      1.14      0.00
   -6   -8    6     -0.05      0.00
   -5   -8    6     -0.26      0.00
   -4   -8    6      0.04      0.00
   -3   -8    6      0.43      0.00
   -2   -8    6      0.96      0.00
   -1   -8    6     -0.24      0.00
    0   -8    6     -0.74      0.00
    1   -8    6     -1.12      0.00
    2   -8    6     -2.34      0.00
    3   -8    6     -0.20      0.00
    4   -8    6     -1.61      0.00
    5   -8    6     -0.69      0.00
    6   -8    6     -1.66      0.00
    7   -8    6     -0.76      0.00
    8   -8    6     -1.62      0.00
    9   -8    6      0.55      0.00
   10   -8    6      0.25      0.00
   -8   -7    6     -0.98      0.00
   -7   -7    6      0.35      0.00
   -6   -7    6     -0.58      0.00
   -5   -7    6     -0.61      0.00
   -4   -7    6     -1.02      0.00
   -3   -7    6     -1.15      0.00
   -2   -7    6      1.72      0.00
   -1   -7    6     -0.15      0.00
    0   -7    6     -0.66      0.00
    1   -7    6     -1.50      0.00
    2   -7    6     -2.33      0.00
    3   -7    6     -0.71      0.00
    4   -7    6      0.17      0.00
    5   -7    6      0.89      0.00
    6   -7    6      0.64      0.00
    7   -7    6      0.33      0.00
    8   -7    6     -0.54      0.00
    9   -7    6      0.31      0.00
   10   -7    6     -1.60      0.00
   11   -7    6     -1.67      0.00
   -9   -6    6      1.06      0.00
   -8   -6    6     -0.55      0.00
   -7   -6    6     -0.85      0.00
   -6   -6    6     -1.07      0.00
   -5   -6    6      0.27      0.00
   -4   -6    6     -0.57      0.00
   -3   -6    6     -0.67      0.00
   -2   -6    6      3.12      0.00
   -1   -6    6      0.91      0.00
    0   -6    6      2.06      0.00
    1   -6    6     -0.35      0.00
    2   -6    6     -0.17      0.00
    3   -6    6      0.10      0.00
    4   -6    6      1.07      0.00
    5   -6    6      0.65      0.00
    6   -6    6      1.15      0.00
    7   -6    6      0.19      0.00
    8   -6    6     -0.04      0.00
    9   -6    6      0.51      0.00
   10   -6    6      1.38      0.00
   11   -6    6      1.70      0.00
   -9   -5    6     -0.19      0.00
   -8   -5    6     -0.53      0.00
   -7   -5    6     -1.58      0.00
   -6   -5    6     -0.36      0.00
   -5   -5    6      1.92      0.00
   -4   -5    6      0.12      0.00
   -3   -5    6     -0.93      0.00
   -2   -5    6     -0.07      0.00
   -1   -5    6     -2.30      0.00
    0   -5    6      1.53      0.00
    1   -5    6     -1.40      0.00
    2   -5    6     -1.20      0.00
    3   -5    6     -0.95      0.00
    4   -5    6     -0.44      0.00
    5   -5    6     -1.78      0.00
    6   -5    6      1.28      0.00
    7   -5    6     -0.32      0.00
    8   -5    6     -1.22      0.00
    9   -5    6     -1.54      0.00
   10   -5    6     -1.60      0.00
   11   -5    6      0.41      0.00
   12   -5    6     -0.61      0.00
  -10   -4    6      2.63      0.00
   -9   -4    6     -0.40      0.00
   -8   -4    6      0.58      0.00
   -7   -4    6      0.17      0.00
   -6   -4    6     -1.04      0.00
   -5   -4    6      0.01      0.00
   -4   -4    6     -0.05      0.00
   -3   -4    6     -0.02      0.00
   -2   -4    6      2.29      0.00
   -1   -4    6      0.68      0.00
    0   -4    6     -0.19      0.00
    1   -4    6     -0.58      0.00
    2   -4    6      3.38      0.00
    3   -4    6      1.33      0.00
    4   -4    6     -0.22      0.00
    5   -4    6     -1.10      0.00
    6   -4    6      2.67      0.00
    7   -4    6     -0.24      0.00
    8   -4    6     -2.25      0.00
    9   -4    6     -0.16      0.00
   10   -4    6      1.32      0.00
   11   -4    6      1.56      0.00
   12   -4    6     -3.05      0.00
  -10   -3    6      4.89      0.00
   -9   -3    6      2.24      0.00
   -8   -3    6      1.07      0.00
   -7   -3    6      0.56      0.00
   -6   -3    6      1.86      0.00
   -5   -3    6      1.62      0.00
   -4   -3    6      1.15      0.00
   -3   -3    6     -0.37      0.00
   -2   -3    6     -1.95      0.00
   -1   -3    6     -1.51      0.00
    0   -3    6     -0.39      0.00
    1   -3    6      0.35      0.00
    2   -3    6      3.42      0.00
    3   -3    6     -0.65      0.00
    4   -3    6     -0.63      0.00
    5   -3    6      0.61      0.00
    6   -3    6      1.65      0.00
    7   -3    6      0.75      0.00
    8   -3    6     -0.28      0.00
    9   -3    6     -2.15      0.00
   10   -3    6     -4.59      0.00
   11   -3    6     -0.21      0.00
   12   -3    6      1.60      0.00
  -10   -2    6      3.31      0.00
   -9   -2    6     -2.95      0.00
   -8   -2    6     -1.02      0.00
   -7   -2    6     -0.08      0.00
   -6   -2    6     -0.33      0.00
   -5   -2    6     -0.27      0.00
   -4   -2    6      0.61      0.00
   -3   -2    6      0.54      0.00
   -2   -2    6      0.03      0.00
   -1   -2    6     -0.44      0.00
    0   -2    6     -2.62      0.00
    1   -2    6     -3.64      0.00
    2   -2    6      2.06      0.00
    3   -2    6      1.01      0.00
    4   -2    6     -1.05      0.00
    5   -2    6     -0.07      0.00
    6   -2    6     -0.21      0.00
    7   -2    6     -0.17      0.00
    8   -2    6     -0.18      0.00
    9   -2    6      1.21      0.00
   10   -2    6      3.39      0.00
   11   -2    6      1.00      0.00
   12   -2    6     -1.48      0.00
  -10   -1    6      4.26      0.00
   -9   -1    6      2.02      0.00
   -8   -1    6      2.42      0.00
   -7   -1    6     -0.37      0.00
   -6   -1    6      0.71      0.00
   -5   -1    6     -0.28      0.00
   -4   -1    6     -0.77      0.00
   -3   -1    6     -0.80      0.00
   -2   -1    6     -0.24      0.00
   -1   -1    6      2.13      0.00
    0   -1    6     -1.07      0.00
    1   -1    6     -3.25      0.00
    2   -1    6      2.40      0.00
    3   -1    6      1.59      0.00
    4   -1    6     -1.09      0.00
    5   -1    6      0.26      0.00
    6   -1    6     -0.69      0.00
    7   -1    6      0.08      0.00
    8   -1    6      0.09      0.00
    9   -1    6     -1.94      0.00
   10   -1    6     -0.35      0.00
   11   -1    6     -1.60      0.00
   12   -1    6     -0.03      0.00
  -10    0    6     -0.30      0.00
   -9    0    6     -1.66      0.00
   -8    0    6      2.32      0.00
   -7    0    6     -4.18      0.00
   -6    0    6     -1.51      0.00
   -5    0    6     -1.10      0.00
   -4    0    6     -0.69      0.00
   -3    0    6      1.30      0.00
   -2    0    6     -0.43      0.00
   -1    0    6      2.41      0.00
    0    0    6      1.42      0.00
    1    0    6     -4.15      0.00
    2    0    6      0.73      0.00
    3    0    6      3.66      0.00
    4    0    6     -0.96      0.00
    5    0    6      0.53      0.00
    6    0    6      1.45      0.00
    7    0    6      0.22      0.00
    8    0    6      0.28      0.00
    9    0    6      1.64      0.00
   10    0    6      4.46      0.00
   11    0    6      1.01      0.00
   12    0    6      1.52      0.00
  -10    1    6     -0.14      0.00
   -9    1    6     -1.35      0.00
   -8    1    6      5.27      0.00
   -7    1    6     -0.09      0.00
   -6    1    6      1.29      0.00
   -5    1    6     -0.76      0.00
   -4    1    6     -0.73      0.00
   -3    1    6      0.86      0.00
   -2    1    6      0.84      0.00
   -1    1    6      1.73      0.00
    0    1    6     -0.20      0.00
    1    1    6     -5.91      0.00
    2    1    6     -3.20      0.00
    3    1    6      3.08      0.00
    4    1    6      1.05      0.00
    5    1    6     -0.57      0.00
    6    1    6     -0.68      0.00
    7    1    6     -0.52      0.00
    8    1    6     -1.69      0.00
    9    1    6     -1.23      0.00
   10    1    6     -1.04      0.00
   11    1    6     -0.62      0.00
   12    1    6      1.76      0.00
  -10    2    6     -4.92      0.00
   -9    2    6     -2.73      0.00
   -8    2    6      3.58      0.00
   -7    2    6     -1.27      0.00
   -6    2    6      1.48      0.00
   -5    2    6     -1.45      0.00
   -4    2    6     -0.79      0.00
   -3    2    6      1.38      0.00
   -2    2    6      0.25      0.00
   -1    2    6      2.02      0.00
    0    2    6      3.08      0.00
    1    2    6     -3.93      0.00
    2    2    6     -2.17      0.00
    3    2    6      3.71      0.00
    4    2    6     -1.18      0.00
    5    2    6     -0.74      0.00
    6    2    6      0.02      0.00
    7    2    6     -0.97      0.00
    8    2    6     -2.01      0.00
    9    2    6     -0.35      0.00
   10    2    6     -0.89      0.00
   11    2    6      1.79      0.00
   12    2    6      2.73      0.00
  -10    3    6     -1.12      0.00
   -9    3    6     -2.81      0.00
   -8    3    6      0.46      0.00
   -7    3    6     -0.30      0.00
   -6    3    6     -0.46      0.00
   -5    3    6     -1.01      0.00
   -4    3    6      0.97      0.00
   -3    3    6      1.59      0.00
   -2    3    6     -0.50      0.00
   -1    3    6      1.32      0.00
    0    3    6      2.13      0.00
    1    3    6     -1.14      0.00
    2    3    6     -2.49      0.00
    3    3    6      2.01      0.00
    4    3    6     -0.10      0.00
    5    3    6      0.14      0.00
    6    3    6      0.39      0.00
    7    3    6     -0.08      0.00
    8    3    6     -0.08      0.00
    9    3    6      1.63      0.00
   10    3    6     -2.09      0.00
   11    3    6      0.03      0.00
   12    3    6      1.25      0.00
  -10    4    6     -0.60      0.00
   -9    4    6     -0.55      0.00
   -8    4    6     -0.35      0.00
   -7    4    6      2.56      0.00
   -6    4    6      1.90      0.00
   -5    4    6     -2.48      0.00
   -4    4    6     -0.91      0.00
   -3    4    6      6.46      0.00
   -2    4    6     -0.02      0.00
   -1    4    6      2.01      0.00
    0    4    6      2.31      0.00
    1    4    6      1.37      0.00
    2    4    6      1.13      0.00
    3    4    6      2.57      0.00
    4    4    6      1.37      0.00
    5    4    6      1.52      0.00
    6    4    6      0.72      0.00
    7    4    6      1.37      0.00
    8    4    6      0.17      0.00
    9    4    6      0.97      0.00
   10    4    6     -0.54      0.00
   11    4    6      1.47      0.00
   12    4    6      3.16      0.00
   -9    5    6      0.57      0.00
   -8    5    6     -2.96      0.00
   -7    5    6      0.20      0.00
   -6    5    6      2.27      0.00
   -5    5    6      0.43      0.00
   -4    5    6     -3.23      0.00
   -3    5    6      4.28      0.00
   -2    5    6     -1.30      0.00
   -1    5    6      1.43      0.00
    0    5    6      2.06      0.00
    1    5    6     -0.14      0.00
    2    5    6     -1.41      0.00
    3    5    6      0.60      0.00
    4    5    6      0.42      0.00
    5    5    6     -0.40      0.00
    6    5    6     -1.52      0.00
    7    5    6     -0.58      0.00
    8    5    6      0.21      0.00
    9    5    6      1.62      0.00
   10    5    6     -0.51      0.00
   11    5    6      0.07      0.00
   12    5    6      2.58      0.00
   -9    6    6      2.31      0.00
   -8    6    6     -1.02      0.00
   -7    6    6     -4.80      0.00
   -5    6    6      0.98      0.00
   -4    6    6     -1.51      0.00
   -3    6    6      1.54      0.00
   -2    6    6     -0.49      0.00
   -1    6    6      2.08      0.00
    0    6    6      1.72      0.00
    1    6    6     -0.12      0.00
    2    6    6     -1.44      0.00
    3    6    6     -0.37      0.00
    4    6    6      0.30      0.00
    5    6    6     -0.99      0.00
    6    6    6     -0.20      0.00
    7    6    6      0.18      0.00
    8    6    6     -0.97      0.00
    9    6    6      1.67      0.00
   10    6    6      0.52      0.00
   11    6    6     -0.89      0.00
   12    6    6      0.39      0.00
   -9    7    6      1.93      0.00
   -8    7    6      1.16      0.00
   -7    7    6     -1.86      0.00
   -5    7    6      1.65      0.00
   -4    7    6     -1.34      0.00
   -3    7    6     -0.09      0.00
   -2    7    6      1.53      0.00
   -1    7    6      1.43      0.00
    0    7    6      1.20      0.00
    1    7    6      0.97      0.00
    2    7    6     -1.28      0.00
    3    7    6     -2.23      0.00
    4    7    6      0.32      0.00
    5    7    6     -0.82      0.00
    6    7    6     -1.65      0.00
    7    7    6     -1.71      0.00
    8    7    6     -0.49      0.00
    9    7    6      0.94      0.00
   10    7    6      1.37      0.00
   11    7    6      0.89      0.00
   -8    8    6      1.49      0.00
   -7    8    6     -5.99      0.00
   -6    8    6     -3.75      0.00
   -5    8    6     -3.97      0.00
   -4    8    6     -0.93      0.00
   -3    8    6     -1.88      0.00
   -2    8    6      0.24      0.00
   -1    8    6      1.25      0.00
    0    8    6     -0.41      0.00
    1    8    6     -1.37      0.00
    2    8    6     -0.54      0.00
    3    8    6     -1.27      0.00
    4    8    6      0.28      0.00
    5    8    6     -0.01      0.00
    6    8    6      0.57      0.00
    7    8    6     -2.13      0.00
    8    8    6     -1.03      0.00
    9    8    6     -1.02      0.00
   10    8    6     -1.98      0.00
   11    8    6      0.87      0.00
   -8    9    6     -0.38      0.00
   -7    9    6     -2.68      0.00
   -6    9    6      2.59      0.00
   -5    9    6      0.11      0.00
   -4    9    6      0.42      0.00
   -3    9    6     -2.50      0.00
   -2    9    6     -0.71      0.00
   -1    9    6     -0.09      0.00
    0    9    6     -0.32      0.00
    1    9    6     -1.00      0.00
    2    9    6      0.11      0.00
    3    9    6     -0.84      0.00
    4    9    6      0.53      0.00
    5    9    6      1.36      0.00
    6    9    6      1.64      0.00
    7    9    6     -0.78      0.00
    8    9    6     -0.07      0.00
    9    9    6     -0.31      0.00
   10    9    6     -0.47      0.00
   -7   10    6     -1.23      0.00
   -6   10    6     -0.92      0.00
   -5   10    6     -2.01      0.00
   -4   10    6      1.08      0.00
   -3   10    6     -2.38      0.00
   -2   10    6      0.76      0.00
   -1   10    6      0.19      0.00
    0   10    6     -1.42      0.00
    1   10    6     -2.18      0.00
    2   10    6      1.45      0.00
    3   10    6      1.88      0.00
    4   10    6     -1.07      0.00
    5   10    6      0.39      0.00
    6   10    6      1.35      0.00
    7   10    6     -0.99      0.00
    8   10    6     -0.26      0.00
    9   10    6     -1.11      0.00
   10   10    6     -3.55      0.00
   -6   11    6     -2.11      0.00
   -5   11    6     -3.23      0.00
   -4   11    6     -0.77      0.00
   -3   11    6     -2.48      0.00
   -2   11    6      2.90      0.00
   -1   11    6      1.07      0.00
    0   11    6     -0.06      0.00
    1   11    6     -0.88      0.00
    2   11    6     -0.27      0.00
    3   11    6      1.82      0.00
    4   11    6      0.13      0.00
    5   11    6      1.54      0.00
    6   11    6      1.81      0.00
    7   11    6      0.41      0.00
    8   11    6     -0.71      0.00
    9   11    6      1.46      0.00
   -5   12    6      0.48      0.00
   -4   12    6      2.17      0.00
   -3   12    6     -2.49      0.00
   -2   12    6     -0.71      0.00
   -1   12    6      1.46      0.00
    0   12    6      0.68      0.00
    1   12    6     -2.18      0.00
    2   12    6     -0.77      0.00
    3   12    6      2.16      0.00
    4   12    6     -0.12      0.00
    5   12    6      1.52      0.00
    6   12    6      0.76      0.00
    7   12    6      0.37      0.00
    8   12    6     -0.54      0.00
   -4   13    6     -1.31      0.00
   -3   13    6     -0.55      0.00
   -2   13    6     -1.10      0.00
   -1   13    6     -0.59      0.00
    0   13    6      0.88      0.00
    1   13    6      0.52      0.00
    2   13    6      0.27      0.00
    3   13    6      0.58      0.00
    4   13    6      0.11      0.00
    5   13    6      1.99      0.00
    6   13    6      0.54      0.00
    7   13    6      0.89      0.00
   -3   14    6      0.36      0.00
   -2   14    6     -1.75      0.00
   -1   14    6     -0.42      0.00
    0   14    6     -0.36      0.00
    1   14    6     -2.08      0.00
    2   14    6     -0.66      0.00
    3   14    6     -0.75      0.00
    4   14    6     -1.10      0.00
    5   14    6      0.86      0.00
    1   15    6     -1.42      0.00
    2   15    6      0.79      0.00
   -2  -13    7      0.86      0.00
   -1  -13    7      1.07      0.00
    0  -13    7     -1.87      0.00
    1  -13    7      0.61      0.00
    2  -13    7      0.95      0.00
    3  -13    7      1.22      0.00
    4  -13    7      0.54      0.00
    5  -13    7     -1.03      0.00
   -4  -12    7      1.32      0.00
   -3  -12    7     -0.54      0.00
   -2  -12    7      0.48      0.00
   -1  -12    7      3.64      0.00
    0  -12    7      0.01      0.00
    1  -12    7      1.45      0.00
    2  -12    7      1.22      0.00
    3  -12    7      1.04      0.00
    4  -12    7      1.18      0.00
    5  -12    7      0.60      0.00
    6  -12    7      2.07      0.00
   -5  -11    7     -1.83      0.00
   -4  -11    7     -0.21      0.00
   -3  -11    7     -0.05      0.00
   -2  -11    7     -1.19      0.00
   -1  -11    7      1.39      0.00
    0  -11    7     -0.77      0.00
    1  -11    7     -0.25      0.00
    2  -11    7      0.07      0.00
    3  -11    7      1.44      0.00
    4  -11    7      0.16      0.00
    5  -11    7     -0.92      0.00
    6  -11    7      1.97      0.00
    7  -11    7     -0.47      0.00
    8  -11    7      0.87      0.00
   -6  -10    7      0.63      0.00
   -5  -10    7      0.69      0.00
   -4  -10    7      1.16      0.00
   -3  -10    7      0.47      0.00
   -2  -10    7     -0.84      0.00
   -1  -10    7     -1.24      0.00
    0  -10    7     -1.61      0.00
    1  -10    7      0.25      0.00
    2  -10    7     -2.08      0.00
    3  -10    7     -1.99      0.00
    4  -10    7      1.51      0.00
    5  -10    7      0.52      0.00
    6  -10    7      2.08      0.00
    7  -10    7     -0.19      0.00
    8  -10    7      0.70      0.00
    9  -10    7     -2.04      0.00
   -7   -9    7     -0.36      0.00
   -6   -9    7     -0.09      0.00
   -5   -9    7     -0.53      0.00
   -4   -9    7      0.65      0.00
   -3   -9    7      0.78      0.00
   -2   -9    7      0.79      0.00
   -1   -9    7      0.25      0.00
    0   -9    7     -0.41      0.00
    1   -9    7      0.55      0.00
    2   -9    7      0.92      0.00
    3   -9    7     -1.16      0.00
    4   -9    7      1.70      0.00
    5   -9    7      0.49      0.00
    6   -9    7      3.23      0.00
    7   -9    7      0.49      0.00
    8   -9    7      0.45      0.00
    9   -9    7     -0.37      0.00
   -7   -8    7     -0.65      0.00
   -6   -8    7      0.03      0.00
   -5   -8    7     -0.02      0.00
   -4   -8    7      0.65      0.00
   -3   -8    7      1.36      0.00
   -2   -8    7      0.33      0.00
   -1   -8    7     -0.83      0.00
    0   -8    7      0.82      0.00
    1   -8    7      0.94      0.00
    2   -8    7      0.74      0.00
    3   -8    7     -1.66      0.00
    4   -8    7      1.52      0.00
    5   -8    7     -1.79      0.00
    6   -8    7      0.59      0.00
    7   -8    7      0.94      0.00
    8   -8    7      1.17      0.00
    9   -8    7      0.08      0.00
   10   -8    7      1.30      0.00
   -8   -7    7      0.06      0.00
   -7   -7    7      0.07      0.00
   -6   -7    7      0.74      0.00
   -5   -7    7      0.23      0.00
   -4   -7    7      1.11      0.00
   -3   -7    7      0.81      0.00
   -2   -7    7     -0.80      0.00
   -1   -7    7     -1.44      0.00
    0   -7    7     -1.32      0.00
    1   -7    7     -1.40      0.00
    2   -7    7      0.80      0.00
    3   -7    7     -0.58      0.00
    4   -7    7     -0.45      0.00
    5   -7    7     -1.87      0.00
    6   -7    7      2.07      0.00
    7   -7    7      0.52      0.00
    8   -7    7     -1.50      0.00
    9   -7    7      0.04      0.00
   10   -7    7      1.32      0.00
   11   -7    7     -2.28      0.00
   -8   -6    7      0.63      0.00
   -7   -6    7      0.77      0.00
   -6   -6    7     -0.90      0.00
   -5   -6    7     -3.17      0.00
   -4   -6    7      0.64      0.00
   -3   -6    7      1.34      0.00
   -2   -6    7      0.16      0.00
   -1   -6    7      0.80      0.00
    0   -6    7      1.31      0.00
    1   -6    7      1.79      0.00
    2   -6    7      1.71      0.00
    3   -6    7      1.06      0.00
    4   -6    7      1.30      0.00
    5   -6    7      0.09      0.00
    6   -6    7     -0.20      0.00
    7   -6    7      0.29      0.00
    8   -6    7      0.98      0.00
    9   -6    7      0.93      0.00
   10   -6    7      2.01      0.00
   11   -6    7      0.36      0.00
   -9   -5    7      1.26      0.00
   -8   -5    7      0.45      0.00
   -7   -5    7      0.92      0.00
   -6   -5    7      0.95      0.00
   -5   -5    7     -1.44      0.00
   -4   -5    7      0.50      0.00
   -3   -5    7      0.02      0.00
   -2   -5    7     -0.78      0.00
   -1   -5    7     -1.69      0.00
    0   -5    7     -1.67      0.00
    1   -5    7     -0.88      0.00
    2   -5    7     -2.25      0.00
    3   -5    7     -1.22      0.00
    4   -5    7     -1.13      0.00
    5   -5    7     -0.69      0.00
    6   -5    7     -1.44      0.00
    7   -5    7      0.18      0.00
    8   -5    7      1.01      0.00
    9   -5    7     -0.64      0.00
   10   -5    7      0.02      0.00
   11   -5    7     -0.18      0.00
   -9   -4    7      0.24      0.00
   -8   -4    7      0.14      0.00
   -7   -4    7      0.62      0.00
   -6   -4    7     -1.11      0.00
   -5   -4    7     -3.01      0.00
   -4   -4    7     -1.32      0.00
   -3   -4    7     -1.18      0.00
   -2   -4    7      0.55      0.00
   -1   -4    7     -0.16      0.00
    0   -4    7     -1.49      0.00
    1   -4    7     -0.75      0.00
    2   -4    7     -1.48      0.00
    3   -4    7     -0.22      0.00
    4   -4    7     -0.62      0.00
    5   -4    7      0.73      0.00
    6   -4    7     -1.54      0.00
    7   -4    7     -0.76      0.00
    8   -4    7      2.34      0.00
    9   -4    7      1.17      0.00
   10   -4    7      2.18      0.00
   11   -4    7     -1.03      0.00
   12   -4    7     -0.65      0.00
   -9   -3    7      2.91      0.00
   -8   -3    7      1.88      0.00
   -7   -3    7     -0.74      0.00
   -6   -3    7     -0.48      0.00
   -5   -3    7      0.43      0.00
   -4   -3    7     -0.49      0.00
   -3   -3    7     -0.63      0.00
   -2   -3    7      0.29      0.00
   -1   -3    7     -0.26      0.00
    0   -3    7      0.57      0.00
    1   -3    7      1.42      0.00
    2   -3    7     -0.83      0.00
    3   -3    7     -0.36      0.00
    4   -3    7      0.08      0.00
    5   -3    7      1.43      0.00
    6   -3    7      0.36      0.00
    7   -3    7     -0.28      0.00
    8   -3    7      3.11      0.00
    9   -3    7      0.68      0.00
   10   -3    7     -2.13      0.00
   11   -3    7     -2.41      0.00
   12   -3    7      1.24      0.00
   -9   -2    7     -1.69      0.00
   -8   -2    7     -0.08      0.00
   -7   -2    7     -0.91      0.00
   -6   -2    7     -3.48      0.00
   -5   -2    7     -1.97      0.00
   -4   -2    7     -0.62      0.00
   -3   -2    7      0.10      0.00
   -2   -2    7     -0.13      0.00
   -1   -2    7     -1.26      0.00
    0   -2    7     -0.26      0.00
    1   -2    7     -0.78      0.00
    2   -2    7     -2.65      0.00
    3   -2    7     -0.44      0.00
    4   -2    7      0.80      0.00
    5   -2    7     -0.21      0.00
    6   -2    7      0.55      0.00
    7   -2    7     -0.69      0.00
    8   -2    7      1.08      0.00
    9   -2    7      2.52      0.00
   10   -2    7      2.19      0.00
   11   -2    7      0.82      0.00
   12   -2    7     -0.79      0.00
  -10   -1    7     -3.44      0.00
   -9   -1    7      1.52      0.00
   -8   -1    7      0.05      0.00
   -7   -1    7      3.23      0.00
   -6   -1    7      1.88      0.00
   -5   -1    7      0.18      0.00
   -4   -1    7     -0.67      0.00
   -3   -1    7     -1.74      0.00
   -2   -1    7     -0.06      0.00
   -1   -1    7     -0.43      0.00
    0   -1    7     -0.76      0.00
    1   -1    7      0.55      0.00
    2   -1    7      0.27      0.00
    3   -1    7     -0.98      0.00
    4   -1    7      0.20      0.00
    5   -1    7     -0.71      0.00
    6   -1    7     -0.55      0.00
    7   -1    7     -1.82      0.00
    8   -1    7     -0.85      0.00
    9   -1    7     -0.63      0.00
   10   -1    7     -3.26      0.00
   11   -1    7     -0.41      0.00
   12   -1    7      0.10      0.00
  -10    0    7     -3.68      0.00
   -9    0    7     -0.57      0.00
   -8    0    7     -4.49      0.00
   -7    0    7      0.80      0.00
   -6    0    7      0.56      0.00
   -5    0    7      0.77      0.00
   -4    0    7      1.80      0.00
   -3    0    7     -0.14      0.00
   -2    0    7     -1.11      0.00
   -1    0    7     -1.92      0.00
    0    0    7     -0.15      0.00
    1    0    7      1.67      0.00
    2    0    7      0.23      0.00
    3    0    7     -2.72      0.00
    4    0    7     -1.13      0.00
    5    0    7      0.45      0.00
    6    0    7      0.29      0.00
    7    0    7     -1.60      0.00
    8    0    7      0.20      0.00
    9    0    7      1.09      0.00
   10    0    7     -0.11      0.00
   11    0    7     -0.02      0.00
   12    0    7     -2.06      0.00
  -10    1    7      1.99      0.00
   -9    1    7      0.29      0.00
   -8    1    7     -7.81      0.00
   -7    1    7      0.37      0.00
   -6    1    7     -0.63      0.00
   -5    1    7      0.03      0.00
   -4    1    7      1.90      0.00
   -3    1    7     -0.51      0.00
   -2    1    7     -0.89      0.00
   -1    1    7     -0.86      0.00
    0    1    7     -1.68      0.00
    1    1    7      1.61      0.00
    2    1    7      0.97      0.00
    3    1    7     -2.34      0.00
    4    1    7      0.82      0.00
    5    1    7      1.08      0.00
    6    1    7      0.39      0.00
    7    1    7      0.08      0.00
    8    1    7      0.97      0.00
    9    1    7     -0.04      0.00
   10    1    7     -0.05      0.00
   11    1    7     -1.12      0.00
   12    1    7     -2.11      0.00
  -10    2    7      1.71      0.00
   -9    2    7      3.13      0.00
   -8    2    7     -4.26      0.00
   -7    2    7     -0.01      0.00
   -6    2    7     -0.43      0.00
   -5    2    7     -1.13      0.00
   -4    2    7     -0.96      0.00
   -3    2    7      0.38      0.00
   -2    2    7     -0.44      0.00
   -1    2    7     -0.59      0.00
    0    2    7     -0.11      0.00
    1    2    7      1.67      0.00
    2    2    7      2.50      0.00
    3    2    7     -1.64      0.00
    4    2    7      0.13      0.00
    5    2    7      0.84      0.00
    6    2    7     -0.33      0.00
    7    2    7     -0.19      0.00
    8    2    7     -0.38      0.00
    9    2    7     -1.67      0.00
   10    2    7      2.12      0.00
   11    2    7      1.10      0.00
   12    2    7      0.60      0.00
   -9    3    7      2.81      0.00
   -8    3    7     -2.41      0.00
   -7    3    7     -1.34      0.00
   -6    3    7     -1.32      0.00
   -5    3    7      1.02      0.00
   -4    3    7     -0.32      0.00
   -3    3    7     -3.81      0.00
   -2    3    7     -0.45      0.00
   -1    3    7     -1.15      0.00
    0    3    7     -0.50      0.00
    1    3    7     -0.89      0.00
    2    3    7     -0.49      0.00
    3    3    7     -2.66      0.00
    4    3    7     -1.22      0.00
    5    3    7     -1.16      0.00
    6    3    7     -1.13      0.00
    7    3    7     -0.92      0.00
    8    3    7     -1.28      0.00
    9    3    7     -0.66      0.00
   10    3    7      0.94      0.00
   11    3    7     -2.16      0.00
   12    3    7     -1.71      0.00
   -9    4    7      0.95      0.00
   -8    4    7      0.41      0.00
   -7    4    7      0.48      0.00
   -6    4    7     -0.11      0.00
   -5    4    7     -0.86      0.00
   -4    4    7      1.24      0.00
   -3    4    7     -4.27      0.00
   -2    4    7      0.91      0.00
   -1    4    7     -0.81      0.00
    0    4    7      0.45      0.00
    1    4    7      0.65      0.00
    2    4    7      1.56      0.00
    3    4    7     -1.70      0.00
    4    4    7     -0.39      0.00
    5    4    7      0.53      0.00
    6    4    7      0.28      0.00
    7    4    7      0.77      0.00
    8    4    7     -1.78      0.00
    9    4    7     -2.31      0.00
   10    4    7      0.39      0.00
   11    4    7     -1.43      0.00
   12    4    7     -2.75      0.00
   -9    5    7     -0.98      0.00
   -8    5    7     -1.17      0.00
   -7    5    7      0.79      0.00
   -6    5    7      1.16      0.00
   -5    5    7     -3.17      0.00
   -4    5    7      0.67      0.00
   -3    5    7     -4.08      0.00
   -2    5    7     -0.25      0.00
   -1    5    7     -2.13      0.00
    0    5    7     -0.51      0.00
    1    5    7     -0.47      0.00
    2    5    7      1.35      0.00
    3    5    7      0.39      0.00
    4    5    7     -0.03      0.00
    5    5    7      0.27      0.00
    6    5    7     -0.23      0.00
    7    5    7     -0.59      0.00
    8    5    7     -0.91      0.00
    9    5    7     -1.73      0.00
   10    5    7      0.18      0.00
   11    5    7      0.69      0.00
   12    5    7     -1.46      0.00
   -9    6    7     -0.44      0.00
   -8    6    7     -0.19      0.00
   -7    6    7      1.28      0.00
   -6    6    7     -2.60      0.00
   -4    6    7      1.07      0.00
   -3    6    7     -1.91      0.00
   -2    6    7     -2.61      0.00
   -1    6    7     -0.82      0.00
    0    6    7     -0.24      0.00
    1    6    7     -1.06      0.00
    2    6    7      1.04      0.00
    3    6    7      0.91      0.00
    4    6    7      0.04      0.00
    5    6    7      0.96      0.00
    6    6    7      1.82      0.00
    7    6    7      1.44      0.00
    8    6    7     -1.29      0.00
    9    6    7     -2.77      0.00
   10    6    7     -1.41      0.00
   11    6    7     -0.57      0.00
   12    6    7     -0.77      0.00
   -8    7    7     -1.84      0.00
   -7    7    7      7.58      0.00
   -6    7    7      7.11      0.00
   -5    7    7      0.68      0.00
   -4    7    7     -2.52      0.00
   -3    7    7      0.62      0.00
   -2    7    7     -0.81      0.00
   -1    7    7     -0.50      0.00
    0    7    7      1.10      0.00
    1    7    7      1.38      0.00
    2    7    7      0.93      0.00
    3    7    7      1.03      0.00
    4    7    7     -0.50      0.00
    5    7    7      0.54      0.00
    6    7    7      0.25      0.00
    7    7    7      2.44      0.00
    8    7    7      1.20      0.00
    9    7    7     -0.33      0.00
   10    7    7      0.73      0.00
   11    7    7     -0.10      0.00
   -8    8    7     -1.55      0.00
   -7    8    7      2.20      0.00
   -6    8    7     -3.63      0.00
   -5    8    7     -1.57      0.00
   -4    8    7     -2.58      0.00
   -3    8    7      0.68      0.00
   -2    8    7     -0.98      0.00
   -1    8    7     -0.60      0.00
    0    8    7      0.42      0.00
    1    8    7      1.84      0.00
    2    8    7      0.42      0.00
    3    8    7      1.66      0.00
    4    8    7     -0.46      0.00
    5    8    7     -0.39      0.00
    6    8    7     -0.95      0.00
    7    8    7      1.64      0.00
    8    8    7      0.38      0.00
    9    8    7      0.31      0.00
   10    8    7     -0.77      0.00
   11    8    7     -1.28      0.00
   -7    9    7      3.36      0.00
   -6    9    7      0.13      0.00
   -5    9    7      2.64      0.00
   -4    9    7     -1.31      0.00
   -3    9    7      0.37      0.00
   -2    9    7     -1.49      0.00
   -1    9    7     -1.05      0.00
    0    9    7     -0.13      0.00
    1    9    7      1.43      0.00
    2    9    7     -1.49      0.00
    3    9    7     -0.73      0.00
    4    9    7      0.40      0.00
    5    9    7      0.21      0.00
    6    9    7     -1.62      0.00
    7    9    7      1.65      0.00
    8    9    7     -0.14      0.00
    9    9    7      1.76      0.00
   10    9    7      4.76      0.00
   -7   10    7      4.32      0.00
   -6   10    7      1.05      0.00
   -5   10    7      2.48      0.00
   -4   10    7     -0.31      0.00
   -3   10    7      1.05      0.00
   -2   10    7     -1.39      0.00
   -1   10    7      0.03      0.00
    0   10    7      0.13      0.00
    1   10    7      0.21      0.00
    2   10    7     -0.33      0.00
    3   10    7     -0.98      0.00
    4   10    7     -0.39      0.00
    5   10    7     -0.92      0.00
    6   10    7     -2.09      0.00
    7   10    7      0.05      0.00
    8   10    7     -0.22      0.00
    9   10    7     -1.36      0.00
   10   10    7      0.61      0.00
   -6   11    7      0.05      0.00
   -5   11    7      0.51      0.00
   -4   11    7     -1.86      0.00
   -3   11    7      1.49      0.00
   -2   11    7      0.01      0.00
   -1   11    7     -1.56      0.00
    0   11    7      0.03      0.00
    1   11    7      1.26      0.00
    2   11    7     -0.39      0.00
    3   11    7     -2.46      0.00
    4   11    7      0.82      0.00
    5   11    7     -0.36      0.00
    6   11    7     -0.81      0.00
    7   11    7      0.59      0.00
    8   11    7      0.11      0.00
    9   11    7     -0.08      0.00
   -5   12    7      1.13      0.00
   -4   12    7      1.14      0.00
   -3   12    7      0.46      0.00
   -2   12    7     -0.18      0.00
   -1   12    7     -1.31      0.00
    0   12    7     -0.91      0.00
    1   12    7     -1.54      0.00
    2   12    7     -1.29      0.00
    3   12    7     -1.94      0.00
    4   12    7     -0.43      0.00
    5   12    7     -1.53      0.00
    6   12    7     -0.44      0.00
    7   12    7     -0.39      0.00
    8   12    7     -0.22      0.00
   -4   13    7      0.59      0.00
   -3   13    7     -0.02      0.00
   -2   13    7      2.60      0.00
   -1   13    7     -0.79      0.00
    0   13    7     -1.05      0.00
    1   13    7      1.00      0.00
    2   13    7      0.22      0.00
    3   13    7     -0.04      0.00
    4   13    7      0.75      0.00
    5   13    7     -1.67      0.00
    6   13    7      0.45      0.00
    7   13    7      0.77      0.00
   -2   14    7      1.13      0.00
   -1   14    7      1.31      0.00
    0   14    7      0.02      0.00
    1   14    7     -0.01      0.00
    2   14    7     -1.52      0.00
    3   14    7      0.14      0.00
    4   14    7      1.08      0.00
    5   14    7     -1.52      0.00
   -1  -13    8     -3.01      0.00
    0  -13    8     -0.37      0.00
    1  -13    8     -1.89      0.00
    2  -13    8     -1.29      0.00
    3  -13    8     -0.08      0.00
    4  -13    8      0.29      0.00
   -3  -12    8      0.49      0.00
   -2  -12    8      0.26      0.00
   -1  -12    8     -1.99      0.00
    0  -12    8     -0.23      0.00
    1  -12    8     -0.25      0.00
    2  -12    8     -2.26      0.00
    3  -12    8     -2.80      0.00
    4  -12    8      1.11      0.00
    5  -12    8      0.46      0.00
    6  -12    8     -1.54      0.00
   -4  -11    8     -0.61      0.00
   -3  -11    8      0.73      0.00
   -2  -11    8      1.16      0.00
   -1  -11    8      0.59      0.00
    0  -11    8      0.00      0.00
    1  -11    8      0.11      0.00
    2  -11    8      1.28      0.00
    3  -11    8      0.43      0.00
    4  -11    8      0.64      0.00
    5  -11    8     -1.31      0.00
    6  -11    8     -0.72      0.00
    7  -11    8      0.18      0.00
   -5  -10    8      0.51      0.00
   -4  -10    8     -0.56      0.00
   -3  -10    8      0.06      0.00
   -2  -10    8      0.12      0.00
   -1  -10    8      1.27      0.00
    0  -10    8      0.88      0.00
    1  -10    8     -0.27      0.00
    2  -10    8     -0.72      0.00
    3  -10    8      0.54      0.00
    4  -10    8      1.74      0.00
    5  -10    8     -0.60      0.00
    6  -10    8     -1.24      0.00
    7  -10    8      1.49      0.00
    8  -10    8      1.13      0.00
   -6   -9    8      0.17      0.00
   -5   -9    8     -0.02      0.00
   -4   -9    8     -0.85      0.00
   -3   -9    8     -0.65      0.00
   -2   -9    8     -0.64      0.00
   -1   -9    8      2.65      0.00
    0   -9    8      1.56      0.00
    1   -9    8     -0.12      0.00
    2   -9    8      1.30      0.00
    3   -9    8      2.47      0.00
    4   -9    8     -1.62      0.00
    5   -9    8     -0.38      0.00
    6   -9    8     -0.04      0.00
    7   -9    8     -0.50      0.00
    8   -9    8     -0.51      0.00
    9   -9    8     -0.34      0.00
   -7   -8    8      0.23      0.00
   -6   -8    8     -0.42      0.00
   -5   -8    8     -0.39      0.00
   -4   -8    8     -1.53      0.00
   -3   -8    8     -1.05      0.00
   -2   -8    8     -1.36      0.00
   -1   -8    8      0.43      0.00
    0   -8    8      1.48      0.00
    1   -8    8      1.29      0.00
    2   -8    8     -1.15      0.00
    3   -8    8      1.40      0.00
    4   -8    8      0.55      0.00
    5   -8    8      0.66      0.00
    6   -8    8     -4.42      0.00
    7   -8    8     -1.65      0.00
    8   -8    8      2.93      0.00
    9   -8    8     -0.50      0.00
   10   -8    8     -2.10      0.00
   -7   -7    8      0.28      0.00
   -6   -7    8      1.52      0.00
   -5   -7    8      2.62      0.00
   -4   -7    8     -0.62      0.00
   -3   -7    8     -1.07      0.00
   -2   -7    8      0.10      0.00
   -1   -7    8      0.97      0.00
    0   -7    8     -1.30      0.00
    1   -7    8     -0.54      0.00
    2   -7    8     -0.80      0.00
    3   -7    8      0.07      0.00
    4   -7    8     -1.38      0.00
    5   -7    8      2.00      0.00
    6   -7    8     -0.80      0.00
    7   -7    8     -1.37      0.00
    8   -7    8     -0.66      0.00
    9   -7    8     -1.04      0.00
   10   -7    8     -1.57      0.00
   -8   -6    8      0.31      0.00
   -7   -6    8     -0.11      0.00
   -6   -6    8      0.27      0.00
   -5   -6    8      1.41      0.00
   -4   -6    8     -2.20      0.00
   -3   -6    8     -1.70      0.00
   -2   -6    8     -1.84      0.00
   -1   -6    8      0.82      0.00
    0   -6    8      1.47      0.00
    1   -6    8      2.54      0.00
    2   -6    8      0.95      0.00
    3   -6    8     -0.06      0.00
    4   -6    8      1.11      0.00
    5   -6    8      3.81      0.00
    6   -6    8     -0.73      0.00
    7   -6    8     -0.57      0.00
    8   -6    8      1.30      0.00
    9   -6    8      0.65      0.00
   10   -6    8     -2.49      0.00
   11   -6    8     -0.76      0.00
   -8   -5    8      0.75      0.00
   -7   -5    8     -0.24      0.00
   -6   -5    8      1.96      0.00
   -5   -5    8      5.43      0.00
   -4   -5    8      1.59      0.00
   -3   -5    8      1.09      0.00
   -2   -5    8     -0.67      0.00
   -1   -5    8      0.90      0.00
    0   -5    8      0.48      0.00
    1   -5    8      0.79      0.00
    2   -5    8      1.02      0.00
    3   -5    8      0.27      0.00
    4   -5    8     -0.77      0.00
    5   -5    8     -0.46      0.00
    6   -5    8      0.11      0.00
    7   -5    8      0.22      0.00
    8   -5    8     -3.26      0.00
    9   -5    8     -0.68      0.00
   10   -5    8     -0.81      0.00
   11   -5    8     -0.10      0.00
   -9   -4    8     -3.48      0.00
   -8   -4    8     -2.38      0.00
   -7   -4    8     -0.38      0.00
   -6   -4    8      0.67      0.00
   -5   -4    8      0.44      0.00
   -4   -4    8      0.54      0.00
   -3   -4    8      0.97      0.00
   -2   -4    8     -1.79      0.00
   -1   -4    8     -0.38      0.00
    0   -4    8      0.01      0.00
    1   -4    8      0.40      0.00
    2   -4    8      0.75      0.00
    3   -4    8      0.74      0.00
    4   -4    8      0.52      0.00
    5   -4    8     -0.79      0.00
    6   -4    8     -0.12      0.00
    7   -4    8      1.42      0.00
    8   -4    8     -3.56      0.00
    9   -4    8     -0.35      0.00
   10   -4    8      1.88      0.00
   11   -4    8      1.00      0.00
   12   -4    8     -1.80      0.00
   -9   -3    8      0.29      0.00
   -8   -3    8     -0.48      0.00
   -7   -3    8      1.49      0.00
   -6   -3    8      3.90      0.00
   -5   -3    8      1.84      0.00
   -4   -3    8      1.74      0.00
   -3   -3    8      1.13      0.00
   -2   -3    8      0.72      0.00
   -1   -3    8      1.63      0.00
    0   -3    8      0.90      0.00
    1   -3    8      2.16      0.00
    2   -3    8      2.11      0.00
    3   -3    8      0.93      0.00
    4   -3    8     -0.13      0.00
    5   -3    8     -0.76      0.00
    6   -3    8     -0.85      0.00
    7   -3    8      0.87      0.00
    8   -3    8     -2.41      0.00
    9   -3    8     -0.77      0.00
   10   -3    8     -0.44      0.00
   11   -3    8      0.74      0.00
   12   -3    8      1.46      0.00
   -9   -2    8     -2.20      0.00
   -8   -2    8     -1.74      0.00
   -7   -2    8      0.03      0.00
   -6   -2    8      1.13      0.00
   -5   -2    8      0.03      0.00
   -4   -2    8      1.91      0.00
   -3   -2    8      1.10      0.00
   -2   -2    8     -0.45      0.00
   -1   -2    8     -0.85      0.00
    0   -2    8     -0.72      0.00
    1   -2    8      0.61      0.00
    2   -2    8     -1.81      0.00
    3   -2    8     -0.64      0.00
    4   -2    8      0.13      0.00
    5   -2    8     -1.03      0.00
    6   -2    8     -1.56      0.00
    7   -2    8      1.51      0.00
    8   -2    8     -0.75      0.00
    9   -2    8     -1.21      0.00
   10   -2    8      1.70      0.00
   11   -2    8      1.01      0.00
   12   -2    8     -0.50      0.00
   -9   -1    8     -0.26      0.00
   -8   -1    8     -0.56      0.00
   -7   -1    8     -1.27      0.00
   -6   -1    8      0.16      0.00
   -5   -1    8     -0.15      0.00
   -4   -1    8     -0.28      0.00
   -3   -1    8     -0.12      0.00
   -2   -1    8      1.11      0.00
   -1   -1    8      1.43      0.00
    0   -1    8     -0.73      0.00
    1   -1    8      1.52      0.00
    2   -1    8      1.00      0.00
    3   -1    8      1.15      0.00
    4   -1    8      0.63      0.00
    5   -1    8     -0.36      0.00
    6   -1    8     -0.45      0.00
    7   -1    8      1.11      0.00
    8   -1    8     -0.34      0.00
    9   -1    8     -1.05      0.00
   10   -1    8      1.06      0.00
   11   -1    8      1.19      0.00
   12   -1    8      2.28      0.00
   -9    0    8      1.47      0.00
   -8    0    8      6.47      0.00
   -7    0    8     -0.72      0.00
   -6    0    8     -1.29      0.00
   -5    0    8      0.02      0.00
   -4    0    8     -0.94      0.00
   -3    0    8      1.04      0.00
   -2    0    8      2.49      0.00
   -1    0    8      0.66      0.00
    0    0    8     -0.08      0.00
    1    0    8      0.66      0.00
    2    0    8     -0.87      0.00
    3    0    8     -0.07      0.00
    4    0    8      0.34      0.00
    5    0    8     -0.46      0.00
    6    0    8     -0.74      0.00
    7    0    8      0.47      0.00
    8    0    8      0.22      0.00
    9    0    8      0.03      0.00
   10    0    8      1.40      0.00
   11    0    8      1.00      0.00
   12    0    8      1.74      0.00
   -9    1    8     -0.98      0.00
   -8    1    8      7.16      0.00
   -7    1    8      1.47      0.00
   -6    1    8     -0.07      0.00
   -5    1    8     -0.03      0.00
   -4    1    8     -0.70      0.00
   -3    1    8     -1.79      0.00
   -2    1    8      2.09      0.00
   -1    1    8      0.94      0.00
    0    1    8      0.01      0.00
    1    1    8      0.48      0.00
    2    1    8     -0.81      0.00
    3    1    8      0.21      0.00
    4    1    8      0.21      0.00
    5    1    8     -1.09      0.00
    6    1    8      0.53      0.00
    7    1    8      1.31      0.00
    8    1    8      0.54      0.00
    9    1    8      0.42      0.00
   10    1    8     -1.22      0.00
   11    1    8     -1.45      0.00
   12    1    8     -0.32      0.00
   -9    2    8     -2.91      0.00
   -8    2    8      5.97      0.00
   -7    2    8      1.93      0.00
   -6    2    8      2.21      0.00
   -5    2    8     -0.34      0.00
   -4    2    8     -0.31      0.00
   -3    2    8     -0.85      0.00
   -2    2    8      1.56      0.00
   -1    2    8      0.33      0.00
    0    2    8     -0.26      0.00
    1    2    8      1.24      0.00
    2    2    8      0.82      0.00
    3    2    8      0.91      0.00
    4    2    8      0.60      0.00
    5    2    8      0.07      0.00
    6    2    8      0.54      0.00
    7    2    8      0.22      0.00
    8    2    8      0.95      0.00
    9    2    8     -0.18      0.00
   10    2    8     -0.76      0.00
   11    2    8      1.05      0.00
   12    2    8      0.42      0.00
   -9    3    8     -2.93      0.00
   -8    3    8      1.39      0.00
   -7    3    8     -1.15      0.00
   -6    3    8      0.53      0.00
   -5    3    8      1.17      0.00
   -4    3    8      0.93      0.00
   -3    3    8     -0.46      0.00
   -2    3    8     -1.20      0.00
   -1    3    8     -0.76      0.00
    0    3    8     -2.03      0.00
    1    3    8     -0.29      0.00
    2    3    8     -0.15      0.00
    3    3    8      1.77      0.00
    4    3    8      0.36      0.00
    5    3    8     -0.96      0.00
    6    3    8      1.05      0.00
    7    3    8     -1.03      0.00
    8    3    8      1.52      0.00
    9    3    8      2.19      0.00
   10    3    8      0.18      0.00
   11    3    8      0.50      0.00
   12    3    8     -0.12      0.00
   -9    4    8     -0.14      0.00
   -8    4    8      2.12      0.00
   -7    4    8      0.28      0.00
   -6    4    8     -0.06      0.00
   -5    4    8      2.11      0.00
   -4    4    8      2.10      0.00
   -3    4    8      3.82      0.00
   -2    4    8      0.07      0.00
   -1    4    8      0.73      0.00
    0    4    8     -1.29      0.00
    1    4    8      0.23      0.00
    2    4    8     -0.42      0.00
    3    4    8      0.01      0.00
    4    4    8      0.45      0.00
    5    4    8      0.55      0.00
    6    4    8      1.86      0.00
    7    4    8      1.49      0.00
    8    4    8      2.38      0.00
    9    4    8      1.07      0.00
   10    4    8     -0.48      0.00
   11    4    8     -0.37      0.00
   12    4    8      0.03      0.00
   -9    5    8      0.41      0.00
   -8    5    8      1.35      0.00
   -7    5    8     -0.13      0.00
   -6    5    8      2.03      0.00
   -5    5    8      4.69      0.00
   -4    5    8     -0.79      0.00
   -3    5    8      2.04      0.00
   -2    5    8      2.74      0.00
   -1    5    8      0.98      0.00
    0    5    8     -0.27      0.00
    1    5    8      0.26      0.00
    2    5    8     -1.48      0.00
    3    5    8      0.09      0.00
    4    5    8     -0.36      0.00
    5    5    8     -0.73      0.00
    6    5    8     -0.89      0.00
    7    5    8     -0.41      0.00
    8    5    8      2.77      0.00
    9    5    8      3.38      0.00
   10    5    8      1.02      0.00
   11    5    8      1.10      0.00
   12    5    8      1.12      0.00
   -8    6    8      1.64      0.00
   -7    6    8     -5.04      0.00
   -6    6    8     -5.25      0.00
   -5    6    8      2.65      0.00
   -4    6    8      4.54      0.00
   -3    6    8     -1.87      0.00
   -2    6    8     -0.65      0.00
   -1    6    8     -0.08      0.00
    0    6    8     -0.20      0.00
    1    6    8      0.38      0.00
    2    6    8     -0.80      0.00
    3    6    8     -0.97      0.00
    4    6    8     -0.65      0.00
    5    6    8      0.10      0.00
    6    6    8     -0.58      0.00
    7    6    8     -1.15      0.00
    8    6    8     -0.10      0.00
    9    6    8      1.97      0.00
   10    6    8      0.17      0.00
   11    6    8     -0.49      0.00
   12    6    8      0.75      0.00
   -8    7    8      1.69      0.00
   -7    7    8     -2.29      0.00
   -6    7    8      4.43      0.00
   -5    7    8      4.90      0.00
   -4    7    8      6.07      0.00
   -3    7    8     -0.98      0.00
   -2    7    8      0.81      0.00
   -1    7    8     -1.15      0.00
    0    7    8     -1.47      0.00
    1    7    8     -1.68      0.00
    2    7    8     -0.30      0.00
    3    7    8     -0.86      0.00
    4    7    8     -1.22      0.00
    5    7    8     -0.20      0.00
    6    7    8     -0.29      0.00
    7    7    8     -1.24      0.00
    8    7    8      0.19      0.00
    9    7    8      1.41      0.00
   10    7    8      2.76      0.00
   11    7    8      1.75      0.00
   -7    8    8     -4.85      0.00
   -6    8    8     -0.79      0.00
   -5    8    8     -1.65      0.00
   -4    8    8      5.20      0.00
   -3    8    8      0.82      0.00
   -2    8    8      2.06      0.00
   -1    8    8      0.53      0.00
    0    8    8      0.42      0.00
    1    8    8     -1.70      0.00
    2    8    8      0.34      0.00
    3    8    8      0.80      0.00
    4    8    8      0.20      0.00
    5    8    8     -0.40      0.00
    6    8    8      0.70      0.00
    7    8    8     -1.96      0.00
    8    8    8     -0.64      0.00
    9    8    8     -1.55      0.00
   10    8    8     -3.08      0.00
   11    8    8     -0.66      0.00
   -7    9    8     -5.06      0.00
   -6    9    8      1.96      0.00
   -5    9    8     -0.37      0.00
   -4    9    8      3.18      0.00
   -3    9    8      0.65      0.00
   -2    9    8      0.58      0.00
   -1    9    8     -0.67      0.00
    0    9    8      1.88      0.00
    1    9    8      0.02      0.00
    2    9    8     -0.84      0.00
    3    9    8     -0.18      0.00
    4    9    8      0.84      0.00
    5    9    8      0.38      0.00
    6    9    8      2.03      0.00
    7    9    8      0.08      0.00
    8    9    8     -0.18      0.00
    9    9    8      0.16      0.00
   10    9    8      0.92      0.00
   -6   10    8      1.85      0.00
   -5   10    8      0.30      0.00
   -4   10    8      1.93      0.00
   -3   10    8     -0.01      0.00
   -2   10    8      0.22      0.00
   -1   10    8     -0.34      0.00
    0   10    8      0.61      0.00
    1   10    8      0.09      0.00
    2   10    8     -0.06      0.00
    3   10    8      1.33      0.00
    4   10    8     -0.60      0.00
    5   10    8     -0.80      0.00
    6   10    8      1.03      0.00
    7   10    8     -0.83      0.00
    8   10    8     -0.44      0.00
    9   10    8     -1.33      0.00
   10   10    8     -4.84      0.00
   -5   11    8     -0.71      0.00
   -4   11    8      0.45      0.00
   -3   11    8      0.90      0.00
   -2   11    8      1.01      0.00
   -1   11    8      0.86      0.00
    0   11    8      0.67      0.00
    1   11    8      2.68      0.00
    2   11    8      1.04      0.00
    3   11    8      1.46      0.00
    4   11    8      0.33      0.00
    5   11    8      0.22      0.00
    6   11    8      0.74      0.00
    7   11    8      0.12      0.00
    8   11    8      0.22      0.00
    9   11    8      1.42      0.00
   -4   12    8      0.08      0.00
   -3   12    8      0.67      0.00
   -2   12    8     -2.06      0.00
   -1   12    8      1.81      0.00
    0   12    8      1.52      0.00
    1   12    8      0.53      0.00
    2   12    8     -0.35      0.00
    3   12    8      0.39      0.00
    4   12    8     -0.74      0.00
    5   12    8      0.85      0.00
    6   12    8      0.49      0.00
    7   12    8     -1.31      0.00
    8   12    8     -0.58      0.00
   -3   13    8      1.86      0.00
   -2   13    8     -1.81      0.00
   -1   13    8     -0.43      0.00
    0   13    8      0.61      0.00
    1   13    8      1.83      0.00
    2   13    8      1.49      0.00
    3   13    8     -0.52      0.00
    4   13    8     -1.43      0.00
    5   13    8      0.71      0.00
    6   13    8      0.24      0.00
   -1   14    8     -0.31      0.00
    0   14    8      0.19      0.00
    1   14    8     -0.10      0.00
    2   14    8      1.20      0.00
    3   14    8      0.49      0.00
    4   14    8     -0.81      0.00
   -2  -12    9      0.96      0.00
   -1  -12    9      0.46      0.00
    0  -12    9      1.26      0.00
    1  -12    9     -0.10      0.00
    2  -12    9     -0.89      0.00
    3  -12    9     -0.28      0.00
    4  -12    9     -2.85      0.00
    5  -12    9      1.20      0.00
   -3  -11    9     -1.92      0.00
   -2  -11    9      0.41      0.00
   -1  -11    9     -0.74      0.00
    0  -11    9      1.90      0.00
    1  -11    9      0.97      0.00
    2  -11    9      1.17      0.00
    3  -11    9      0.64      0.00
    4  -11    9     -6.22      0.00
    5  -11    9     -0.12      0.00
    6  -11    9      0.15      0.00
    7  -11    9     -0.10      0.00
   -5  -10    9      0.46      0.00
   -4  -10    9      0.12      0.00
   -3  -10    9     -2.51      0.00
   -2  -10    9     -0.38      0.00
   -1  -10    9     -4.14      0.00
    0  -10    9     -1.38      0.00
    1  -10    9      0.23      0.00
    2  -10    9     -2.08      0.00
    3  -10    9     -0.94      0.00
    4  -10    9     -1.51      0.00
    5  -10    9      1.40      0.00
    6  -10    9     -2.65      0.00
    7  -10    9      0.73      0.00
    8  -10    9      1.72      0.00
   -6   -9    9      0.29      0.00
   -5   -9    9      0.73      0.00
   -4   -9    9      2.08      0.00
   -3   -9    9      0.10      0.00
   -2   -9    9      1.65      0.00
   -1   -9    9     -0.89      0.00
    0   -9    9     -2.03      0.00
    1   -9    9      0.09      0.00
    2   -9    9      1.15      0.00
    3   -9    9     -1.27      0.00
    4   -9    9     -3.81      0.00
    5   -9    9      0.50      0.00
    6   -9    9      1.62      0.00
    7   -9    9      0.55      0.00
    8   -9    9     -3.76      0.00
    9   -9    9      0.43      0.00
   -6   -8    9     -1.52      0.00
   -5   -8    9     -1.44      0.00
   -4   -8    9     -0.08      0.00
   -3   -8    9     -0.37      0.00
   -2   -8    9     -0.31      0.00
   -1   -8    9     -1.22      0.00
    0   -8    9     -0.70      0.00
    1   -8    9     -0.09      0.00
    2   -8    9     -0.06      0.00
    3   -8    9     -0.57      0.00
    4   -8    9      0.59      0.00
    5   -8    9     -0.47      0.00
    6   -8    9     -0.15      0.00
    7   -8    9      1.85      0.00
    8   -8    9      0.47      0.00
    9   -8    9      0.49      0.00
   10   -8    9      0.28      0.00
   -7   -7    9     -0.24      0.00
   -6   -7    9     -0.63      0.00
   -5   -7    9     -0.20      0.00
   -4   -7    9      2.07      0.00
   -3   -7    9      1.22      0.00
   -2   -7    9      1.18      0.00
   -1   -7    9      0.61      0.00
    0   -7    9     -0.80      0.00
    1   -7    9     -2.14      0.00
    2   -7    9      0.46      0.00
    3   -7    9      0.33      0.00
    4   -7    9     -1.90      0.00
    5   -7    9     -3.92      0.00
    6   -7    9      2.37      0.00
    7   -7    9      1.43      0.00
    8   -7    9     -2.89      0.00
    9   -7    9     -0.97      0.00
   10   -7    9      3.39      0.00
   -7   -6    9     -0.55      0.00
   -6   -6    9     -1.82      0.00
   -5   -6    9     -3.90      0.00
   -4   -6    9     -0.28      0.00
   -3   -6    9      0.29      0.00
   -2   -6    9     -0.24      0.00
   -1   -6    9     -1.63      0.00
    0   -6    9     -0.44      0.00
    1   -6    9     -1.04      0.00
    2   -6    9      0.00      0.00
    3   -6    9      0.61      0.00
    4   -6    9      0.88      0.00
    5   -6    9     -1.49      0.00
    6   -6    9      1.72      0.00
    7   -6    9      1.57      0.00
    8   -6    9      3.52      0.00
    9   -6    9      0.09      0.00
   10   -6    9     -0.89      0.00
   11   -6    9     -0.34      0.00
   -8   -5    9      0.88      0.00
   -7   -5    9     -0.23      0.00
   -6   -5    9     -2.43      0.00
   -5   -5    9     -1.94      0.00
   -4   -5    9      0.73      0.00
   -3   -5    9      0.82      0.00
   -2   -5    9      3.27      0.00
   -1   -5    9      1.93      0.00
    0   -5    9     -0.54      0.00
    1   -5    9     -2.12      0.00
    2   -5    9     -0.21      0.00
    3   -5    9      0.92      0.00
    4   -5    9     -0.54      0.00
    5   -5    9     -2.70      0.00
    6   -5    9      0.37      0.00
    7   -5    9     -1.16      0.00
    8   -5    9      3.68      0.00
    9   -5    9      0.65      0.00
   10   -5    9     -1.18      0.00
   11   -5    9      1.00      0.00
   -8   -4    9     -0.31      0.00
   -7   -4    9     -0.81      0.00
   -6   -4    9     -2.82      0.00
   -5   -4    9     -2.61      0.00
   -4   -4    9     -3.17      0.00
   -3   -4    9     -1.68      0.00
   -2   -4    9     -0.41      0.00
   -1   -4    9     -0.79      0.00
    0   -4    9     -1.26      0.00
    1   -4    9     -2.24      0.00
    2   -4    9     -2.38      0.00
    3   -4    9     -0.90      0.00
    4   -4    9      0.89      0.00
    5   -4    9     -0.02      0.00
    6   -4    9      0.41      0.00
    7   -4    9     -1.67      0.00
    8   -4    9      4.05      0.00
    9   -4    9      0.51      0.00
   10   -4    9     -0.43      0.00
   11   -4    9      0.25      0.00
   12   -4    9     -1.04      0.00
   -8   -3    9      1.13      0.00
   -7   -3    9     -0.91      0.00
   -6   -3    9     -2.18      0.00
   -5   -3    9      0.84      0.00
   -4   -3    9     -1.96      0.00
   -3   -3    9     -0.09      0.00
   -2   -3    9      1.22      0.00
   -1   -3    9      2.01      0.00
    0   -3    9      0.82      0.00
    1   -3    9     -0.40      0.00
    2   -3    9      0.70      0.00
    3   -3    9     -0.02      0.00
    4   -3    9      0.02      0.00
    5   -3    9      1.48      0.00
    6   -3    9      2.00      0.00
    7   -3    9     -3.12      0.00
    8   -3    9      1.24      0.00
    9   -3    9      1.33      0.00
   10   -3    9     -0.51      0.00
   11   -3    9     -1.06      0.00
   12   -3    9      0.48      0.00
   -8   -2    9      2.20      0.00
   -7   -2    9     -0.30      0.00
   -6   -2    9     -2.21      0.00
   -5   -2    9      0.76      0.00
   -4   -2    9     -0.86      0.00
   -3   -2    9      1.06      0.00
   -2   -2    9      0.27      0.00
   -1   -2    9     -0.03      0.00
    0   -2    9      0.97      0.00
    1   -2    9     -1.10      0.00
    2   -2    9     -1.08      0.00
    3   -2    9      0.20      0.00
    4   -2    9      1.23      0.00
    5   -2    9      0.42      0.00
    6   -2    9      0.94      0.00
    7   -2    9      0.13      0.00
    8   -2    9      0.96      0.00
    9   -2    9     -0.74      0.00
   10   -2    9     -1.04      0.00
   11   -2    9     -1.96      0.00
   12   -2    9     -2.75      0.00
   -9   -1    9     -0.80      0.00
   -8   -1    9     -2.71      0.00
   -7   -1    9     -0.10      0.00
   -6   -1    9     -0.18      0.00
   -5   -1    9     -0.91      0.00
   -4   -1    9     -1.49      0.00
   -3   -1    9     -0.97      0.00
   -2   -1    9     -0.85      0.00
   -1   -1    9      0.87      0.00
    0   -1    9      1.77      0.00
    1   -1    9     -0.07      0.00
    2   -1    9      0.69      0.00
    3   -1    9      0.87      0.00
    4   -1    9      0.36      0.00
    5   -1    9      0.90      0.00
    6   -1    9      1.79      0.00
    7   -1    9     -0.10      0.00
    8   -1    9     -1.60      0.00
    9   -1    9     -1.39      0.00
   10   -1    9     -1.11      0.00
   11   -1    9     -0.43      0.00
   12   -1    9     -1.11      0.00
   -9    0    9     -0.23      0.00
   -8    0    9     -4.99      0.00
   -7    0    9     -0.42      0.00
   -6    0    9      1.23      0.00
   -5    0    9      0.72      0.00
   -4    0    9      0.12      0.00
   -3    0    9      0.18      0.00
   -2    0    9     -1.64      0.00
   -1    0    9     -0.02      0.00
    0    0    9      0.78      0.00
    1    0    9     -0.63      0.00
    2    0    9     -0.82      0.00
    3    0    9     -0.03      0.00
    4    0    9      0.47      0.00
    5    0    9      0.99      0.00
    6    0    9     -0.47      0.00
    7    0    9     -1.34      0.00
    8    0    9     -0.93      0.00
    9    0    9     -0.67      0.00
   10    0    9     -0.62      0.00
   11    0    9      0.49      0.00
   12    0    9     -0.29      0.00
   -9    1    9      0.63      0.00
   -8    1    9     -8.13      0.00
   -7    1    9     -1.32      0.00
   -6    1    9     -0.15      0.00
   -5    1    9      1.05      0.00
   -4    1    9      0.56      0.00
   -3    1    9      0.45      0.00
   -2    1    9     -3.69      0.00
   -1    1    9     -0.81      0.00
    0    1    9      0.23      0.00
    1    1    9      0.17      0.00
    2    1    9     -0.12      0.00
    3    1    9      0.45      0.00
    4    1    9     -0.08      0.00
    5    1    9      0.39      0.00
    6    1    9      0.88      0.00
    7    1    9      0.91      0.00
    8    1    9     -0.42      0.00
    9    1    9     -0.36      0.00
   10    1    9     -1.61      0.00
   11    1    9     -1.15      0.00
   12    1    9     -0.95      0.00
   -9    2    9      2.98      0.00
   -8    2    9     -5.64      0.00
   -7    2    9     -1.86      0.00
   -6    2    9     -2.17      0.00
   -5    2    9     -0.02      0.00
   -4    2    9     -0.27      0.00
   -3    2    9      4.04      0.00
   -2    2    9      0.27      0.00
   -1    2    9      0.80      0.00
    0    2    9      0.74      0.00
    1    2    9     -0.23      0.00
    2    2    9     -0.63      0.00
    3    2    9     -0.30      0.00
    4    2    9      0.48      0.00
    5    2    9      1.53      0.00
    6    2    9     -0.61      0.00
    7    2    9      1.70      0.00
    8    2    9     -0.01      0.00
    9    2    9     -1.53      0.00
   10    2    9     -1.37      0.00
   11    2    9      0.80      0.00
   12    2    9      1.38      0.00
   -8    3    9     -1.73      0.00
   -7    3    9     -0.26      0.00
   -6    3    9     -2.08      0.00
   -5    3    9     -0.55      0.00
   -4    3    9     -3.93      0.00
   -3    3    9     -1.40      0.00
   -2    3    9      0.28      0.00
   -1    3    9      0.79      0.00
    0    3    9      1.11      0.00
    1    3    9     -0.56      0.00
    2    3    9     -1.65      0.00
    3    3    9     -0.31      0.00
    4    3    9     -0.30      0.00
    5    3    9     -0.19      0.00
    6    3    9     -2.18      0.00
    7    3    9     -0.73      0.00
    8    3    9     -1.29      0.00
    9    3    9      0.25      0.00
   10    3    9     -0.18      0.00
   11    3    9      0.43      0.00
   12    3    9      1.05      0.00
   -8    4    9     -1.03      0.00
   -7    4    9      1.88      0.00
   -6    4    9     -0.09      0.00
   -5    4    9     -0.95      0.00
   -4    4    9     -1.17      0.00
   -3    4    9     -0.87      0.00
   -2    4    9     -1.14      0.00
   -1    4    9     -0.08      0.00
    0    4    9      1.10      0.00
    1    4    9      1.37      0.00
    2    4    9      0.68      0.00
    3    4    9     -1.63      0.00
    4    4    9     -0.47      0.00
    5    4    9      0.36      0.00
    6    4    9     -0.85      0.00
    7    4    9      0.50      0.00
    8    4    9     -1.43      0.00
    9    4    9     -1.98      0.00
   10    4    9     -0.63      0.00
   11    4    9     -0.77      0.00
   12    4    9     -0.04      0.00
   -8    5    9     -2.16      0.00
   -7    5    9      1.20      0.00
   -6    5    9      2.62      0.00
   -5    5    9     -0.57      0.00
   -4    5    9     -5.19      0.00
   -2    5    9      0.94      0.00
   -1    5    9     -0.55      0.00
    0    5    9     -0.43      0.00
    1    5    9     -0.25      0.00
    2    5    9      1.02      0.00
    3    5    9      1.00      0.00
    4    5    9      1.22      0.00
    5    5    9     -1.11      0.00
    6    5    9     -0.21      0.00
    7    5    9     -0.47      0.00
    8    5    9     -0.66      0.00
    9    5    9     -1.72      0.00
   10    5    9      0.46      0.00
   11    5    9      1.31      0.00
   12    5    9      0.67      0.00
   -8    6    9     -1.40      0.00
   -7    6    9      0.43      0.00
   -6    6    9     -4.80      0.00
   -5    6    9     -3.60      0.00
   -4    6    9     -5.80      0.00
   -3    6    9      1.59      0.00
   -2    6    9     -1.23      0.00
   -1    6    9      0.19      0.00
    0    6    9      0.51      0.00
    1    6    9      0.35      0.00
    2    6    9      0.21      0.00
    3    6    9      0.04      0.00
    4    6    9      3.04      0.00
    5    6    9     -0.28      0.00
    6    6    9      1.19      0.00
    7    6    9      0.06      0.00
    8    6    9     -1.65      0.00
    9    6    9     -2.95      0.00
   10    6    9     -2.61      0.00
   11    6    9     -1.81      0.00
   -7    7    9      4.68      0.00
   -6    7    9      0.96      0.00
   -5    7    9      1.60      0.00
   -4    7    9     -6.32      0.00
   -3    7    9      2.57      0.00
   -2    7    9     -0.19      0.00
   -1    7    9      0.12      0.00
    0    7    9      0.09      0.00
    1    7    9      0.76      0.00
    2    7    9     -0.28      0.00
    3    7    9     -1.55      0.00
    4    7    9      0.54      0.00
    5    7    9     -1.08      0.00
    6    7    9      0.45      0.00
    7    7    9      1.53      0.00
    8    7    9      0.58      0.00
    9    7    9     -0.19      0.00
   10    7    9      1.22      0.00
   11    7    9      1.22      0.00
   -7    8    9      3.49      0.00
   -6    8    9     -5.18      0.00
   -5    8    9     -2.17      0.00
   -4    8    9     -5.92      0.00
   -3    8    9      0.50      0.00
   -2    8    9      0.21      0.00
   -1    8    9      1.10      0.00
    0    8    9     -1.99      0.00
    1    8    9      0.63      0.00
    2    8    9      1.67      0.00
    3    8    9      0.14      0.00
    4    8    9      0.39      0.00
    5    8    9     -0.28      0.00
    6    8    9     -1.15      0.00
    7    8    9     -0.22      0.00
    8    8    9      0.83      0.00
    9    8    9      0.00      0.00
   10    8    9     -3.26      0.00
   11    8    9     -2.02      0.00
   -6    9    9     -3.76      0.00
   -5    9    9     -2.46      0.00
   -4    9    9     -2.98      0.00
   -3    9    9      0.05      0.00
   -2    9    9     -1.16      0.00
   -1    9    9      1.51      0.00
    0    9    9     -1.28      0.00
    1    9    9     -0.34      0.00
    2    9    9      0.80      0.00
    3    9    9     -1.36      0.00
    4    9    9     -0.79      0.00
    5    9    9      0.92      0.00
    6    9    9     -0.73      0.00
    7    9    9      0.27      0.00
    8    9    9      0.95      0.00
    9    9    9      1.40      0.00
   10    9    9      2.61      0.00
   -6   10    9     -0.56      0.00
   -5   10    9     -1.08      0.00
   -4   10    9     -1.71      0.00
   -3   10    9     -1.14      0.00
   -2   10    9     -1.40      0.00
   -1   10    9      0.89      0.00
    0   10    9     -1.29      0.00
    1   10    9     -2.51      0.00
    2   10    9      0.52      0.00
    3   10    9     -0.27      0.00
    4   10    9     -0.96      0.00
    5   10    9      0.34      0.00
    6   10    9     -0.76      0.00
    7   10    9     -0.53      0.00
    8   10    9      0.68      0.00
    9   10    9     -0.49      0.00
   -5   11    9     -0.19      0.00
   -4   11    9     -0.14      0.00
   -3   11    9     -0.11      0.00
   -2   11    9      0.89      0.00
   -1   11    9     -0.94      0.00
    0   11    9     -1.45      0.00
    1   11    9     -0.99      0.00
    2   11    9      1.57      0.00
    3   11    9     -0.02      0.00
    4   11    9      0.38      0.00
    5   11    9      0.40      0.00
    6   11    9     -0.83      0.00
    7   11    9      1.61      0.00
    8   11    9      1.91      0.00
    9   11    9      1.05      0.00
   -4   12    9     -0.85      0.00
   -3   12    9     -1.60      0.00
   -2   12    9      1.97      0.00
   -1   12    9      0.09      0.00
    0   12    9     -0.13      0.00
    1   12    9     -2.11      0.00
    2   12    9     -0.15      0.00
    3   12    9      0.68      0.00
    4   12    9      0.64      0.00
    5   12    9      0.23      0.00
    6   12    9     -1.28      0.00
    7   12    9     -0.10      0.00
   -2   13    9      0.99      0.00
   -1   13    9     -0.90      0.00
    0   13    9     -0.28      0.00
    1   13    9     -0.31      0.00
    2   13    9      0.03      0.00
    3   13    9      0.46      0.00
    4   13    9      0.53      0.00
    5   13    9     -0.33      0.00
    6   13    9     -0.86      0.00
    0   14    9     -0.30      0.00
    1   14    9     -0.89      0.00
    2   14    9     -0.13      0.00
    3   14    9      1.38      0.00
    4   14    9      2.20      0.00
    0  -12   10     -2.29      0.00
    1  -12   10     -0.63      0.00
    2  -12   10     -0.46      0.00
    3  -12   10     -0.93      0.00
    4  -12   10      5.43      0.00
   -2  -11   10     -1.47      0.00
   -1  -11   10      2.37      0.00
    0  -11   10     -0.77      0.00
    1  -11   10     -0.23      0.00
    2  -11   10      2.61      0.00
    3  -11   10      0.03      0.00
    4  -11   10      3.21      0.00
    5  -11   10     -2.80      0.00
    6  -11   10      0.75      0.00
   -4  -10   10     -1.20      0.00
   -3  -10   10      2.91      0.00
   -2  -10   10     -0.78      0.00
   -1  -10   10      1.83      0.00
    0  -10   10      0.50      0.00
    1  -10   10     -1.62      0.00
    2  -10   10     -0.05      0.00
    3  -10   10      2.14      0.00
    4  -10   10      9.06      0.00
    5  -10   10      0.38      0.00
    6  -10   10      0.20      0.00
    7  -10   10     -1.56      0.00
    8  -10   10      2.29      0.00
   -5   -9   10     -0.10      0.00
   -4   -9   10     -0.39      0.00
   -3   -9   10      2.56      0.00
   -2   -9   10      0.72      0.00
   -1   -9   10      1.92      0.00
    0   -9   10      2.14      0.00
    1   -9   10     -0.20      0.00
    2   -9   10      0.67      0.00
    3   -9   10      0.18      0.00
    4   -9   10      1.98      0.00
    5   -9   10     -0.08      0.00
    6   -9   10      3.16      0.00
    7   -9   10     -1.92      0.00
    8   -9   10     -1.52      0.00
   -6   -8   10      1.11      0.00
   -5   -8   10      0.01      0.00
   -4   -8   10     -1.21      0.00
   -3   -8   10     -0.32      0.00
   -2   -8   10     -0.61      0.00
   -1   -8   10     -1.71      0.00
    0   -8   10      0.54      0.00
    1   -8   10      0.65      0.00
    2   -8   10     -1.19      0.00
    3   -8   10     -0.13      0.00
    4   -8   10      2.80      0.00
    5   -8   10      1.63      0.00
    6   -8   10     -0.90      0.00
    7   -8   10     -1.45      0.00
    8   -8   10      2.60      0.00
    9   -8   10      1.08      0.00
   -6   -7   10      0.89      0.00
   -5   -7   10      1.30      0.00
   -4   -7   10      0.79      0.00
   -3   -7   10      0.23      0.00
   -2   -7   10      1.39      0.00
   -1   -7   10      0.65      0.00
    0   -7   10      0.33      0.00
    1   -7   10      1.22      0.00
    2   -7   10     -0.75      0.00
    3   -7   10     -0.54      0.00
    4   -7   10      0.14      0.00
    5   -7   10      1.14      0.00
    6   -7   10     -1.72      0.00
    7   -7   10     -2.46      0.00
    8   -7   10     -2.70      0.00
    9   -7   10      1.18      0.00
   10   -7   10      1.49      0.00
   -7   -6   10      0.45      0.00
   -6   -6   10      2.19      0.00
   -5   -6   10      1.08      0.00
   -4   -6   10     -1.30      0.00
   -3   -6   10     -0.84      0.00
   -2   -6   10     -1.10      0.00
   -1   -6   10     -1.94      0.00
    0   -6   10      0.36      0.00
    1   -6   10      2.30      0.00
    2   -6   10     -1.38      0.00
    3   -6   10     -1.34      0.00
    4   -6   10      2.05      0.00
    5   -6   10      4.09      0.00
    6   -6   10     -1.65      0.00
    7   -6   10     -0.32      0.00
    8   -6   10     -2.19      0.00
    9   -6   10      0.96      0.00
   10   -6   10      1.63      0.00
   -7   -5   10      1.08      0.00
   -6   -5   10      1.05      0.00
   -5   -5   10      1.95      0.00
   -4   -5   10      2.49      0.00
   -3   -5   10      0.65      0.00
   -2   -5   10     -0.01      0.00
   -1   -5   10     -0.21      0.00
    0   -5   10      1.54      0.00
    1   -5   10      2.01      0.00
    2   -5   10      0.19      0.00
    3   -5   10     -1.02      0.00
    4   -5   10     -0.59      0.00
    5   -5   10      1.80      0.00
    6   -5   10     -1.15      0.00
    7   -5   10     -0.45      0.00
    8   -5   10     -6.65      0.00
    9   -5   10     -1.25      0.00
   10   -5   10      1.93      0.00
   11   -5   10     -0.81      0.00
   -7   -4   10      0.35      0.00
   -6   -4   10      1.96      0.00
   -5   -4   10     -0.08      0.00
   -4   -4   10      1.23      0.00
   -3   -4   10     -0.87      0.00
   -2   -4   10     -1.25      0.00
   -1   -4   10     -3.04      0.00
    0   -4   10      0.37      0.00
    1   -4   10      1.68      0.00
    2   -4   10      0.52      0.00
    3   -4   10     -0.30      0.00
    4   -4   10      0.63      0.00
    5   -4   10      0.61      0.00
    6   -4   10     -1.27      0.00
    7   -4   10      4.06      0.00
    8   -4   10     -3.21      0.00
    9   -4   10     -2.51      0.00
   10   -4   10      0.41      0.00
   11   -4   10      0.83      0.00
   -8   -3   10     -1.09      0.00
   -7   -3   10      0.70      0.00
   -6   -3   10      1.08      0.00
   -5   -3   10     -2.00      0.00
   -4   -3   10      1.68      0.00
   -3   -3   10     -0.68      0.00
   -2   -3   10      0.19      0.00
   -1   -3   10     -0.81      0.00
    0   -3   10     -0.15      0.00
    1   -3   10      0.03      0.00
    2   -3   10      0.93      0.00
    3   -3   10     -1.07      0.00
    4   -3   10     -1.62      0.00
    5   -3   10      0.75      0.00
    6   -3   10     -0.67      0.00
    7   -3   10      0.26      0.00
    8   -3   10     -2.84      0.00
    9   -3   10      0.80      0.00
   10   -3   10     -0.31      0.00
   11   -3   10      1.51      0.00
   12   -3   10      2.23      0.00
   -8   -2   10      1.70      0.00
   -7   -2   10      1.68      0.00
   -6   -2   10      1.19      0.00
   -5   -2   10     -0.22      0.00
   -4   -2   10      1.48      0.00
   -3   -2   10     -0.87      0.00
   -2   -2   10     -1.05      0.00
   -1   -2   10     -1.22      0.00
    0   -2   10     -1.05      0.00
    1   -2   10     -0.94      0.00
    2   -2   10     -0.11      0.00
    3   -2   10     -0.77      0.00
    4   -2   10     -0.68      0.00
    5   -2   10     -0.61      0.00
    6   -2   10     -2.40      0.00
    7   -2   10      0.62      0.00
    8   -2   10      1.60      0.00
    9   -2   10      1.63      0.00
   10   -2   10     -1.63      0.00
   11   -2   10      0.09      0.00
   12   -2   10      1.26      0.00
   -8   -1   10      1.66      0.00
   -7   -1   10      0.25      0.00
   -6   -1   10     -0.42      0.00
   -5   -1   10     -0.97      0.00
   -4   -1   10     -0.69      0.00
   -3   -1   10     -0.61      0.00
   -2   -1   10     -2.02      0.00
   -1   -1   10     -1.36      0.00
    0   -1   10     -0.69      0.00
    1   -1   10      0.21      0.00
    2   -1   10      1.58      0.00
    3   -1   10     -1.28      0.00
    4   -1   10     -2.61      0.00
    5   -1   10      0.47      0.00
    6   -1   10      1.28      0.00
    7   -1   10      1.06      0.00
    8   -1   10      1.15      0.00
    9   -1   10      1.09      0.00
   10   -1   10     -0.32      0.00
   11   -1   10      0.22      0.00
   12   -1   10      1.09      0.00
   -8    0   10      6.04      0.00
   -7    0   10     -0.54      0.00
   -6    0   10     -1.35      0.00
   -5    0   10      0.31      0.00
   -4    0   10      0.19      0.00
   -3    0   10      1.83      0.00
   -2    0   10      1.54      0.00
   -1    0   10      0.09      0.00
    0    0   10     -0.58      0.00
    1    0   10     -1.60      0.00
    2    0   10      0.55      0.00
    3    0   10     -0.51      0.00
    4    0   10     -1.90      0.00
    5    0   10     -0.49      0.00
    6    0   10     -1.48      0.00
    7    0   10     -1.04      0.00
    8    0   10      1.48      0.00
    9    0   10      1.93      0.00
   10    0   10      2.59      0.00
   11    0   10      0.41      0.00
   12    0   10      0.42      0.00
   -7    1   10      3.39      0.00
   -6    1   10      1.87      0.00
   -5    1   10      0.14      0.00
   -4    1   10     -0.44      0.00
   -3    1   10     -2.31      0.00
   -2    1   10     -0.78      0.00
   -1    1   10     -1.23      0.00
    0    1   10      0.01      0.00
    1    1   10     -0.19      0.00
    2    1   10      1.54      0.00
    3    1   10      0.29      0.00
    4    1   10     -1.87      0.00
    5    1   10     -1.62      0.00
    6    1   10     -0.77      0.00
    7    1   10     -1.14      0.00
    8    1   10      0.65      0.00
    9    1   10      1.25      0.00
   10    1   10      2.07      0.00
   11    1   10     -1.68      0.00
   12    1   10     -2.04      0.00
   -8    2   10      3.79      0.00
   -7    2   10      0.42      0.00
   -6    2   10      2.18      0.00
   -5    2   10     -0.69      0.00
   -4    2   10      3.25      0.00
   -3    2   10      2.10      0.00
   -2    2   10      0.96      0.00
   -1    2   10     -0.91      0.00
    0    2   10      0.08      0.00
    1    2   10     -0.17      0.00
    2    2   10      2.08      0.00
    3    2   10      0.34      0.00
    4    2   10     -0.81      0.00
    5    2   10     -0.46      0.00
    6    2   10      0.46      0.00
    7    2   10     -0.54      0.00
    8    2   10      0.47      0.00
    9    2   10     -0.53      0.00
   10    2   10      2.30      0.00
   11    2   10      0.13      0.00
   12    2   10     -0.79      0.00
   -8    3   10      1.51      0.00
   -7    3   10     -2.01      0.00
   -6    3   10      0.33      0.00
   -5    3   10     -0.95      0.00
   -4    3   10      1.24      0.00
   -3    3   10     -1.45      0.00
   -2    3   10     -1.05      0.00
   -1    3   10     -0.52      0.00
    0    3   10     -0.01      0.00
    1    3   10     -1.83      0.00
    2    3   10      0.54      0.00
    3    3   10      2.08      0.00
    4    3   10      0.27      0.00
    5    3   10     -0.55      0.00
    6    3   10      1.34      0.00
    7    3   10     -2.26      0.00
    8    3   10     -0.76      0.00
    9    3   10      1.39      0.00
   10    3   10      2.52      0.00
   11    3   10      0.76      0.00
   12    3   10      0.01      0.00
   -8    4   10      0.71      0.00
   -7    4   10     -0.63      0.00
   -6    4   10     -0.40      0.00
   -5    4   10     -1.29      0.00
   -4    4   10      5.13      0.00
   -3    4   10      0.54      0.00
   -2    4   10     -2.94      0.00
   -1    4   10     -0.92      0.00
    0    4   10      0.40      0.00
    1    4   10     -0.50      0.00
    2    4   10      0.47      0.00
    3    4   10      0.42      0.00
    4    4   10     -0.97      0.00
    5    4   10      0.60      0.00
    6    4   10      1.20      0.00
    7    4   10      0.11      0.00
    8    4   10     -0.52      0.00
    9    4   10     -0.17      0.00
   10    4   10     -0.55      0.00
   11    4   10     -1.24      0.00
   12    4   10     -0.61      0.00
   -8    5   10      1.48      0.00
   -7    5   10     -0.37      0.00
   -6    5   10      1.77      0.00
   -5    5   10      0.30      0.00
   -3    5   10      2.36      0.00
   -2    5   10      1.05      0.00
   -1    5   10      0.10      0.00
    0    5   10     -0.26      0.00
    1    5   10     -1.07      0.00
    2    5   10     -0.85      0.00
    3    5   10      0.84      0.00
    4    5   10     -2.92      0.00
    5    5   10      0.39      0.00
    6    5   10     -0.66      0.00
    7    5   10      0.18      0.00
    8    5   10      1.18      0.00
    9    5   10      1.57      0.00
   10    5   10      0.33      0.00
   11    5   10      1.39      0.00
   12    5   10     -0.39      0.00
   -7    6   10     -2.36      0.00
   -6    6   10     -1.96      0.00
   -5    6   10     -4.68      0.00
   -3    6   10     -1.85      0.00
   -2    6   10     -0.26      0.00
   -1    6   10      1.53      0.00
    0    6   10      0.17      0.00
    1    6   10      0.28      0.00
    2    6   10      0.17      0.00
    3    6   10      1.25      0.00
    4    6   10     -1.74      0.00
    5    6   10      2.38      0.00
    6    6   10     -0.99      0.00
    7    6   10     -0.54      0.00
    8    6   10      0.25      0.00
    9    6   10      0.81      0.00
   10    6   10     -1.80      0.00
   11    6   10     -1.76      0.00
   -7    7   10     -1.13      0.00
   -6    7   10      5.31      0.00
   -5    7   10     -0.13      0.00
   -4    7   10      3.43      0.00
   -3    7   10     -2.05      0.00
   -2    7   10     -0.63      0.00
   -1    7   10      0.12      0.00
    0    7   10      0.88      0.00
    1    7   10     -0.18      0.00
    2    7   10     -0.76      0.00
    3    7   10      0.51      0.00
    4    7   10     -2.57      0.00
    5    7   10      0.54      0.00
    6    7   10     -0.62      0.00
    7    7   10     -0.09      0.00
    8    7   10     -0.05      0.00
    9    7   10      0.71      0.00
   10    7   10      2.89      0.00
   11    7   10      2.17      0.00
   -6    8   10      4.13      0.00
   -5    8   10      2.81      0.00
   -4    8   10      2.08      0.00
   -3    8   10     -2.35      0.00
   -2    8   10      0.96      0.00
   -1    8   10     -1.08      0.00
    0    8   10     -0.31      0.00
    1    8   10     -0.12      0.00
    2    8   10     -0.46      0.00
    3    8   10      1.86      0.00
    4    8   10      1.62      0.00
    5    8   10      0.29      0.00
    6    8   10     -0.40      0.00
    7    8   10     -0.47      0.00
    8    8   10     -1.07      0.00
    9    8   10     -0.48      0.00
   10    8   10     -1.20      0.00
   -6    9   10      2.33      0.00
   -5    9   10      3.24      0.00
   -4    9   10      2.20      0.00
   -3    9   10      0.56      0.00
   -2    9   10      1.92      0.00
   -1    9   10     -0.98      0.00
    0    9   10      1.79      0.00
    1    9   10      1.73      0.00
    2    9   10     -0.97      0.00
    3    9   10     -0.76      0.00
    4    9   10      1.20      0.00
    5    9   10      0.29      0.00
    6    9   10      0.73      0.00
    7    9   10      1.28      0.00
    8    9   10     -1.40      0.00
    9    9   10     -0.15      0.00
   10    9   10      1.98      0.00
   -5   10   10      1.94      0.00
   -4   10   10     -1.20      0.00
   -3   10   10     -1.46      0.00
   -2   10   10      1.17      0.00
   -1   10   10     -0.15      0.00
    0   10   10      1.05      0.00
    1   10   10      0.74      0.00
    2   10   10     -1.24      0.00
    3   10   10      0.06      0.00
    4   10   10      0.54      0.00
    5   10   10     -0.75      0.00
    6   10   10      0.33      0.00
    7   10   10     -0.51      0.00
    8   10   10     -2.04      0.00
    9   10   10     -0.64      0.00
   -4   11   10      0.50      0.00
   -3   11   10     -0.10      0.00
   -2   11   10     -1.10      0.00
   -1   11   10     -0.68      0.00
    0   11   10     -0.71      0.00
    1   11   10      0.84      0.00
    2   11   10     -0.36      0.00
    3   11   10      0.03      0.00
    4   11   10      0.50      0.00
    5   11   10     -0.44      0.00
    6   11   10      1.05      0.00
    7   11   10      0.14      0.00
    8   11   10     -0.62      0.00
   -3   12   10      1.67      0.00
   -2   12   10     -0.82      0.00
   -1   12   10      1.12      0.00
    0   12   10     -0.37      0.00
    1   12   10     -0.73      0.00
    2   12   10     -1.55      0.00
    3   12   10     -0.51      0.00
    4   12   10      0.24      0.00
    5   12   10     -0.26      0.00
    6   12   10      1.33      0.00
    7   12   10     -1.36      0.00
   -1   13   10      0.11      0.00
    0   13   10     -0.33      0.00
    1   13   10      0.46      0.00
    2   13   10     -0.91      0.00
    3   13   10     -2.25      0.00
    4   13   10     -1.60      0.00
    5   13   10     -1.20      0.00
    6   13   10      1.31      0.00
   -1  -11   11     -1.08      0.00
    0  -11   11      0.68      0.00
    1  -11   11      1.07      0.00
    2  -11   11     -1.35      0.00
    3  -11   11     -2.39      0.00
    4  -11   11     -7.57      0.00
    5  -11   11      0.70      0.00
   -3  -10   11     -4.65      0.00
   -2  -10   11     -0.72      0.00
   -1  -10   11     -1.35      0.00
    0  -10   11     -0.70      0.00
    1  -10   11      0.59      0.00
    2  -10   11     -1.95      0.00
    3  -10   11     -0.73      0.00
    4  -10   11     -2.87      0.00
    5  -10   11      1.06      0.00
    6  -10   11     -1.77      0.00
    7  -10   11      2.25      0.00
   -4   -9   11      1.15      0.00
   -3   -9   11     -1.20      0.00
   -2   -9   11     -0.72      0.00
   -1   -9   11     -0.01      0.00
    0   -9   11     -0.75      0.00
    1   -9   11      0.94      0.00
    2   -9   11      0.80      0.00
    3   -9   11     -1.43      0.00
    4   -9   11     -4.76      0.00
    5   -9   11     -0.79      0.00
    6   -9   11      0.45      0.00
    7   -9   11      1.90      0.00
    8   -9   11     -1.18      0.00
   -5   -8   11      0.83      0.00
   -4   -8   11      0.10      0.00
   -3   -8   11     -0.04      0.00
   -2   -8   11     -0.82      0.00
   -1   -8   11      0.21      0.00
    0   -8   11     -0.51      0.00
    1   -8   11     -1.30      0.00
    2   -8   11      0.94      0.00
    3   -8   11      0.75      0.00
    4   -8   11     -0.79      0.00
    5   -8   11     -1.07      0.00
    6   -8   11     -0.21      0.00
    7   -8   11      2.44      0.00
    8   -8   11      2.62      0.00
    9   -8   11     -1.12      0.00
   -5   -7   11     -1.18      0.00
   -4   -7   11     -0.35      0.00
   -3   -7   11     -0.31      0.00
   -2   -7   11     -0.84      0.00
   -1   -7   11      1.03      0.00
    0   -7   11      0.19      0.00
    1   -7   11     -1.89      0.00
    2   -7   11      1.37      0.00
    3   -7   11      0.36      0.00
    4   -7   11     -1.56      0.00
    5   -7   11     -1.71      0.00
    6   -7   11      1.32      0.00
    7   -7   11      0.47      0.00
    8   -7   11      0.05      0.00
    9   -7   11     -1.68      0.00
   10   -7   11     -0.22      0.00
   -6   -6   11      1.12      0.00
   -5   -6   11     -0.15      0.00
   -4   -6   11     -2.10      0.00
   -3   -6   11     -0.63      0.00
   -2   -6   11      0.29      0.00
   -1   -6   11      0.51      0.00
    0   -6   11     -1.10      0.00
    1   -6   11     -1.91      0.00
    2   -6   11      1.41      0.00
    3   -6   11      1.12      0.00
    4   -6   11     -0.54      0.00
    5   -6   11     -1.34      0.00
    6   -6   11      2.12      0.00
    7   -6   11      2.93      0.00
    8   -6   11      5.44      0.00
    9   -6   11     -0.01      0.00
   10   -6   11     -2.51      0.00
   -6   -5   11     -0.67      0.00
   -5   -5   11     -0.28      0.00
   -4   -5   11      0.31      0.00
   -3   -5   11      1.27      0.00
   -2   -5   11      1.00      0.00
   -1   -5   11      2.78      0.00
    0   -5   11     -1.16      0.00
    1   -5   11     -2.56      0.00
    2   -5   11      0.63      0.00
    3   -5   11      1.10      0.00
    4   -5   11     -2.31      0.00
    5   -5   11     -2.28      0.00
    6   -5   11      1.17      0.00
    7   -5   11     -1.61      0.00
    8   -5   11      4.15      0.00
    9   -5   11      1.77      0.00
   10   -5   11     -2.51      0.00
   11   -5   11     -1.08      0.00
   -7   -4   11     -1.08      0.00
   -6   -4   11      0.97      0.00
   -5   -4   11      1.43      0.00
   -4   -4   11     -2.65      0.00
   -3   -4   11     -0.74      0.00
   -2   -4   11     -0.56      0.00
   -1   -4   11      1.76      0.00
    0   -4   11     -0.88      0.00
    1   -4   11     -0.80      0.00
    2   -4   11     -0.14      0.00
    3   -4   11      2.09      0.00
    4   -4   11      1.24      0.00
    5   -4   11     -1.22      0.00
    6   -4   11     -0.55      0.00
    7   -4   11     -0.56      0.00
    8   -4   11      5.54      0.00
    9   -4   11      0.56      0.00
   10   -4   11      0.44      0.00
   11   -4   11     -0.27      0.00
   -7   -3   11     -1.07      0.00
   -5   -3   11      0.74      0.00
   -4   -3   11     -1.77      0.00
   -3   -3   11      1.09      0.00
   -2   -3   11      0.83      0.00
   -1   -3   11      1.70      0.00
    0   -3   11      0.57      0.00
    1   -3   11      0.56      0.00
    2   -3   11     -1.10      0.00
    3   -3   11     -0.66      0.00
    4   -3   11     -0.53      0.00
    5   -3   11      1.83      0.00
    6   -3   11      3.16      0.00
    7   -3   11     -1.39      0.00
    8   -3   11      0.86      0.00
    9   -3   11     -0.51      0.00
   10   -3   11      2.76      0.00
   11   -3   11     -0.20      0.00
   -7   -2   11     -0.55      0.00
   -6   -2   11      1.70      0.00
   -5   -2   11      2.69      0.00
   -4   -2   11      1.36      0.00
   -3   -2   11      0.39      0.00
   -2   -2   11      1.70      0.00
   -1   -2   11      0.41      0.00
    0   -2   11      0.19      0.00
    1   -2   11      0.64      0.00
    2   -2   11     -0.27      0.00
    3   -2   11      2.00      0.00
    4   -2   11      1.01      0.00
    5   -2   11     -2.11      0.00
    6   -2   11     -1.24      0.00
    7   -2   11      0.16      0.00
    8   -2   11      1.22      0.00
    9   -2   11     -0.46      0.00
   10   -2   11      1.79      0.00
   11   -2   11     -1.48      0.00
   12   -2   11     -1.84      0.00
   -7   -1   11      0.37      0.00
   -6   -1   11      2.18      0.00
   -5   -1   11      0.11      0.00
   -4   -1   11      1.00      0.00
   -3   -1   11     -1.94      0.00
   -2   -1   11      1.07      0.00
   -1   -1   11     -0.85      0.00
    0   -1   11      0.09      0.00
    1   -1   11      1.76      0.00
    2   -1   11      0.06      0.00
    3   -1   11      1.16      0.00
    4   -1   11      2.07      0.00
    5   -1   11     -0.33      0.00
    6   -1   11      0.42      0.00
    7   -1   11      0.75      0.00
    8   -1   11     -0.83      0.00
    9   -1   11     -1.42      0.00
   10   -1   11     -1.16      0.00
   11   -1   11      0.08      0.00
   12   -1   11     -0.25      0.00
   -8    0   11     -6.82      0.00
   -7    0   11     -3.13      0.00
   -6    0   11     -1.24      0.00
   -5    0   11     -1.06      0.00
   -4    0   11      2.28      0.00
   -3    0   11      0.90      0.00
   -2    0   11      3.83      0.00
   -1    0   11      1.10      0.00
    0    0   11     -0.37      0.00
    1    0   11     -0.50      0.00
    2    0   11     -1.94      0.00
    3    0   11      0.46      0.00
    4    0   11      3.23      0.00
    5    0   11      0.93      0.00
    6    0   11      0.88      0.00
    7    0   11      0.00      0.00
    8    0   11     -1.28      0.00
    9    0   11      1.13      0.00
   10    0   11     -0.50      0.00
   11    0   11      1.47      0.00
   12    0   11      1.82      0.00
   -8    1   11     -4.64      0.00
   -7    1   11      0.70      0.00
   -6    1   11     -0.51      0.00
   -5    1   11     -0.17      0.00
   -4    1   11     -2.05      0.00
   -3    1   11     -4.98      0.00
   -2    1   11     -1.05      0.00
   -1    1   11      0.03      0.00
    0    1   11     -0.86      0.00
    1    1   11     -0.01      0.00
    2    1   11     -2.00      0.00
    3    1   11     -0.56      0.00
    4    1   11      1.87      0.00
    5    1   11      0.42      0.00
    6    1   11      0.86      0.00
    7    1   11      0.29      0.00
    8    1   11      0.17      0.00
    9    1   11      3.41      0.00
   10    1   11     -1.71      0.00
   11    1   11      0.54      0.00
   12    1   11      1.75      0.00
   -7    2   11      0.21      0.00
   -6    2   11     -1.17      0.00
   -5    2   11      0.59      0.00
   -4    2   11     -0.02      0.00
   -1    2   11      0.58      0.00
    0    2   11     -0.73      0.00
    1    2   11      1.19      0.00
    2    2   11     -1.13      0.00
    3    2   11     -1.60      0.00
    4    2   11      0.51      0.00
    5    2   11      0.24      0.00
    6    2   11     -0.75      0.00
    7    2   11      1.61      0.00
    8    2   11     -0.39      0.00
    9    2   11     -0.90      0.00
   10    2   11     -3.23      0.00
   11    2   11      0.94      0.00
   12    2   11      1.29      0.00
   -7    3   11      0.98      0.00
   -6    3   11     -1.57      0.00
   -5    3   11      1.85      0.00
   -4    3   11     -1.71      0.00
   -1    3   11      1.57      0.00
    0    3   11     -0.70      0.00
    1    3   11      0.65      0.00
    2    3   11     -1.78      0.00
    3    3   11     -1.46      0.00
    4    3   11      1.03      0.00
    5    3   11      1.10      0.00
    6    3   11     -0.66      0.00
    7    3   11      0.69      0.00
    8    3   11     -0.16      0.00
    9    3   11      0.56      0.00
   10    3   11     -1.11      0.00
   11    3   11      0.82      0.00
   12    3   11     -0.14      0.00
   -7    4   11      2.26      0.00
   -6    4   11      0.77      0.00
   -5    4   11      0.09      0.00
   -4    4   11     -5.02      0.00
   -2    4   11      1.67      0.00
   -1    4   11      0.74      0.00
    0    4   11     -1.03      0.00
    1    4   11      1.45      0.00
    2    4   11      0.93      0.00
    3    4   11     -1.75      0.00
    4    4   11      1.09      0.00
    5    4   11      0.04      0.00
    6    4   11     -0.76      0.00
    7    4   11      1.82      0.00
    8    4   11      0.84      0.00
    9    4   11     -0.29      0.00
   10    4   11     -0.59      0.00
   11    4   11     -1.31      0.00
   12    4   11     -1.34      0.00
   -7    5   11      0.83      0.00
   -6    5   11      2.16      0.00
   -5    5   11      4.07      0.00
   -4    5   11     -3.57      0.00
   -3    5   11     -1.20      0.00
   -2    5   11      3.17      0.00
   -1    5   11     -0.64      0.00
    0    5   11     -0.81      0.00
    1    5   11     -0.25      0.00
    2    5   11      0.26      0.00
    3    5   11     -0.61      0.00
    4    5   11      1.68      0.00
    5    5   11     -2.15      0.00
    6    5   11     -0.43      0.00
    7    5   11      0.20      0.00
    8    5   11      0.30      0.00
    9    5   11      0.45      0.00
   10    5   11      2.24      0.00
   11    5   11      1.77      0.00
   -7    6   11      0.11      0.00
   -6    6   11     -1.89      0.00
   -5    6   11      2.79      0.00
   -4    6   11     -1.69      0.00
   -2    6   11      0.91      0.00
   -1    6   11     -0.15      0.00
    0    6   11      0.16      0.00
    1    6   11     -0.40      0.00
    2    6   11      0.01      0.00
    3    6   11     -0.41      0.00
    4    6   11      4.14      0.00
    5    6   11      0.13      0.00
    6    6   11      1.27      0.00
    7    6   11      0.00      0.00
    8    6   11     -1.03      0.00
    9    6   11     -0.26      0.00
   10    6   11     -0.66      0.00
   11    6   11     -2.76      0.00
   -6    7   11     -0.71      0.00
   -5    7   11      0.73      0.00
   -4    7   11      0.77      0.00
   -3    7   11      1.02      0.00
   -2    7   11     -0.50      0.00
   -1    7   11     -0.76      0.00
    0    7   11      2.09      0.00
    1    7   11      0.19      0.00
    2    7   11     -0.51      0.00
    3    7   11     -1.61      0.00
    4    7   11     -1.04      0.00
    5    7   11     -0.90      0.00
    6    7   11      1.77      0.00
    7    7   11      0.81      0.00
    8    7   11      0.01      0.00
    9    7   11     -0.10      0.00
   10    7   11      1.82      0.00
   11    7   11      1.12      0.00
   -6    8   11     -2.94      0.00
   -5    8   11     -2.09      0.00
   -4    8   11      1.26      0.00
   -3    8   11      0.51      0.00
   -2    8   11     -0.68      0.00
   -1    8   11     -0.48      0.00
    0    8   11     -0.98      0.00
    1    8   11     -0.69      0.00
    2    8   11      0.51      0.00
    3    8   11      1.54      0.00
    4    8   11     -0.51      0.00
    5    8   11     -0.49      0.00
    6    8   11      0.42      0.00
    7    8   11     -0.45      0.00
    8    8   11      1.68      0.00
    9    8   11      1.09      0.00
   10    8   11     -0.61      0.00
   -5    9   11     -3.71      0.00
   -4    9   11      1.73      0.00
   -3    9   11      1.68      0.00
   -2    9   11     -1.76      0.00
   -1    9   11      0.25      0.00
    0    9   11      0.00      0.00
    1    9   11     -0.39      0.00
    2    9   11     -0.25      0.00
    3    9   11      0.39      0.00
    4    9   11     -1.77      0.00
    5    9   11     -0.15      0.00
    6    9   11      0.65      0.00
    7    9   11     -0.24      0.00
    8    9   11      1.27      0.00
    9    9   11     -0.24      0.00
   10    9   11     -0.33      0.00
   -4   10   11      0.23      0.00
   -3   10   11     -0.67      0.00
   -2   10   11     -1.21      0.00
   -1   10   11      0.62      0.00
    0   10   11      0.64      0.00
    1   10   11      0.03      0.00
    2   10   11     -0.84      0.00
    3   10   11      0.17      0.00
    4   10   11     -0.72      0.00
    5   10   11     -0.71      0.00
    6   10   11     -0.46      0.00
    7   10   11     -0.69      0.00
    8   10   11      0.91      0.00
    9   10   11      0.27      0.00
   -3   11   11     -0.04      0.00
   -2   11   11     -0.89      0.00
   -1   11   11     -1.13      0.00
    0   11   11      0.32      0.00
    1   11   11      1.38      0.00
    2   11   11      0.82      0.00
    3   11   11     -0.13      0.00
    4   11   11      0.03      0.00
    5   11   11      0.23      0.00
    6   11   11     -0.56      0.00
    7   11   11      1.10      0.00
    8   11   11      1.24      0.00
   -2   12   11      2.02      0.00
   -1   12   11      0.03      0.00
    0   12   11      0.66      0.00
    1   12   11      0.34      0.00
    2   12   11      0.58      0.00
    3   12   11      1.06      0.00
    4   12   11      0.49      0.00
    5   12   11      0.54      0.00
    6   12   11     -1.34      0.00
    7   12   11     -0.18      0.00
    0   13   11      2.45      0.00
    1   13   11      2.27      0.00
    2   13   11      0.72      0.00
    3   13   11      0.27      0.00
    4   13   11     -0.05      0.00
    5   13   11      0.74      0.00
    1  -11   12     -0.04      0.00
    2  -11   12      1.55      0.00
    3  -11   12     -0.38      0.00
   -1  -10   12      0.73      0.00
    0  -10   12      0.03      0.00
    1  -10   12     -1.21      0.00
    2  -10   12      0.37      0.00
    3  -10   12      2.65      0.00
    4  -10   12      3.47      0.00
    5  -10   12     -0.73      0.00
    6  -10   12     -2.16      0.00
   -3   -9   12      0.73      0.00
   -2   -9   12      1.17      0.00
   -1   -9   12      0.09      0.00
    0   -9   12     -0.12      0.00
    1   -9   12      0.88      0.00
    2   -9   12      0.08      0.00
    3   -9   12      0.00      0.00
    4   -9   12      1.10      0.00
    5   -9   12      1.40      0.00
    6   -9   12      0.05      0.00
    7   -9   12     -1.13      0.00
   -4   -8   12      0.47      0.00
   -3   -8   12      0.37      0.00
   -2   -8   12      1.40      0.00
   -1   -8   12      0.67      0.00
    0   -8   12     -0.35      0.00
    1   -8   12      0.65      0.00
    2   -8   12     -0.86      0.00
    3   -8   12      0.11      0.00
    4   -8   12      0.02      0.00
    5   -8   12     -0.18      0.00
    6   -8   12     -0.82      0.00
    7   -8   12      0.05      0.00
    8   -8   12      0.42      0.00
   -5   -7   12     -0.91      0.00
   -4   -7   12      1.39      0.00
   -3   -7   12      0.46      0.00
   -2   -7   12     -0.81      0.00
   -1   -7   12     -0.01      0.00
    0   -7   12      0.59      0.00
    1   -7   12      1.96      0.00
    2   -7   12     -0.83      0.00
    3   -7   12     -1.06      0.00
    4   -7   12     -0.23      0.00
    5   -7   12     -0.13      0.00
    6   -7   12     -1.57      0.00
    7   -7   12     -2.85      0.00
    8   -7   12     -2.35      0.00
    9   -7   12      0.09      0.00
   -5   -6   12      0.42      0.00
   -4   -6   12     -0.94      0.00
   -3   -6   12     -0.53      0.00
   -2   -6   12     -0.39      0.00
   -1   -6   12     -0.38      0.00
    0   -6   12      1.45      0.00
    1   -6   12      1.95      0.00
    2   -6   12     -0.97      0.00
    3   -6   12     -0.59      0.00
    4   -6   12      2.50      0.00
    5   -6   12      1.08      0.00
    6   -6   12     -1.70      0.00
    7   -6   12     -0.90      0.00
    8   -6   12     -1.17      0.00
    9   -6   12     -0.09      0.00
   10   -6   12      2.64      0.00
   -6   -5   12     -2.09      0.00
   -5   -5   12     -0.82      0.00
   -4   -5   12      2.05      0.00
   -3   -5   12      1.41      0.00
   -2   -5   12     -0.65      0.00
   -1   -5   12     -1.12      0.00
    0   -5   12      2.63      0.00
    1   -5   12      1.96      0.00
    2   -5   12     -0.49      0.00
    3   -5   12     -1.97      0.00
    4   -5   12     -0.29      0.00
    5   -5   12      1.54      0.00
    6   -5   12      1.93      0.00
    7   -5   12     -1.02      0.00
    8   -5   12     -5.48      0.00
    9   -5   12     -0.89      0.00
   10   -5   12      0.23      0.00
   -6   -4   12     -1.70      0.00
   -5   -4   12      0.62      0.00
   -4   -4   12      1.26      0.00
   -3   -4   12     -1.50      0.00
   -2   -4   12     -2.07      0.00
   -1   -4   12     -2.76      0.00
    0   -4   12      0.08      0.00
    1   -4   12      0.78      0.00
    2   -4   12      1.14      0.00
    3   -4   12      0.38      0.00
    4   -4   12      0.23      0.00
    5   -4   12     -2.48      0.00
    6   -4   12     -1.16      0.00
    7   -4   12      1.50      0.00
    8   -4   12     -3.17      0.00
    9   -4   12     -0.50      0.00
   10   -4   12     -1.77      0.00
   11   -4   12      0.11      0.00
   -6   -3   12     -2.95      0.00
   -5   -3   12     -1.63      0.00
   -4   -3   12      0.44      0.00
   -3   -3   12      0.96      0.00
   -2   -3   12     -0.07      0.00
   -1   -3   12     -0.17      0.00
    0   -3   12      0.32      0.00
    1   -3   12      0.16      0.00
    2   -3   12      0.10      0.00
    3   -3   12     -1.10      0.00
    4   -3   12      0.03      0.00
    5   -3   12      0.11      0.00
    6   -3   12      1.59      0.00
    7   -3   12      0.21      0.00
    8   -3   12     -2.86      0.00
    9   -3   12      0.88      0.00
   10   -3   12     -2.15      0.00
   11   -3   12      0.92      0.00
   -7   -2   12      0.03      0.00
   -6   -2   12     -3.65      0.00
   -5   -2   12     -0.23      0.00
   -4   -2   12      0.43      0.00
   -3   -2   12      2.38      0.00
   -2   -2   12     -1.27      0.00
   -1   -2   12      0.55      0.00
    0   -2   12     -0.80      0.00
    1   -2   12     -1.39      0.00
    2   -2   12      0.01      0.00
    3   -2   12      0.82      0.00
    4   -2   12      0.14      0.00
    5   -2   12     -2.11      0.00
    6   -2   12     -0.07      0.00
    7   -2   12     -0.81      0.00
    8   -2   12     -1.53      0.00
    9   -2   12      0.98      0.00
   10   -2   12      0.08      0.00
   11   -2   12     -0.87      0.00
   -7   -1   12      1.81      0.00
   -6   -1   12     -1.40      0.00
   -5   -1   12      0.11      0.00
   -4   -1   12     -2.87      0.00
   -3   -1   12      0.47      0.00
   -2   -1   12     -3.80      0.00
   -1   -1   12     -0.05      0.00
    0   -1   12     -0.78      0.00
    1   -1   12      0.12      0.00
    2   -1   12      0.36      0.00
    3   -1   12     -0.79      0.00
    4   -1   12     -1.07      0.00
    5   -1   12     -0.46      0.00
    6   -1   12      0.06      0.00
    7   -1   12     -0.81      0.00
    8   -1   12      0.30      0.00
    9   -1   12     -1.93      0.00
   10   -1   12      0.36      0.00
   11   -1   12      0.83      0.00
   -7    0   12     -1.04      0.00
   -6    0   12     -1.72      0.00
   -5    0   12     -0.13      0.00
   -4    0   12      0.10      0.00
   -3    0   12      6.37      0.00
   -2    0   12      1.55      0.00
   -1    0   12      2.72      0.00
    0    0   12      0.88      0.00
    1    0   12      0.23      0.00
    2    0   12      0.27      0.00
    3    0   12      0.08      0.00
    4    0   12     -1.56      0.00
    5    0   12     -0.92      0.00
    6    0   12     -0.22      0.00
    7    0   12     -0.39      0.00
    8    0   12     -2.71      0.00
    9    0   12     -6.56      0.00
   10    0   12      1.74      0.00
   11    0   12      0.40      0.00
   12    0   12     -2.11      0.00
   -7    1   12      1.70      0.00
   -6    1   12      1.90      0.00
   -5    1   12      0.83      0.00
   -4    1   12     -0.83      0.00
   -3    1   12     -1.13      0.00
   -2    1   12     -3.25      0.00
   -1    1   12      0.66      0.00
    0    1   12      0.77      0.00
    1    1   12      0.74      0.00
    2    1   12      1.15      0.00
    3    1   12      0.79      0.00
    4    1   12     -0.62      0.00
    5    1   12     -0.22      0.00
    6    1   12     -0.34      0.00
    7    1   12     -0.64      0.00
    8    1   12     -0.67      0.00
    9    1   12     -3.84      0.00
   10    1   12      1.16      0.00
   11    1   12     -1.94      0.00
   12    1   12     -2.32      0.00
   -7    2   12     -1.36      0.00
   -6    2   12      2.11      0.00
   -5    2   12     -1.28      0.00
   -4    2   12     -0.32      0.00
   -2    2   12     -1.18      0.00
   -1    2   12     -1.17      0.00
    0    2   12     -0.48      0.00
    1    2   12     -0.01      0.00
    2    2   12      1.89      0.00
    3    2   12      1.44      0.00
    4    2   12     -0.55      0.00
    5    2   12     -1.73      0.00
    6    2   12     -0.01      0.00
    7    2   12      1.13      0.00
    8    2   12      0.84      0.00
    9    2   12     -4.79      0.00
   10    2   12     -1.04      0.00
   11    2   12     -2.13      0.00
   12    2   12     -0.43      0.00
   -7    3   12     -3.28      0.00
   -6    3   12     -1.59      0.00
   -5    3   12      0.26      0.00
   -4    3   12      2.49      0.00
   -2    3   12     -0.96      0.00
   -1    3   12      0.03      0.00
    0    3   12      1.17      0.00
    1    3   12     -1.43      0.00
    2    3   12     -1.06      0.00
    3    3   12      1.28      0.00
    4    3   12      0.39      0.00
    5    3   12     -0.64      0.00
    6    3   12      1.66      0.00
    7    3   12     -1.65      0.00
    8    3   12      0.08      0.00
    9    3   12     -0.01      0.00
   10    3   12      1.01      0.00
   11    3   12     -1.07      0.00
   -6    4   12     -1.16      0.00
   -5    4   12     -1.95      0.00
   -4    4   12     -0.86      0.00
   -1    4   12      0.60      0.00
    0    4   12      2.55      0.00
    1    4   12      0.02      0.00
    2    4   12     -0.38      0.00
    3    4   12      0.75      0.00
    4    4   12      0.10      0.00
    5    4   12      0.36      0.00
    6    4   12      1.10      0.00
    7    4   12     -0.72      0.00
    8    4   12      0.58      0.00
    9    4   12      0.15      0.00
   10    4   12     -0.65      0.00
   11    4   12     -2.86      0.00
   -6    5   12     -0.75      0.00
   -5    5   12     -1.14      0.00
   -4    5   12      0.78      0.00
   -3    5   12      4.66      0.00
   -2    5   12     -4.21      0.00
   -1    5   12     -2.43      0.00
    0    5   12      0.66      0.00
    1    5   12      0.69      0.00
    2    5   12     -0.38      0.00
    3    5   12      0.13      0.00
    4    5   12     -2.56      0.00
    5    5   12     -0.29      0.00
    6    5   12     -0.34      0.00
    7    5   12     -1.27      0.00
    8    5   12      0.33      0.00
    9    5   12     -0.36      0.00
   10    5   12      0.21      0.00
   11    5   12      2.01      0.00
   -6    6   12     -1.87      0.00
   -5    6   12     -0.79      0.00
   -4    6   12      0.25      0.00
   -3    6   12      4.81      0.00
   -2    6   12     -0.80      0.00
   -1    6   12      0.61      0.00
    0    6   12     -1.64      0.00
    1    6   12      0.01      0.00
    2    6   12      0.27      0.00
    3    6   12     -0.08      0.00
    4    6   12     -0.15      0.00
    5    6   12      1.46      0.00
    6    6   12     -0.66      0.00
    7    6   12     -0.41      0.00
    8    6   12      0.36      0.00
    9    6   12     -0.35      0.00
   10    6   12     -1.39      0.00
   11    6   12     -0.07      0.00
   -5    7   12     -1.84      0.00
   -4    7   12     -6.27      0.00
   -3    7   12      1.14      0.00
   -2    7   12     -0.69      0.00
   -1    7   12      1.55      0.00
    0    7   12      0.38      0.00
    1    7   12      0.37      0.00
    2    7   12      0.37      0.00
    3    7   12     -1.46      0.00
    4    7   12     -1.22      0.00
    5    7   12     -0.50      0.00
    6    7   12     -0.83      0.00
    7    7   12      0.20      0.00
    8    7   12     -0.72      0.00
    9    7   12     -1.84      0.00
   10    7   12     -1.08      0.00
   -5    8   12      3.15      0.00
   -4    8   12     -3.32      0.00
   -3    8   12     -1.25      0.00
   -2    8   12     -0.64      0.00
   -1    8   12      0.06      0.00
    0    8   12     -1.65      0.00
    1    8   12     -0.43      0.00
    2    8   12      0.96      0.00
    3    8   12     -0.85      0.00
    4    8   12      2.30      0.00
    5    8   12      0.11      0.00
    6    8   12     -1.89      0.00
    7    8   12      0.08      0.00
    8    8   12      0.04      0.00
    9    8   12      0.82      0.00
   10    8   12     -0.10      0.00
   -4    9   12     -0.18      0.00
   -3    9   12      2.98      0.00
   -2    9   12      1.18      0.00
   -1    9   12      0.20      0.00
    0    9   12      0.11      0.00
    1    9   12     -0.60      0.00
    2    9   12      1.26      0.00
    3    9   12     -1.60      0.00
    4    9   12      0.44      0.00
    5    9   12      1.35      0.00
    6    9   12     -0.52      0.00
    7    9   12      0.17      0.00
    8    9   12     -1.07      0.00
    9    9   12     -1.08      0.00
   -3   10   12      1.41      0.00
   -2   10   12      2.25      0.00
   -1   10   12      0.82      0.00
    0   10   12      0.37      0.00
    1   10   12     -1.31      0.00
    2   10   12      0.63      0.00
    3   10   12     -0.10      0.00
    4   10   12     -0.57      0.00
    5   10   12      0.57      0.00
    6   10   12     -0.61      0.00
    7   10   12     -1.00      0.00
    8   10   12     -0.51      0.00
   -2   11   12     -0.16      0.00
   -1   11   12      0.43      0.00
    0   11   12      0.58      0.00
    1   11   12     -0.56      0.00
    2   11   12      0.65      0.00
    3   11   12      0.00      0.00
    4   11   12     -0.52      0.00
    5   11   12      1.01      0.00
    6   11   12      0.71      0.00
    7   11   12      0.27      0.00
   -1   12   12     -0.52      0.00
    0   12   12     -1.79      0.00
    1   12   12     -1.95      0.00
    2   12   12      0.32      0.00
    3   12   12      0.40      0.00
    4   12   12     -0.46      0.00
    5   12   12     -0.06      0.00
    6   12   12     -0.16      0.00
    0  -10   13      1.04      0.00
    1  -10   13     -1.18      0.00
    2  -10   13     -1.30      0.00
    3  -10   13     -0.12      0.00
    4  -10   13      0.39      0.00
   -1   -9   13     -1.19      0.00
    0   -9   13      0.59      0.00
    1   -9   13      0.22      0.00
    2   -9   13      0.14      0.00
    3   -9   13     -0.71      0.00
    4   -9   13      0.52      0.00
    5   -9   13      0.65      0.00
    6   -9   13      1.40      0.00
   -3   -8   13      0.10      0.00
   -2   -8   13      0.75      0.00
   -1   -8   13     -0.04      0.00
    0   -8   13      0.24      0.00
    1   -8   13     -1.70      0.00
    2   -8   13     -0.33      0.00
    3   -8   13      1.37      0.00
    4   -8   13      0.64      0.00
    5   -8   13     -0.28      0.00
    6   -8   13      0.49      0.00
    7   -8   13      0.75      0.00
    8   -8   13      0.50      0.00
   -4   -7   13      0.90      0.00
   -3   -7   13     -0.10      0.00
   -2   -7   13     -0.29      0.00
   -1   -7   13     -1.09      0.00
    0   -7   13     -0.50      0.00
    1   -7   13     -0.35      0.00
    2   -7   13      0.33      0.00
    3   -7   13      0.95      0.00
    4   -7   13     -0.20      0.00
    5   -7   13      1.12      0.00
    6   -7   13      0.92      0.00
    7   -7   13     -0.29      0.00
    8   -7   13     -1.93      0.00
    9   -7   13      0.28      0.00
   -4   -6   13     -1.07      0.00
   -3   -6   13     -2.05      0.00
   -2   -6   13      0.68      0.00
   -1   -6   13     -0.91      0.00
    0   -6   13     -3.59      0.00
    1   -6   13     -2.18      0.00
    2   -6   13     -0.83      0.00
    3   -6   13      0.52      0.00
    4   -6   13      0.15      0.00
    5   -6   13      0.28      0.00
    6   -6   13     -0.92      0.00
    7   -6   13      1.78      0.00
    8   -6   13      1.86      0.00
    9   -6   13      0.58      0.00
   -5   -5   13     -0.51      0.00
   -4   -5   13      1.17      0.00
   -3   -5   13      1.71      0.00
   -2   -5   13      2.68      0.00
   -1   -5   13      1.32      0.00
    0   -5   13     -1.18      0.00
    1   -5   13     -0.19      0.00
    2   -5   13     -0.01      0.00
    3   -5   13      0.17      0.00
    4   -5   13     -0.85      0.00
    5   -5   13      0.50      0.00
    6   -5   13      0.09      0.00
    7   -5   13      0.94      0.00
    8   -5   13      3.22      0.00
    9   -5   13      0.86      0.00
   10   -5   13     -0.02      0.00
   -5   -4   13      0.15      0.00
   -4   -4   13      0.04      0.00
   -3   -4   13     -0.49      0.00
   -2   -4   13      0.40      0.00
   -1   -4   13     -0.56      0.00
    0   -4   13     -2.48      0.00
    1   -4   13     -1.38      0.00
    2   -4   13     -0.11      0.00
    3   -4   13      0.80      0.00
    4   -4   13      0.31      0.00
    5   -4   13     -0.45      0.00
    6   -4   13     -4.35      0.00
    7   -4   13     -1.71      0.00
    8   -4   13      2.39      0.00
    9   -4   13     -1.09      0.00
   10   -4   13      1.99      0.00
   -6   -3   13      2.26      0.00
   -5   -3   13     -2.06      0.00
   -4   -3   13     -1.88      0.00
   -3   -3   13     -0.77      0.00
   -2   -3   13      2.61      0.00
   -1   -3   13      1.08      0.00
    0   -3   13      0.54      0.00
    1   -3   13      0.48      0.00
    2   -3   13     -0.60      0.00
    3   -3   13     -1.79      0.00
    4   -3   13      0.68      0.00
    5   -3   13      5.25      0.00
    6   -3   13     -1.32      0.00
    7   -3   13     -0.32      0.00
    8   -3   13      3.14      0.00
    9   -3   13     -0.40      0.00
   10   -3   13      1.37      0.00
   11   -3   13      2.23      0.00
   -6   -2   13      2.47      0.00
   -5   -2   13     -1.65      0.00
   -4   -2   13     -0.03      0.00
   -3   -2   13     -1.11      0.00
   -2   -2   13      2.72      0.00
   -1   -2   13      0.41      0.00
    0   -2   13      1.14      0.00
    1   -2   13     -0.15      0.00
    2   -2   13      0.12      0.00
    3   -2   13     -0.28      0.00
    4   -2   13     -1.18      0.00
    5   -2   13      1.31      0.00
    6   -2   13     -1.39      0.00
    7   -2   13      2.76      0.00
    8   -2   13      0.85      0.00
    9   -2   13      0.64      0.00
   10   -2   13      0.95      0.00
   11   -2   13     -0.67      0.00
   -6   -1   13      3.63      0.00
   -5   -1   13      0.03      0.00
   -4   -1   13     -1.15      0.00
   -3   -1   13     -6.80      0.00
   -2   -1   13     -1.95      0.00
   -1   -1   13     -2.62      0.00
    0   -1   13      0.49      0.00
    1   -1   13      0.09      0.00
    2   -1   13      0.50      0.00
    3   -1   13     -1.06      0.00
    4   -1   13      0.20      0.00
    5   -1   13      2.24      0.00
    6   -1   13     -4.08      0.00
    7   -1   13     -0.93      0.00
    8   -1   13      2.23      0.00
    9   -1   13      3.94      0.00
   10   -1   13     -2.62      0.00
   11   -1   13     -0.24      0.00
   -6    0   13     -0.28      0.00
   -5    0   13     -0.60      0.00
   -4    0   13      0.46      0.00
   -3    0   13      0.01      0.00
   -2    0   13      2.67      0.00
   -1    0   13     -1.76      0.00
    0    0   13      1.05      0.00
    1    0   13     -0.40      0.00
    2    0   13     -0.26      0.00
    3    0   13     -0.51      0.00
    4    0   13      0.80      0.00
    5    0   13      2.50      0.00
    6    0   13      0.81      0.00
    7    0   13      1.94      0.00
    8    0   13      2.05      0.00
    9    0   13      3.62      0.00
   10    0   13     -2.35      0.00
   11    0   13     -0.07      0.00
   -6    1   13     -1.49      0.00
   -5    1   13      0.95      0.00
   -4    1   13      0.33      0.00
   -3    1   13     -2.16      0.00
   -2    1   13     -0.83      0.00
   -1    1   13     -1.59      0.00
    0    1   13      1.05      0.00
    1    1   13     -0.66      0.00
    2    1   13     -0.76      0.00
    3    1   13     -1.15      0.00
    4    1   13     -0.22      0.00
    5    1   13      2.45      0.00
    6    1   13      0.85      0.00
    7    1   13     -0.69      0.00
    8    1   13      3.69      0.00
    9    1   13      9.92      0.00
   10    1   13      2.02      0.00
   11    1   13      0.52      0.00
   -6    2   13      0.20      0.00
   -5    2   13     -1.14      0.00
   -4    2   13     -2.70      0.00
   -3    2   13     -0.59      0.00
   -2    2   13      0.11      0.00
   -1    2   13     -0.56      0.00
    0    2   13      0.99      0.00
    1    2   13      0.44      0.00
    2    2   13      0.46      0.00
    3    2   13     -0.15      0.00
    4    2   13     -0.85      0.00
    5    2   13      0.31      0.00
    6    2   13     -2.50      0.00
    7    2   13     -0.46      0.00
    8    2   13      1.84      0.00
    9    2   13      4.50      0.00
   10    2   13      1.11      0.00
   11    2   13      2.90      0.00
   -6    3   13      0.17      0.00
   -5    3   13      0.68      0.00
   -4    3   13      2.81      0.00
   -3    3   13      3.47      0.00
   -2    3   13      1.94      0.00
   -1    3   13     -1.11      0.00
    0    3   13     -0.41      0.00
    1    3   13      1.15      0.00
    2    3   13      0.20      0.00
    3    3   13     -0.61      0.00
    4    3   13     -1.01      0.00
    5    3   13      1.89      0.00
    6    3   13     -1.15      0.00
    7    3   13     -2.06      0.00
    8    3   13     -3.31      0.00
    9    3   13      0.59      0.00
   10    3   13      1.73      0.00
   11    3   13      4.85      0.00
   -6    4   13      2.67      0.00
   -5    4   13     -0.20      0.00
   -4    4   13      0.64      0.00
   -3    4   13     -0.67      0.00
   -1    4   13      2.41      0.00
    0    4   13     -1.43      0.00
    1    4   13     -0.19      0.00
    2    4   13      0.70      0.00
    3    4   13     -0.22      0.00
    4    4   13     -0.12      0.00
    5    4   13      1.34      0.00
    6    4   13      0.64      0.00
    7    4   13      1.91      0.00
    8    4   13     -0.91      0.00
    9    4   13     -0.01      0.00
   10    4   13      0.30      0.00
   11    4   13      1.68      0.00
   -5    5   13     -1.97      0.00
   -4    5   13     -2.33      0.00
   -3    5   13     -5.27      0.00
   -2    5   13      2.73      0.00
   -1    5   13      0.49      0.00
    0    5   13     -0.81      0.00
    1    5   13      0.24      0.00
    2    5   13      0.73      0.00
    3    5   13      0.81      0.00
    4    5   13     -0.74      0.00
    5    5   13     -2.19      0.00
    6    5   13      0.13      0.00
    7    5   13      1.12      0.00
    8    5   13     -0.42      0.00
    9    5   13     -0.33      0.00
   10    5   13     -0.54      0.00
   11    5   13      1.71      0.00
   -5    6   13      2.61      0.00
   -4    6   13      6.74      0.00
   -3    6   13     -3.36      0.00
   -2    6   13      2.02      0.00
   -1    6   13      0.23      0.00
    0    6   13     -1.01      0.00
    1    6   13     -0.57      0.00
    2    6   13     -0.24      0.00
    3    6   13      0.83      0.00
    4    6   13      1.74      0.00
    5    6   13     -0.36      0.00
    6    6   13      0.07      0.00
    7    6   13      0.25      0.00
    8    6   13      0.17      0.00
    9    6   13      1.61      0.00
   10    6   13      0.48      0.00
   -5    7   13     -1.18      0.00
   -4    7   13      3.26      0.00
   -3    7   13     -2.19      0.00
   -2    7   13      1.29      0.00
   -1    7   13     -0.10      0.00
    0    7   13      2.06      0.00
    1    7   13      0.23      0.00
    2    7   13     -0.82      0.00
    3    7   13      0.93      0.00
    4    7   13     -1.21      0.00
    5    7   13     -0.60      0.00
    6    7   13      0.97      0.00
    7    7   13     -0.29      0.00
    8    7   13     -0.58      0.00
    9    7   13     -0.62      0.00
   10    7   13     -0.18      0.00
   -4    8   13      3.16      0.00
   -3    8   13     -2.78      0.00
   -2    8   13      0.32      0.00
   -1    8   13     -1.55      0.00
    0    8   13     -0.58      0.00
    1    8   13      0.77      0.00
    2    8   13     -0.61      0.00
    3    8   13      1.86      0.00
    4    8   13      0.33      0.00
    5    8   13     -0.52      0.00
    6    8   13      0.39      0.00
    7    8   13     -0.08      0.00
    8    8   13      0.98      0.00
    9    8   13      1.78      0.00
   -3    9   13     -2.13      0.00
   -2    9   13     -0.20      0.00
   -1    9   13     -0.11      0.00
    0    9   13     -0.21      0.00
    1    9   13      1.42      0.00
    2    9   13     -0.68      0.00
    3    9   13      0.55      0.00
    4    9   13      0.41      0.00
    5    9   13     -0.53      0.00
    6    9   13      1.25      0.00
    7    9   13      0.80      0.00
    8    9   13     -0.59      0.00
    9    9   13     -0.50      0.00
   -2   10   13     -1.19      0.00
   -1   10   13     -0.78      0.00
    0   10   13     -2.16      0.00
    1   10   13      0.67      0.00
    2   10   13     -0.79      0.00
    3   10   13      0.42      0.00
    4   10   13      1.44      0.00
    5   10   13     -1.69      0.00
    6   10   13      0.13      0.00
    7   10   13      0.32      0.00
    8   10   13     -1.15      0.00
   -1   11   13      0.41      0.00
    0   11   13     -0.13      0.00
    1   11   13      1.08      0.00
    2   11   13     -1.39      0.00
    3   11   13     -1.16      0.00
    4   11   13      1.38      0.00
    5   11   13     -0.45      0.00
    6   11   13      0.87      0.00
    7   11   13      1.52      0.00
    1   12   13     -0.08      0.00
    2   12   13     -0.75      0.00
    3   12   13      0.03      0.00
    4   12   13      0.43      0.00
    5   12   13     -0.85      0.00
    0   -9   14     -0.28      0.00
    1   -9   14      2.11      0.00
    2   -9   14      1.38      0.00
    3   -9   14     -0.87      0.00
    4   -9   14      0.16      0.00
    5   -9   14      1.21      0.00
   -1   -8   14      0.14      0.00
    0   -8   14     -0.38      0.00
    1   -8   14      0.09      0.00
    2   -8   14      0.16      0.00
    3   -8   14     -1.31      0.00
    4   -8   14     -0.33      0.00
    5   -8   14     -0.49      0.00
    6   -8   14      0.94      0.00
    7   -8   14      2.01      0.00
   -2   -7   14     -0.26      0.00
   -1   -7   14      0.58      0.00
    0   -7   14      2.18      0.00
    1   -7   14      2.21      0.00
    2   -7   14      2.05      0.00
    3   -7   14     -0.44      0.00
    4   -7   14     -0.70      0.00
    5   -7   14     -1.75      0.00
    6   -7   14      1.01      0.00
    7   -7   14      0.52      0.00
    8   -7   14      0.55      0.00
   -3   -6   14     -0.24      0.00
   -2   -6   14     -0.89      0.00
   -1   -6   14      0.48      0.00
    0   -6   14      0.77      0.00
    1   -6   14     -0.88      0.00
    2   -6   14     -0.26      0.00
    3   -6   14     -0.59      0.00
    4   -6   14      0.76      0.00
    5   -6   14     -0.40      0.00
    6   -6   14     -0.89      0.00
    7   -6   14     -1.03      0.00
    8   -6   14     -0.66      0.00
    9   -6   14     -0.66      0.00
   -4   -5   14     -1.50      0.00
   -3   -5   14      0.47      0.00
   -2   -5   14     -0.44      0.00
   -1   -5   14      2.03      0.00
    0   -5   14      3.71      0.00
    1   -5   14      1.74      0.00
    2   -5   14      1.05      0.00
    3   -5   14      0.67      0.00
    4   -5   14      0.47      0.00
    5   -5   14      1.51      0.00
    6   -5   14      3.78      0.00
    7   -5   14      2.50      0.00
    8   -5   14     -0.36      0.00
    9   -5   14      0.90      0.00
   -4   -4   14      0.00      0.00
   -3   -4   14     -1.01      0.00
   -2   -4   14     -3.42      0.00
   -1   -4   14     -0.92      0.00
    0   -4   14      0.13      0.00
    1   -4   14     -1.16      0.00
    2   -4   14     -0.06      0.00
    3   -4   14      1.17      0.00
    4   -4   14     -1.16      0.00
    5   -4   14     -3.43      0.00
    6   -4   14      1.84      0.00
    7   -4   14      1.66      0.00
    8   -4   14     -2.88      0.00
    9   -4   14     -0.26      0.00
   10   -4   14     -0.71      0.00
   -5   -3   14      2.72      0.00
   -4   -3   14      0.30      0.00
   -3   -3   14     -0.37      0.00
   -2   -3   14     -1.94      0.00
   -1   -3   14      0.21      0.00
    0   -3   14      0.43      0.00
    1   -3   14     -0.28      0.00
    2   -3   14     -0.62      0.00
    3   -3   14      0.34      0.00
    4   -3   14      1.62      0.00
    5   -3   14     -0.53      0.00
    6   -3   14      0.64      0.00
    7   -3   14     -4.67      0.00
    8   -3   14     -1.55      0.00
    9   -3   14      0.23      0.00
   10   -3   14     -2.33      0.00
   -5   -2   14      2.22      0.00
   -3   -2   14      3.82      0.00
   -2   -2   14     -0.10      0.00
   -1   -2   14      0.67      0.00
    0   -2   14      0.43      0.00
    1   -2   14      0.10      0.00
    2   -2   14     -0.27      0.00
    3   -2   14      1.86      0.00
    4   -2   14      0.84      0.00
    5   -2   14     -1.49      0.00
    6   -2   14      7.90      0.00
    7   -2   14      1.61      0.00
    8   -2   14     -1.17      0.00
    9   -2   14     -2.11      0.00
   10   -2   14      0.07      0.00
   -5   -1   14      1.92      0.00
   -2   -1   14     -2.95      0.00
   -1   -1   14     -0.30      0.00
    0   -1   14     -2.17      0.00
    1   -1   14     -0.57      0.00
    2   -1   14      0.11      0.00
    3   -1   14      0.53      0.00
    4   -1   14     -0.95      0.00
    5   -1   14     -1.93      0.00
    6   -1   14      2.90      0.00
    7   -1   14     -3.24      0.00
    8   -1   14     -0.62      0.00
    9   -1   14      0.03      0.00
   10   -1   14      0.67      0.00
   11   -1   14     -0.41      0.00
   -5    0   14     -0.56      0.00
   -4    0   14      1.24      0.00
   -3    0   14      3.63      0.00
   -2    0   14      2.03      0.00
   -1    0   14      2.97      0.00
    0    0   14     -1.24      0.00
    1    0   14     -0.37      0.00
    2    0   14     -0.40      0.00
    3    0   14      1.21      0.00
    4    0   14     -0.66      0.00
    5    0   14     -3.33      0.00
    6    0   14      1.53      0.00
    7    0   14      0.74      0.00
    8    0   14     -3.64      0.00
    9    0   14     -5.40      0.00
   10    0   14      0.29      0.00
   11    0   14      1.05      0.00
   -5    1   14      0.69      0.00
   -4    1   14      2.88      0.00
   -3    1   14     -0.50      0.00
   -2    1   14     -0.20      0.00
   -1    1   14      2.00      0.00
    0    1   14     -1.80      0.00
    1    1   14     -0.02      0.00
    2    1   14      0.15      0.00
    3    1   14     -0.18      0.00
    4    1   14     -0.63      0.00
    5    1   14     -1.27      0.00
    6    1   14      1.41      0.00
    7    1   14     -0.86      0.00
    8    1   14     -6.16      0.00
    9    1   14     -5.06      0.00
   10    1   14      0.04      0.00
   11    1   14     -1.30      0.00
   -5    2   14     -0.13      0.00
   -4    2   14     -1.60      0.00
   -3    2   14     -5.51      0.00
   -2    2   14     -0.73      0.00
   -1    2   14      0.82      0.00
    0    2   14     -2.54      0.00
    1    2   14     -1.26      0.00
    2    2   14      0.28      0.00
    3    2   14      0.18      0.00
    4    2   14      0.76      0.00
    5    2   14     -1.79      0.00
    6    2   14      1.34      0.00
    7    2   14      3.62      0.00
    8    2   14      0.79      0.00
    9    2   14     -3.67      0.00
   10    2   14     -3.08      0.00
   11    2   14     -3.16      0.00
   -5    3   14      1.14      0.00
   -4    3   14      0.69      0.00
   -3    3   14     -4.10      0.00
   -2    3   14     -1.79      0.00
   -1    3   14     -1.83      0.00
    0    3   14     -1.57      0.00
    1    3   14     -0.64      0.00
    2    3   14     -0.10      0.00
    3    3   14     -0.80      0.00
    4    3   14     -0.08      0.00
    5    3   14     -2.05      0.00
    6    3   14      0.36      0.00
    7    3   14      0.59      0.00
    8    3   14      0.53      0.00
    9    3   14     -1.95      0.00
   10    3   14     -2.37      0.00
   11    3   14     -3.42      0.00
   -5    4   14      3.22      0.00
   -4    4   14      3.90      0.00
   -3    4   14      0.15      0.00
   -2    4   14     -1.68      0.00
   -1    4   14      0.21      0.00
    0    4   14      0.84      0.00
    1    4   14     -1.44      0.00
    2    4   14     -0.59      0.00
    3    4   14     -0.38      0.00
    4    4   14      0.99      0.00
    5    4   14      0.54      0.00
    6    4   14     -1.09      0.00
    7    4   14      0.07      0.00
    8    4   14      2.21      0.00
    9    4   14      1.16      0.00
   10    4   14      0.33      0.00
   11    4   14     -4.18      0.00
   -5    5   14     -1.25      0.00
   -4    5   14     -3.84      0.00
   -3    5   14     -0.19      0.00
   -2    5   14     -3.85      0.00
   -1    5   14     -2.45      0.00
    0    5   14      1.77      0.00
    1    5   14      0.62      0.00
    2    5   14      0.17      0.00
    3    5   14      0.85      0.00
    4    5   14     -0.32      0.00
    5    5   14      1.38      0.00
    6    5   14     -1.39      0.00
    7    5   14     -0.86      0.00
    8    5   14      1.41      0.00
    9    5   14      0.10      0.00
   10    5   14     -0.09      0.00
   -4    6   14      1.92      0.00
   -3    6   14      6.15      0.00
   -2    6   14     -0.43      0.00
   -1    6   14     -1.39      0.00
    0    6   14     -1.33      0.00
    1    6   14      0.34      0.00
    2    6   14     -0.30      0.00
    3    6   14     -0.70      0.00
    4    6   14      0.11      0.00
    5    6   14      2.66      0.00
    6    6   14     -0.72      0.00
    7    6   14     -0.88      0.00
    8    6   14     -0.08      0.00
    9    6   14      0.66      0.00
   10    6   14      1.61      0.00
   -4    7   14     -4.88      0.00
   -3    7   14      2.68      0.00
   -2    7   14      0.72      0.00
   -1    7   14      2.34      0.00
    0    7   14      1.12      0.00
    1    7   14      0.72      0.00
    2    7   14     -0.07      0.00
    3    7   14     -0.47      0.00
    4    7   14     -1.14      0.00
    5    7   14      0.80      0.00
    6    7   14      0.53      0.00
    7    7   14     -0.19      0.00
    8    7   14     -1.68      0.00
    9    7   14     -2.08      0.00
   -3    8   14      0.97      0.00
   -2    8   14     -1.46      0.00
   -1    8   14     -0.40      0.00
    0    8   14     -1.18      0.00
    1    8   14     -0.15      0.00
    2    8   14      0.66      0.00
    3    8   14      0.34      0.00
    4    8   14      0.28      0.00
    5    8   14      0.77      0.00
    6    8   14     -0.02      0.00
    7    8   14      0.20      0.00
    8    8   14      0.59      0.00
    9    8   14      0.57      0.00
   -2    9   14      1.23      0.00
   -1    9   14      1.08      0.00
    0    9   14      1.69      0.00
    1    9   14     -0.75      0.00
    2    9   14     -0.30      0.00
    3    9   14     -1.27      0.00
    4    9   14     -2.14      0.00
    5    9   14      1.22      0.00
    6    9   14      0.22      0.00
    7    9   14     -0.10      0.00
    8    9   14      1.29      0.00
   -1   10   14     -0.24      0.00
    0   10   14      1.13      0.00
    1   10   14     -0.48      0.00
    2   10   14      1.45      0.00
    3   10   14      1.35      0.00
    4   10   14     -1.98      0.00
    5   10   14     -0.02      0.00
    6   10   14     -1.16      0.00
    7   10   14     -1.95      0.00
    0   11   14      2.15      0.00
    1   11   14      0.14      0.00
    2   11   14      0.55      0.00
    3   11   14     -0.02      0.00
    4   11   14     -0.76      0.00
    5   11   14      1.38      0.00
    1   -8   15     -2.79      0.00
    2   -8   15     -1.78      0.00
    3   -8   15      0.40      0.00
    4   -8   15     -0.56      0.00
    5   -8   15      0.84      0.00
   -1   -7   15     -0.04      0.00
    0   -7   15      0.39      0.00
    1   -7   15      0.18      0.00
    2   -7   15      0.34      0.00
    3   -7   15      1.36      0.00
    4   -7   15     -0.67      0.00
    5   -7   15     -0.13      0.00
    6   -7   15     -0.77      0.00
    7   -7   15     -0.85      0.00
   -2   -6   15      0.14      0.00
   -1   -6   15     -1.90      0.00
    0   -6   15     -2.48      0.00
    1   -6   15     -2.16      0.00
    2   -6   15     -1.71      0.00
    3   -6   15     -1.06      0.00
    4   -6   15     -0.31      0.00
    5   -6   15     -0.18      0.00
    6   -6   15     -2.07      0.00
    7   -6   15     -3.60      0.00
    8   -6   15     -0.61      0.00
   -3   -5   15      0.19      0.00
   -2   -5   15      2.35      0.00
   -1   -5   15     -0.61      0.00
    0   -5   15     -0.25      0.00
    1   -5   15      1.27      0.00
    2   -5   15      0.56      0.00
    3   -5   15     -0.31      0.00
    4   -5   15      0.58      0.00
    5   -5   15      0.47      0.00
    6   -5   15     -0.70      0.00
    7   -5   15     -3.18      0.00
    8   -5   15      1.64      0.00
   -3   -4   15      0.48      0.00
   -2   -4   15      1.12      0.00
   -1   -4   15     -1.25      0.00
    0   -4   15     -0.87      0.00
    1   -4   15      0.42      0.00
    2   -4   15      0.07      0.00
    3   -4   15     -0.53      0.00
    4   -4   15     -1.25      0.00
    5   -4   15     -0.93      0.00
    6   -4   15      1.54      0.00
    7   -4   15      2.06      0.00
    8   -4   15     -0.53      0.00
    9   -4   15     -1.27      0.00
   -3   -3   15     -0.46      0.00
   -2   -3   15      1.75      0.00
   -1   -3   15     -0.01      0.00
    0   -3   15     -1.13      0.00
    1   -3   15      0.84      0.00
    2   -3   15      0.54      0.00
    3   -3   15     -1.78      0.00
    4   -3   15     -1.06      0.00
    5   -3   15      1.09      0.00
    6   -3   15     -4.31      0.00
    7   -3   15     -2.03      0.00
    8   -3   15     -1.13      0.00
    9   -3   15      0.61      0.00
   10   -3   15     -0.28      0.00
   -3   -2   15     -0.21      0.00
   -2   -2   15      3.05      0.00
   -1   -2   15      1.32      0.00
    0   -2   15      0.72      0.00
    1   -2   15      1.20      0.00
    2   -2   15      0.42      0.00
    3   -2   15     -0.32      0.00
    4   -2   15     -0.79      0.00
    5   -2   15     -1.65      0.00
    6   -2   15     -2.06      0.00
    7   -2   15      8.59      0.00
    8   -2   15      2.02      0.00
    9   -2   15      0.38      0.00
   10   -2   15      2.58      0.00
   -2   -1   15     -0.11      0.00
   -1   -1   15     -0.99      0.00
    0   -1   15     -0.17      0.00
    1   -1   15      0.54      0.00
    2   -1   15      0.51      0.00
    3   -1   15     -1.57      0.00
    4   -1   15     -0.04      0.00
    5   -1   15     -0.51      0.00
    6   -1   15     -7.06      0.00
    7   -1   15     -1.75      0.00
    8   -1   15      0.15      0.00
    9   -1   15      0.85      0.00
   10   -1   15      0.93      0.00
   -4    0   15     -2.54      0.00
   -3    0   15     -1.29      0.00
   -1    0   15     -1.26      0.00
    0    0   15      1.69      0.00
    1    0   15      1.29      0.00
    2    0   15     -0.33      0.00
    3    0   15     -0.24      0.00
    4    0   15      2.93      0.00
    5    0   15      1.30      0.00
    6    0   15     -2.63      0.00
    7    0   15      0.96      0.00
    8    0   15      4.24      0.00
    9    0   15     -0.17      0.00
   10    0   15     -0.63      0.00
   -4    1   15      0.41      0.00
   -3    1   15      3.36      0.00
   -2    1   15      0.74      0.00
   -1    1   15     -1.32      0.00
    0    1   15      1.89      0.00
    1    1   15      1.40      0.00
    2    1   15      0.26      0.00
    3    1   15     -0.26      0.00
    4    1   15      0.44      0.00
    5    1   15      1.11      0.00
    6    1   15     -0.13      0.00
    7    1   15     -1.72      0.00
    8    1   15      1.96      0.00
    9    1   15      1.76      0.00
   10    1   15      1.73      0.00
   -4    2   15     -1.28      0.00
   -3    2   15      5.92      0.00
   -2    2   15      1.28      0.00
   -1    2   15      1.27      0.00
    0    2   15      3.27      0.00
    1    2   15      0.39      0.00
    2    2   15     -0.60      0.00
    3    2   15      1.75      0.00
    4    2   15      1.59      0.00
    5    2   15      0.78      0.00
    6    2   15     -1.11      0.00
    7    2   15     -1.02      0.00
    8    2   15      2.87      0.00
    9    2   15      3.18      0.00
   10    2   15      2.28      0.00
   -4    3   15     -3.81      0.00
   -3    3   15      4.66      0.00
   -2    3   15      0.27      0.00
   -1    3   15     -0.23      0.00
    0    3   15      2.55      0.00
    1    3   15      2.76      0.00
    2    3   15      0.19      0.00
    3    3   15      0.82      0.00
    4    3   15      0.49      0.00
    5    3   15      0.41      0.00
    6    3   15      0.46      0.00
    7    3   15     -2.01      0.00
    8    3   15     -2.12      0.00
    9    3   15     -0.70      0.00
   10    3   15      0.66      0.00
   -4    4   15      0.94      0.00
   -3    4   15      6.70      0.00
   -2    4   15      4.16      0.00
   -1    4   15      1.87      0.00
    0    4   15     -1.04      0.00
    1    4   15     -0.72      0.00
    2    4   15     -0.95      0.00
    3    4   15     -1.25      0.00
    4    4   15      0.25      0.00
    5    4   15     -0.93      0.00
    6    4   15      1.88      0.00
    7    4   15     -0.85      0.00
    8    4   15     -3.19      0.00
    9    4   15     -0.88      0.00
   10    4   15      1.63      0.00
   -4    5   15     -6.90      0.00
   -3    5   15     -4.68      0.00
   -2    5   15      0.87      0.00
   -1    5   15      2.33      0.00
    0    5   15      0.90      0.00
    1    5   15     -0.12      0.00
    2    5   15      0.54      0.00
    3    5   15     -0.37      0.00
    4    5   15      0.46      0.00
    5    5   15     -3.23      0.00
    6    5   15      2.21      0.00
    7    5   15      1.29      0.00
    8    5   15     -0.37      0.00
    9    5   15     -1.19      0.00
   10    5   15     -1.79      0.00
   -3    6   15     -2.02      0.00
   -2    6   15     -1.16      0.00
   -1    6   15     -1.49      0.00
    0    6   15     -1.41      0.00
    1    6   15     -1.47      0.00
    2    6   15      1.48      0.00
    3    6   15     -0.96      0.00
    4    6   15      1.28      0.00
    5    6   15     -1.80      0.00
    6    6   15      0.64      0.00
    7    6   15      1.02      0.00
    8    6   15      1.32      0.00
    9    6   15      0.60      0.00
   -2    7   15      0.41      0.00
   -1    7   15     -0.02      0.00
    0    7   15      0.80      0.00
    1    7   15     -3.40      0.00
    2    7   15     -0.86      0.00
    3    7   15     -1.25      0.00
    4    7   15     -0.33      0.00
    5    7   15     -1.78      0.00
    6    7   15     -0.66      0.00
    7    7   15     -0.16      0.00
    8    7   15      0.95      0.00
    9    7   15     -0.19      0.00
   -2    8   15     -1.17      0.00
   -1    8   15     -0.86      0.00
    0    8   15      0.06      0.00
    1    8   15     -1.44      0.00
    2    8   15      0.22      0.00
    3    8   15      0.68      0.00
    4    8   15      1.73      0.00
    5    8   15     -0.94      0.00
    6    8   15     -1.04      0.00
    7    8   15     -0.43      0.00
    8    8   15      0.21      0.00
   -1    9   15      0.64      0.00
    0    9   15      0.77      0.00
    1    9   15     -0.16      0.00
    2    9   15     -1.18      0.00
    3    9   15     -1.73      0.00
    4    9   15      0.97      0.00
    5    9   15      0.31      0.00
    6    9   15      0.73      0.00
    7    9   15      1.27      0.00
    0   10   15     -1.71      0.00
    1   10   15      0.00      0.00
    2   10   15      0.28      0.00
    3   10   15      0.94      0.00
    4   10   15      1.13      0.00
    5   10   15     -1.40      0.00
    6   10   15      0.00      0.00
    1   -7   16      2.21      0.00
    2   -7   16      0.96      0.00
    3   -7   16      0.43      0.00
    4   -7   16      0.36      0.00
    5   -7   16     -0.95      0.00
    0   -6   16     -0.06      0.00
    1   -6   16     -0.72      0.00
    2   -6   16     -1.23      0.00
    3   -6   16     -0.69      0.00
    4   -6   16      0.13      0.00
    5   -6   16      1.11      0.00
    6   -6   16      0.25      0.00
   -1   -5   16      1.73      0.00
    0   -5   16      0.56      0.00
    1   -5   16      0.36      0.00
    2   -5   16      0.32      0.00
    3   -5   16      0.21      0.00
    4   -5   16      0.38      0.00
    5   -5   16      2.07      0.00
    6   -5   16     -0.96      0.00
    7   -5   16      1.45      0.00
   -2   -4   16     -2.26      0.00
   -1   -4   16      0.36      0.00
    0   -4   16      0.90      0.00
    1   -4   16     -0.87      0.00
    2   -4   16     -0.92      0.00
    3   -4   16      0.30      0.00
    4   -4   16     -0.47      0.00
    5   -4   16     -0.79      0.00
    6   -4   16      1.50      0.00
    7   -4   16      6.72      0.00
    8   -4   16      4.26      0.00
   -2   -3   16     -1.47      0.00
   -1   -3   16     -0.60      0.00
    0   -3   16     -0.29      0.00
    1   -3   16     -1.22      0.00
    2   -3   16     -0.59      0.00
    3   -3   16     -0.28      0.00
    4   -3   16      0.52      0.00
    5   -3   16      1.30      0.00
    6   -3   16     -3.83      0.00
    7   -3   16     -9.65      0.00
    8   -3   16     -0.77      0.00
    9   -3   16      0.45      0.00
   -3   -2   16      1.49      0.00
   -2   -2   16     -1.70      0.00
   -1   -2   16     -0.52      0.00
    0   -2   16      1.55      0.00
    1   -2   16      0.22      0.00
    2   -2   16     -0.54      0.00
    3   -2   16      1.78      0.00
    4   -2   16      1.84      0.00
    5   -2   16      2.24      0.00
    6   -2   16      4.29      0.00
    7   -2   16     -0.73      0.00
    8   -2   16      1.41      0.00
    9   -2   16     -0.03      0.00
   -2   -1   16     -2.30      0.00
   -1   -1   16     -0.79      0.00
    0   -1   16     -0.49      0.00
    1   -1   16     -0.96      0.00
    2   -1   16      0.71      0.00
    3   -1   16      1.08      0.00
    4   -1   16     -1.91      0.00
    5   -1   16      1.82      0.00
    6   -1   16      4.22      0.00
    7   -1   16     -1.94      0.00
    8   -1   16     -2.03      0.00
    9   -1   16      1.25      0.00
   -2    0   16     -1.90      0.00
   -1    0   16     -0.15      0.00
    0    0   16     -0.19      0.00
    1    0   16     -1.33      0.00
    2    0   16     -0.58      0.00
    3    0   16      1.17      0.00
    4    0   16     -0.56      0.00
    5    0   16      0.64      0.00
    6    0   16      0.82      0.00
    7    0   16      1.40      0.00
    8    0   16     -0.61      0.00
    9    0   16      1.53      0.00
   10    0   16     -0.87      0.00
   -3    1   16     -2.25      0.00
   -2    1   16     -1.35      0.00
   -1    1   16     -0.68      0.00
    0    1   16     -1.90      0.00
    1    1   16     -0.57      0.00
    2    1   16      0.49      0.00
    3    1   16     -1.04      0.00
    4    1   16     -2.53      0.00
    5    1   16     -0.10      0.00
    6    1   16     -0.18      0.00
    7    1   16      0.55      0.00
    8    1   16     -3.48      0.00
    9    1   16     -1.52      0.00
   10    1   16     -0.90      0.00
   -3    2   16     -4.01      0.00
   -2    2   16     -0.28      0.00
   -1    2   16     -0.92      0.00
    0    2   16     -4.20      0.00
    1    2   16     -3.06      0.00
    2    2   16     -0.61      0.00
    3    2   16     -0.98      0.00
    4    2   16     -1.22      0.00
    5    2   16      0.06      0.00
    6    2   16     -0.86      0.00
    7    2   16      1.28      0.00
    8    2   16      0.47      0.00
    9    2   16      0.65      0.00
   10    2   16     -0.76      0.00
   -3    3   16     -8.61      0.00
   -2    3   16     -2.90      0.00
   -1    3   16     -0.68      0.00
    0    3   16     -0.87      0.00
    1    3   16      0.66      0.00
    2    3   16      1.02      0.00
    3    3   16     -0.22      0.00
    4    3   16     -0.95      0.00
    5    3   16      1.05      0.00
    6    3   16     -0.63      0.00
    7    3   16      2.00      0.00
    8    3   16      2.85      0.00
    9    3   16      0.95      0.00
   10    3   16     -2.28      0.00
   -3    4   16      0.55      0.00
   -2    4   16     -0.81      0.00
   -1    4   16     -0.96      0.00
    0    4   16     -1.69      0.00
    1    4   16     -0.95      0.00
    2    4   16      0.04      0.00
    3    4   16      0.84      0.00
    4    4   16     -0.96      0.00
    5    4   16      2.09      0.00
    6    4   16     -2.38      0.00
    7    4   16     -0.48      0.00
    8    4   16      0.37      0.00
    9    4   16      0.87      0.00
   -2    5   16     -0.90      0.00
   -1    5   16      0.56      0.00
    0    5   16      1.09      0.00
    1    5   16      0.60      0.00
    2    5   16     -1.87      0.00
    3    5   16      1.98      0.00
    4    5   16     -0.65      0.00
    5    5   16      1.99      0.00
    6    5   16     -1.78      0.00
    7    5   16     -0.14      0.00
    8    5   16      0.86      0.00
    9    5   16      1.36      0.00
   -2    6   16      0.82      0.00
   -1    6   16      1.15      0.00
    0    6   16      0.61      0.00
    1    6   16      4.16      0.00
    2    6   16     -0.18      0.00
    3    6   16      1.34      0.00
    4    6   16      0.05      0.00
    5    6   16      2.42      0.00
    6    6   16     -0.05      0.00
    7    6   16     -0.16      0.00
    8    6   16     -1.31      0.00
    9    6   16      0.69      0.00
   -1    7   16      2.12      0.00
    0    7   16      0.73      0.00
    1    7   16      3.84      0.00
    2    7   16     -0.82      0.00
    3    7   16     -0.41      0.00
    4    7   16     -1.34      0.00
    5    7   16      0.64      0.00
    6    7   16      0.70      0.00
    7    7   16      0.26      0.00
    8    7   16     -1.95      0.00
   -1    8   16     -0.91      0.00
    0    8   16     -1.35      0.00
    1    8   16      3.29      0.00
    2    8   16      2.02      0.00
    3    8   16      2.29      0.00
    4    8   16      0.37      0.00
    5    8   16     -0.51      0.00
    6    8   16     -0.45      0.00
    7    8   16     -0.04      0.00
    1    9   16      0.67      0.00
    2    9   16     -0.04      0.00
    3    9   16     -0.95      0.00
    4    9   16     -0.70      0.00
    5    9   16      1.10      0.00
    6    9   16      0.11      0.00
    3   -6   17     -0.24      0.00
    4   -6   17      0.12      0.00
    1   -5   17      1.11      0.00
    2   -5   17      1.96      0.00
    3   -5   17      0.86      0.00
    4   -5   17      0.71      0.00
    5   -5   17     -1.17      0.00
    6   -5   17     -1.46      0.00
    0   -4   17      0.60      0.00
    1   -4   17      0.76      0.00
    2   -4   17      0.72      0.00
    3   -4   17      1.17      0.00
    4   -4   17      1.08      0.00
    5   -4   17     -1.51      0.00
    6   -4   17      2.90      0.00
    7   -4   17      3.85      0.00
   -1   -3   17      0.54      0.00
    0   -3   17     -1.05      0.00
    1   -3   17     -0.53      0.00
    2   -3   17      1.32      0.00
    3   -3   17     -0.21      0.00
    4   -3   17     -0.41      0.00
    5   -3   17      0.51      0.00
    6   -3   17      0.65      0.00
    7   -3   17     -0.80      0.00
    8   -3   17     -3.93      0.00
   -1   -2   17      0.80      0.00
    0   -2   17     -0.30      0.00
    1   -2   17     -0.48      0.00
    2   -2   17     -0.18      0.00
    3   -2   17     -0.41      0.00
    4   -2   17      0.91      0.00
    5   -2   17     -1.69      0.00
    6   -2   17     -1.00      0.00
    7   -2   17      4.27      0.00
    8   -2   17      1.24      0.00
   -2   -1   17      2.78      0.00
   -1   -1   17      1.85      0.00
    0   -1   17     -0.87      0.00
    1   -1   17     -0.87      0.00
    2   -1   17     -0.05      0.00
    3   -1   17     -1.60      0.00
    4   -1   17     -0.81      0.00
    5   -1   17     -1.69      0.00
    6   -1   17     -0.80      0.00
    7   -1   17     -0.25      0.00
    8   -1   17      0.15      0.00
   -2    0   17      1.60      0.00
   -1    0   17      1.01      0.00
    0    0   17      0.25      0.00
    1    0   17      0.10      0.00
    2    0   17     -0.90      0.00
    3    0   17     -0.66      0.00
    4    0   17      1.52      0.00
    5    0   17     -0.41      0.00
    6    0   17      0.41      0.00
    7    0   17     -1.78      0.00
    8    0   17      1.56      0.00
    9    0   17      0.31      0.00
   -2    1   17      1.19      0.00
   -1    1   17      2.27      0.00
    0    1   17      2.82      0.00
    1    1   17      2.22      0.00
    2    1   17      1.04      0.00
    3    1   17      0.43      0.00
    4    1   17      0.94      0.00
    5    1   17     -0.18      0.00
    6    1   17      2.11      0.00
    7    1   17     -0.71      0.00
    8    1   17      0.37      0.00
    9    1   17     -0.05      0.00
   -2    2   17      1.86      0.00
   -1    2   17      0.92      0.00
    0    2   17      1.34      0.00
    1    2   17     -1.02      0.00
    2    2   17     -0.68      0.00
    3    2   17      1.28      0.00
    4    2   17      1.19      0.00
    5    2   17     -1.03      0.00
    6    2   17      0.55      0.00
    7    2   17     -1.90      0.00
    8    2   17     -2.03      0.00
    9    2   17     -0.53      0.00
   -2    3   17     -0.21      0.00
   -1    3   17      0.47      0.00
    0    3   17      3.71      0.00
    1    3   17      2.49      0.00
    2    3   17      0.14      0.00
    3    3   17     -0.43      0.00
    4    3   17      1.02      0.00
    5    3   17     -0.29      0.00
    6    3   17      2.16      0.00
    7    3   17      0.44      0.00
    8    3   17      0.36      0.00
    9    3   17     -0.34      0.00
   -1    4   17     -0.74      0.00
    0    4   17     -0.77      0.00
    1    4   17     -0.07      0.00
    2    4   17      1.05      0.00
    3    4   17     -1.47      0.00
    4    4   17      0.13      0.00
    5    4   17     -1.26      0.00
    6    4   17      1.34      0.00
    7    4   17     -1.05      0.00
    8    4   17     -1.82      0.00
   -1    5   17     -1.41      0.00
    0    5   17     -1.09      0.00
    1    5   17     -2.34      0.00
    2    5   17     -0.28      0.00
    3    5   17     -2.21      0.00
    4    5   17     -0.54      0.00
    5    5   17     -2.12      0.00
    6    5   17      0.18      0.00
    7    5   17     -0.47      0.00
    8    5   17      0.44      0.00
   -1    6   17     -2.69      0.00
    0    6   17     -0.79      0.00
    1    6   17     -1.37      0.00
    2    6   17      2.67      0.00
    3    6   17     -0.03      0.00
    4    6   17      0.24      0.00
    5    6   17     -0.27      0.00
    6    6   17      0.14      0.00
    7    6   17     -0.01      0.00
    0    7   17     -1.44      0.00
    1    7   17     -4.69      0.00
    2    7   17     -0.96      0.00
    3    7   17     -1.33      0.00
    4    7   17     -0.81      0.00
    5    7   17      0.55      0.00
    6    7   17      0.28      0.00
    7    7   17     -0.49      0.00
    2    8   17     -0.94      0.00
    3    8   17      0.56      0.00
    4    8   17      0.48      0.00
    5    8   17     -0.79      0.00
    3   -4   18     -0.56      0.00
    4   -4   18     -0.48      0.00
    5   -4   18     -0.62      0.00
    1   -3   18      0.29      0.00
    2   -3   18     -0.87      0.00
    3   -3   18     -0.70      0.00
    4   -3   18     -1.17      0.00
    5   -3   18      0.66      0.00
    6   -3   18     -0.05      0.00
    0   -2   18      0.18      0.00
    1   -2   18      1.84      0.00
    2   -2   18     -0.60      0.00
    3   -2   18      0.04      0.00
    4   -2   18      0.65      0.00
    5   -2   18     -0.09      0.00
    6   -2   18     -1.13      0.00
    7   -2   18     -1.31      0.00
    0   -1   18      0.37      0.00
    1   -1   18      1.31      0.00
    2   -1   18      1.07      0.00
    3   -1   18      0.93      0.00
    4   -1   18     -0.06      0.00
    5   -1   18      0.18      0.00
    6   -1   18     -0.32      0.00
    7   -1   18      1.82      0.00
    0    0   18     -1.13      0.00
    1    0   18     -0.34      0.00
    2    0   18     -0.41      0.00
    3    0   18      0.18      0.00
    4    0   18      0.36      0.00
    5    0   18      0.34      0.00
    6    0   18     -2.02      0.00
    7    0   18      1.01      0.00
    0    1   18     -0.05      0.00
    1    1   18      1.46      0.00
    2    1   18      0.32      0.00
    3    1   18     -1.57      0.00
    4    1   18     -0.54      0.00
    5    1   18      1.30      0.00
    6    1   18     -0.86      0.00
    7    1   18      1.71      0.00
    8    1   18      0.86      0.00
    0    2   18     -4.16      0.00
    1    2   18     -2.56      0.00
    2    2   18     -0.75      0.00
    3    2   18     -0.61      0.00
    4    2   18     -1.35      0.00
    5    2   18     -1.15      0.00
    6    2   18     -1.93      0.00
    7    2   18     -0.08      0.00
    8    2   18     -0.64      0.00
    0    3   18      0.06      0.00
    1    3   18      0.31      0.00
    2    3   18     -0.51      0.00
    3    3   18     -0.49      0.00
    4    3   18     -0.64      0.00
    5    3   18     -0.04      0.00
    6    3   18     -0.74      0.00
    7    3   18      1.28      0.00
    0    4   18      1.29      0.00
    1    4   18      0.97      0.00
    2    4   18      1.32      0.00
    3    4   18      2.19      0.00
    4    4   18      0.73      0.00
    5    4   18      1.05      0.00
    6    4   18      0.22      0.00
    7    4   18      0.81      0.00
    1    5   18     -0.85      0.00
    2    5   18     -1.84      0.00
    3    5   18      1.01      0.00
    4    5   18      0.62      0.00
    5    5   18     -0.55      0.00
    6    5   18     -0.35      0.00
    7    5   18      0.43      0.00
    2    6   18     -0.12      0.00
    3    6   18      1.13      0.00
    4    6   18      1.28      0.00
    5    6   18     -0.77      0.00
    6    6   18     -0.29      0.00
    4    7   18      0.31      0.00
    3   -1   19     -0.04      0.00
    4   -1   19     -0.77      0.00
    5   -1   19      0.33      0.00
    2    0   19     -0.55      0.00
    3    0   19      0.56      0.00
    4    0   19     -1.25      0.00
    5    0   19     -1.57      0.00
    2    1   19      1.40      0.00
    3    1   19      1.30      0.00
    4    1   19      0.55      0.00
    5    1   19      0.54      0.00
    6    1   19      1.30      0.00
    2    2   19      0.59      0.00
    3    2   19      2.57      0.00
    4    2   19      1.53      0.00
    5    2   19      0.12      0.00
    6    2   19     -0.11      0.00
    2    3   19     -0.67      0.00
    3    3   19     -0.70      0.00
    4    3   19     -0.10      0.00
    5    3   19     -0.05      0.00
    3    4   19     -0.15      0.00
    4    4   19     -0.19      0.00
    1    0    0     16.67      0.00
    0    1    0     57.51      0.00
    0    2    0     51.39      0.00
  -12    4    0      1.55      0.00
   12    4    0     -1.94      0.00
  -11    7    0     -1.09      0.00
  -10    9    0      0.24      0.00
    8   12    0      1.05      0.00
   -5   14    0     -0.85      0.00
   -3   15    0      1.25      0.00
    3   15    0     -1.23      0.00
    3  -15    1     -0.72      0.00
   -5  -14    1     -1.72      0.00
  -10   -9    1     -2.70      0.00
  -12   -3    1      0.99      0.00
    0    0    1    -59.49      0.00
    0    1    1    -78.90      0.00
  -12    3    1     -1.56      0.00
   12    5    1      1.38      0.00
    9   11    1      2.61      0.00
    7   13    1      0.23      0.00
   -5   14    1     -0.23      0.00
   -3   15    1     -1.82      0.00
   -2  -15    2     -0.26      0.00
    5  -14    2     -1.89      0.00
   -9  -10    2      0.07      0.00
  -11   -6    2      0.78      0.00
   12   -5    2     -1.97      0.00
  -12    0    2      1.96      0.00
    0    0    2     60.83      0.00
   -9    3    2      1.24      0.00
  -11    6    2     -2.66      0.00
   -9   10    2     -3.04      0.00
   10   10    2     -1.15      0.00
    6   14    2      0.57      0.00
    4   15    2     -0.96      0.00
   -1  -15    3      1.48      0.00
    0  -15    3      0.15      0.00
    1  -15    3     -0.43      0.00
    2  -15    3     -0.41      0.00
   -4  -14    3      0.72      0.00
    5  -14    3      1.34      0.00
   -7  -12    3     -1.36      0.00
  -11   -5    3     -1.68      0.00
   12   -5    3      1.01      0.00
   -7    3    3      1.47      0.00
   -9    4    3     -0.84      0.00
  -11    5    3      2.76      0.00
   12    6    3     -0.26      0.00
   -8   11    3      0.23      0.00
   -7   12    3     -0.53      0.00
   -6   13    3     -0.17      0.00
    6   14    3     -0.65      0.00
    4   15    3      0.80      0.00
   -5  -13    4     -0.02      0.00
  -11    4    4     -1.85      0.00
  -10    7    4     -0.84      0.00
   -9    9    4      0.24      0.00
    6   14    4      0.50      0.00
   -2   15    4     -0.58      0.00
    4   15    4      0.07      0.00
    4  -14    5      0.61      0.00
   -7  -11    5     -1.17      0.00
   -9   -8    5     -0.24      0.00
  -11   -1    5     -1.35      0.00
  -11    0    5      0.64      0.00
   13    0    5      0.76      0.00
  -11    1    5      1.32      0.00
   13    1    5      0.03      0.00
   -8    5    5      2.95      0.00
  -10    6    5     -1.28      0.00
   -8   10    5      0.08      0.00
    6   14    5     -0.49      0.00
   -1  -14    6      0.08      0.00
    3  -14    6     -0.43      0.00
    6  -13    6     -1.51      0.00
   -8   -9    6      1.00      0.00
   -9   -7    6      0.77      0.00
   13    0    6      0.10      0.00
   13    1    6     -0.27      0.00
   13    2    6      0.28      0.00
  -10    5    6      1.20      0.00
   -6    6    6     -2.51      0.00
   -6    7    6      2.77      0.00
   -7   11    6     -1.16      0.00
   -6   12    6     -0.22      0.00
    6   14    6     -0.63      0.00
    0   15    6     -0.88      0.00
    3   15    6      0.10      0.00
    1  -14    7      1.55      0.00
   -3  -13    7     -0.29      0.00
    7  -12    7     -0.65      0.00
   10   -9    7     -0.16      0.00
   -8   -8    7      0.47      0.00
   -9   -6    7      0.23      0.00
   12   -5    7      2.99      0.00
  -10   -2    7     -6.01      0.00
   13    0    7      0.16      0.00
   13    1    7     -1.01      0.00
  -10    3    7      2.44      0.00
   -5    6    7     -5.64      0.00
    1   15    7      1.31      0.00
    2   15    7     -0.48      0.00
   -5  -11    8     -0.92      0.00
    8  -11    8     -1.41      0.00
   -6  -10    8     -0.13      0.00
    9  -10    8     -0.13      0.00
   -8   -7    8     -0.42      0.00
   11   -7    8      1.02      0.00
   -8    8    8      2.78      0.00
   -6   11    8     -0.36      0.00
   -5   12    8     -1.21      0.00
    7   13    8      0.16      0.00
   -2   14    8     -0.85      0.00
    5   14    8      1.06      0.00
    1  -13    9      0.59      0.00
    2  -13    9      1.72      0.00
    3  -13    9      2.10      0.00
    6  -12    9      0.88      0.00
   -4  -11    9     -0.92      0.00
   -9   -2    9      0.80      0.00
   -9    3    9      2.55      0.00
   -3    5    9      0.87      0.00
   12    6    9      0.87      0.00
   10   10    9     -0.53      0.00
    8   12    9     -0.47      0.00
   -3   13    9     -2.28      0.00
   -1  -12   10      0.11      0.00
    5  -12   10     -0.41      0.00
   -3  -11   10      3.65      0.00
    7  -11   10     -2.71      0.00
    9   -9   10     -0.34      0.00
   10   -8   10     -3.42      0.00
   11   -6   10     -1.48      0.00
   -8   -4   10     -0.36      0.00
   -8    1   10      8.62      0.00
   -4    5   10      6.34      0.00
   -4    6   10      4.72      0.00
   11    8   10     -1.45      0.00
   -2   13   10     -1.67      0.00
    1   14   10     -1.13      0.00
    2   14   10     -0.53      0.00
    3   14   10     -0.20      0.00
    2  -12   11     -1.29      0.00
    3  -12   11      1.07      0.00
   -2  -11   11      1.39      0.00
    6  -11   11      1.33      0.00
   -6   -7   11     -2.19      0.00
   -7   -5   11      0.02      0.00
   -6   -3   11      0.66      0.00
   12   -3   11     -0.63      0.00
   -8   -1   11     -2.87      0.00
   -8    2   11     -4.02      0.00
   -3    2   11      1.46      0.00
   -2    2   11      2.16      0.00
   -3    3   11     -0.91      0.00
   -2    3   11      3.08      0.00
   -3    4   11     -3.46      0.00
   -3    6   11     -2.67      0.00
   -4   11   11      2.39      0.00
    0  -11   12     -0.47      0.00
    4  -11   12     -0.75      0.00
   -2  -10   12      1.02      0.00
    8   -9   12     -1.65      0.00
    9   -8   12      0.82      0.00
   12   -1   12     -0.04      0.00
   -3    2   12      1.87      0.00
   -3    3   12      2.46      0.00
   12    3   12      1.07      0.00
   -7    4   12     -0.91      0.00
   -3    4   12     -0.73      0.00
   -2    4   12     -4.80      0.00
   -6    7   12      0.62      0.00
   -4   10   12     -3.02      0.00
    9   10   12     -0.08      0.00
   -3   11   12     -0.04      0.00
    8   11   12      0.52      0.00
    1   13   12     -0.20      0.00
    2   13   12      0.49      0.00
    3   13   12     -0.30      0.00
    4   13   12     -0.45      0.00
    5  -10   13     -1.19      0.00
   -2   -9   13     -1.08      0.00
    7   -9   13     -1.24      0.00
   -2    4   13      4.13      0.00
   -6    5   13      1.75      0.00
   11    6   13     -1.17      0.00
   10    8   13      1.12      0.00
   -4    9   13      1.98      0.00
   -3   10   13     -2.99      0.00
   -2   11   13     -1.74      0.00
    0   12   13     -0.83      0.00
    6   -9   14     -0.63      0.00
   -2   -8   14     -0.17      0.00
   -3   -7   14      1.62      0.00
   -4   -2   14      2.26      0.00
   11   -2   14     -1.45      0.00
   -4   -1   14      1.75      0.00
   -3   -1   14      1.04      0.00
   10    7   14     -0.92      0.00
   -3    9   14      3.70      0.00
   -2   10   14      2.33      0.00
    6   11   14     -0.29      0.00
    0   -8   15     -1.10      0.00
    6   -8   15     -0.81      0.00
    9   -5   15      0.91      0.00
   -4   -3   15     -0.64      0.00
   -4   -2   15     -1.52      0.00
   -4   -1   15     -2.13      0.00
   -3   -1   15     -3.63      0.00
   -2    0   15      1.06      0.00
   -5    1   15      0.52      0.00
   10    6   15     -0.15      0.00
   -3    7   15     -1.26      0.00
    2   11   15     -1.68      0.00
    3   11   15     -0.44      0.00
    4   11   15      1.44      0.00
    6   -7   16      1.28      0.00
   -1   -6   16      1.44      0.00
    7   -6   16      2.21      0.00
   -2   -5   16     -0.67      0.00
    8   -5   16      0.25      0.00
   -3   -3   16      0.08      0.00
   -3   -1   16      1.96      0.00
   10   -1   16     -1.09      0.00
   -3    0   16      0.80      0.00
   -4    1   16      0.97      0.00
   10    4   16      0.57      0.00
   -3    5   16     -0.87      0.00
   -2    7   16      1.47      0.00
    0    9   16     -0.68      0.00
    3   10   16      0.30      0.00
    4   10   16     -0.70      0.00
    2   -6   17     -0.12      0.00
    5   -6   17     -1.10      0.00
    0   -5   17     -0.77      0.00
   -1   -4   17     -0.34      0.00
   -2   -2   17      1.33      0.00
    9   -1   17     -1.64      0.00
   -2    4   17      1.99      0.00
    9    4   17     -1.66      0.00
    8    6   17      1.69      0.00
    1    8   17     -2.83      0.00
    6    8   17     -0.67      0.00
    2   -4   18     -1.84      0.00
    8   -1   18     -0.54      0.00
   -1    0   18     -2.37      0.00
    8    0   18     -0.80      0.00
   -1    1   18     -0.79      0.00
   -1    2   18     -1.50      0.00
   -1    3   18      0.37      0.00
    8    3   18      1.42      0.00
    8    4   18     -0.53      0.00
    0    5   18      0.14      0.00
    1    6   18      2.16      0.00
    2    7   18      0.11      0.00
    3    7   18     -0.26      0.00
    5    7   18      0.83      0.00
    3   -2   19     -0.11      0.00
    4   -2   19     -0.28      0.00
    2   -1   19     -0.34      0.00
    6   -1   19      1.26      0.00
    1    0   19     -1.14      0.00
    6    0   19      1.28      0.00
    1    1   19      1.87      0.00
    1    2   19     -0.96      0.00
    6    3   19     -0.23      0.00
    2    4   19      0.63      0.00
    5    4   19      0.88      0.00
    4    5   19     -0.84      0.00
    0    0    0      0.00      0.00
# SQUEEZE RESULTS (Version = 180518)
# Note: Data are Listed for all Voids in the P1 Unit Cell
# i.e. Centre of Gravity, Solvent Accessible Volume,
# Recovered number of Electrons in the Void and
# Details about the Squeezed Material
loop_
  _platon_squeeze_void_nr
  _platon_squeeze_void_average_x
  _platon_squeeze_void_average_y
  _platon_squeeze_void_average_z
  _platon_squeeze_void_volume
  _platon_squeeze_void_count_electrons
  _platon_squeeze_void_content
   1 -0.046  0.000  0.500       283        99 ' '
   2  0.000  0.500  1.000       132        30 ' '
# Missing Reflections Below sin(th)/lambda = 0.25
loop_
  _platon_missing_refln_index_h
  _platon_missing_refln_index_k
  _platon_missing_refln_index_l
  _platon_missing_refln_theta
    1    0    0     2.148
    0    1    0     1.722
    0    2    0     3.445
    0    0    1     1.439
    0    1    1     2.149
    0    0    2     2.878
_platon_squeeze_void_probe_radius                  1.20
_platon_squeeze_details
)
TITL mo_xjr201674_0m_sP -1         R = 0.03
CELL    9.9328   11.8804   14.8808     84.72     72.68     87.76
SPGR P-1
# Solvent Accessible Volume =       414
# Electrons Found in S.A.V. =       129
# Note: Atoms in Void are Labelled as Cxxx and Qxxx for all Others
Q101 0.182 0.301 0.094 !       2.40 eA-3
C102 0.194 0.920 0.453 !       2.29 eA-3
Q103 0.739 0.233 0.249 !       2.14 eA-3
C104 0.272 0.924 0.377 !       1.98 eA-3
C105 0.319 0.932 0.353 !       1.96 eA-3
Q106 1.009 0.988 0.280 !       1.96 eA-3
C107 0.260 0.935 0.437 !       1.94 eA-3
Q108 0.127 0.875 0.017 !       1.75 eA-3
C109 0.799 0.066 0.437 !       1.74 eA-3
C110 0.840 0.104 0.485 !       1.70 eA-3
C111 0.818 0.097 0.453 !       1.67 eA-3
C112 0.225 0.842 0.486 !       1.65 eA-3
C113 0.735 0.064 0.485 !       1.64 eA-3
C114 0.722 0.985 0.485 !       1.60 eA-3
C115 0.355 0.935 0.410 !       1.57 eA-3
Q116 0.534 0.032 0.109 !       1.56 eA-3
Q117 0.152 0.778 0.046 !       1.55 eA-3
Q118 0.518 0.999 0.096 !       1.49 eA-3
C119 0.356 0.033 0.467 !       1.45 eA-3
Q120 0.464 0.951 0.176 !       1.42 eA-3
Q121 0.693 0.793 0.173 !       1.42 eA-3
C122 0.481 0.923 0.438 !       1.41 eA-3
Q123 0.042 0.871 0.048 !       1.40 eA-3
Q124 0.563 0.917 0.388 !       1.32 eA-3
C125 0.095 0.952 0.467 !       1.31 eA-3
C126 0.465 0.998 0.468 !       1.31 eA-3
C127 0.612 1.002 0.482 !       1.31 eA-3
C128 0.971 0.585 0.095 !       1.30 eA-3
C129 0.526 0.985 0.406 !       1.28 eA-3
Q130 0.351 0.054 0.157 !       1.25 eA-3
C131 0.079 0.890 0.484 !       1.23 eA-3
Q132 0.769 0.127 0.001 !       1.22 eA-3
C133 0.840 0.996 0.454 !       1.22 eA-3
Q134 0.820 0.863 0.404 !       1.20 eA-3
C135 0.419 0.027 0.545 !       1.19 eA-3
Q136 0.834 0.919 0.466 !       1.18 eA-3
C137 0.916 0.048 0.457 !       1.18 eA-3
Q138 0.043 0.013 0.422 !       1.17 eA-3
Q139 0.060 0.908 0.283 !       1.17 eA-3
C140 0.504 0.079 0.501 !       1.17 eA-3
C141 0.861 0.047 0.404 !       1.16 eA-3
Q142 0.968 0.936 0.340 !       1.14 eA-3
Q143 0.154 0.392 0.032 !       1.14 eA-3
C144 0.957 0.467 0.017 !       1.14 eA-3
Q145 0.595 0.112 0.032 !       1.13 eA-3
Q146 0.808 0.972 0.438 !       1.13 eA-3
Q147 0.934 0.420 0.079 !       1.12 eA-3
Q148 0.243 0.061 0.453 !       1.12 eA-3
C149 0.972 0.012 0.484 !       1.11 eA-3
Q150 0.784 0.174 0.028 !       1.11 eA-3
Q151 0.072 0.455 0.015 !       1.11 eA-3
Q152 0.631 0.888 0.423 !       1.10 eA-3
C153 0.082 0.924 0.424 !       1.09 eA-3
C154 0.064 0.594 0.012 !       1.09 eA-3
Q155 0.447 0.045 0.093 !       1.09 eA-3
Q156 0.056 0.630 0.114 !       1.09 eA-3
Q157 0.069 0.814 0.093 !       1.08 eA-3
Q158 0.697 0.471 0.001 !       1.08 eA-3
Q159 0.031 0.841 0.442 !       1.08 eA-3
Q160 0.280 0.654 0.046 !       1.07 eA-3
Q161 0.734 0.939 0.409 !       1.07 eA-3
Q162 0.931 0.018 0.346 !       1.06 eA-3
Q163 0.026 0.680 0.170 !       1.06 eA-3
Q164 0.894 0.641 0.141 !       1.06 eA-3
Q165 0.215 0.018 0.298 !       1.06 eA-3
Q166 0.408 0.108 0.249 !       1.05 eA-3
Q167 0.429 0.046 0.141 !       1.04 eA-3
C168 0.803 0.549 0.017 !       1.04 eA-3
Q169 0.994 0.174 0.359 !       1.04 eA-3
Q170 0.046 0.082 0.455 !       1.04 eA-3
C171 0.806 0.130 0.388 !       1.04 eA-3
C172 0.179 0.520 0.031 !       1.03 eA-3
Q173 0.622 0.035 0.046 !       1.02 eA-3
Q174 0.184 0.393 0.094 !       1.02 eA-3
C175 0.867 0.548 0.064 !       1.01 eA-3
Q176 0.153 0.574 0.144 !       1.01 eA-3
Q177 0.412 0.141 0.376 !       1.01 eA-3
Q178 0.882 0.943 0.390 !       1.01 eA-3
Q179 0.501 0.532 0.142 !       1.01 eA-3
Q180 0.365 0.982 0.221 !       1.00 eA-3
Q181 0.062 0.605 0.188 !       1.00 eA-3
Q182 0.087 1.002 0.329 !       1.00 eA-3
C183 0.583 0.025 0.408 !       0.99 eA-3
Q184 0.566 0.434 0.044 !       0.99 eA-3
Q185 0.879 0.097 0.345 !       0.98 eA-3
Q186 0.135 0.674 0.027 !       0.97 eA-3
Q187 0.566 0.988 0.329 !       0.97 eA-3
Q188 0.068 0.428 0.079 !       0.96 eA-3
Q189 0.528 0.750 0.252 !       0.96 eA-3
Q190 0.123 0.970 0.232 !       0.96 eA-3
Q191 0.417 0.139 0.110 !       0.96 eA-3
Q192 0.369 0.465 0.013 !       0.96 eA-3
Q193 0.120 0.067 0.392 !       0.96 eA-3
Q194 0.386 0.546 0.034 !       0.95 eA-3
Q195 0.826 0.947 0.359 !       0.94 eA-3
C196 0.110 0.589 0.082 !       0.94 eA-3
Q197 0.660 0.266 0.220 !       0.94 eA-3
Q198 0.333 0.857 0.488 !       0.94 eA-3
C199 0.253 0.494 0.018 !       0.93 eA-3
)
;
_shelx_fab_checksum              16275
_platon_squeeze_void_probe_radius 1.20
_olex2_submission_special_instructions 'No special instructions were received'
loop_
_space_group_symop_operation_xyz
'x, y, z'
'-x, -y, -z'
loop_
_atom_site_label
_atom_site_type_symbol
_atom_site_fract_x
_atom_site_fract_y
_atom_site_fract_z
_atom_site_U_iso_or_equiv
_atom_site_adp_type
_atom_site_occupancy
_atom_site_site_symmetry_order
_atom_site_calc_flag
_atom_site_refinement_flags_posn
_atom_site_refinement_flags_adp
O1 O 0.0440(6) 0.1858(4) 0.0541(4) 0.0380(13) Uani 1 1 d . .
Pb1 Pb -0.12912(3) 0.12388(2) -0.01667(2) 0.02422(9) Uani 1 1 d . .
N1 N 0.2072(6) 0.3399(4) 0.4746(4) 0.0278(14) Uani 1 1 d . .
C1 C 0.1047(7) 0.1394(5) 0.1100(5) 0.0250(15) Uani 1 1 d . .
Pb2 Pb 0.56305(3) 0.94764(2) 0.86620(2) 0.02646(9) Uani 1 1 d . .
O2 O 0.1563(6) 0.0403(4) 0.1091(4) 0.0356(12) Uani 1 1 d . .
N2 N 0.3036(7) 0.5568(4) 0.4439(4) 0.0302(14) Uani 1 1 d . .
C2 C 0.1247(7) 0.2080(5) 0.1853(5) 0.0256(15) Uani 1 1 d . .
O3 O 0.4505(8) 0.8549(5) 0.7778(4) 0.0617(18) Uani 1 1 d . .
C3 C 0.1253(8) 0.3251(6) 0.1747(5) 0.0306(17) Uani 1 1 d . .
H3 H 0.105106 0.362532 0.122371 0.037 Uiso 1 1 calc R .
C21 C 0.3352(8) 0.7073(6) 0.7368(5) 0.0325(17) Uani 1 1 d . .
C4 C 0.1550(8) 0.3870(6) 0.2396(5) 0.0320(17) Uani 1 1 d . .
H4 H 0.155106 0.465526 0.230593 0.038 Uiso 1 1 calc R .
O7 O -0.1259(5) -0.0168(4) 0.0983(3) 0.0330(12) Uani 1 1 d . .
C5 C 0.1851(7) 0.3337(5) 0.3193(4) 0.0223(14) Uani 1 1 d . .
O6 O 0.5710(6) 0.7556(4) -0.0460(4) 0.0392(13) Uani 1 1 d . .
C6 C 0.1765(8) 0.2158(6) 0.3339(5) 0.0337(18) Uani 1 1 d . .
H6 H 0.190148 0.178820 0.388433 0.040 Uiso 1 1 calc R .
O5 O 0.4159(5) 0.8844(3) 0.0203(3) 0.0247(10) Uani 1 1 d . .
C7 C 0.1474(8) 0.1536(6) 0.2672(5) 0.0333(18) Uani 1 1 d . .
H7 H 0.143060 0.075204 0.277127 0.040 Uiso 1 1 calc R .
O4 O 0.2776(7) 0.7681(5) 0.8927(4) 0.0541(16) Uani 1 1 d . .
C18 C 0.2946(8) 0.5723(5) 0.6042(5) 0.0271(16) Uani 1 1 d . .
C12 C 0.4745(8) 0.6002(6) 0.1173(5) 0.0326(17) Uani 1 1 d . .
H12 H 0.540995 0.573083 0.065193 0.039 Uiso 1 1 calc R .
C13 C 0.4207(7) 0.7084(5) 0.1104(5) 0.0244(15) Uani 1 1 d . .
C14 C 0.4747(7) 0.7853(5) 0.0214(5) 0.0245(16) Uani 1 1 d . .
C15 C 0.3212(7) 0.7475(5) 0.1878(5) 0.0263(15) Uani 1 1 d . .
H15 H 0.282920 0.819716 0.182866 0.032 Uiso 1 1 calc R .
C16 C 0.2776(8) 0.6821(5) 0.2717(5) 0.0265(15) Uani 1 1 d . .
H16 H 0.212444 0.710610 0.323698 0.032 Uiso 1 1 calc R .
C8 C 0.2258(8) 0.3959(5) 0.3899(5) 0.0257(15) Uani 1 1 d . .
O8 O -0.3464(5) -0.0651(4) 0.1096(4) 0.0356(12) Uani 1 1 d . .
C17 C 0.2779(7) 0.5030(5) 0.5301(4) 0.0254(16) Uani 1 1 d . .
C19 C 0.4016(9) 0.6525(6) 0.5782(5) 0.0380(19) Uani 1 1 d . .
H19 H 0.459785 0.660709 0.516262 0.046 Uiso 1 1 calc R .
C10 C 0.3318(7) 0.5718(5) 0.2789(4) 0.0247(15) Uani 1 1 d . .
C20 C 0.4212(9) 0.7199(6) 0.6446(5) 0.0398(19) Uani 1 1 d . .
H20 H 0.492176 0.773490 0.627063 0.048 Uiso 1 1 calc R .
C9 C 0.2859(8) 0.5038(5) 0.3731(5) 0.0283(16) Uani 1 1 d . .
C22 C 0.2273(9) 0.6289(6) 0.7635(6) 0.0396(19) Uani 1 1 d . .
H22 H 0.168698 0.621269 0.825386 0.047 Uiso 1 1 calc R .
C11 C 0.4313(8) 0.5320(6) 0.1998(5) 0.0325(17) Uani 1 1 d . .
H11 H 0.468111 0.459117 0.203229 0.039 Uiso 1 1 calc R .
C25 C 0.2335(8) 0.3123(5) 0.6294(5) 0.0286(16) Uani 1 1 d . .
C26 C -0.2396(7) -0.0755(5) 0.1363(5) 0.0252(15) Uani 1 1 d . .
C27 C -0.2352(7) -0.1584(5) 0.2172(5) 0.0245(15) Uani 1 1 d . .
C28 C -0.1281(8) -0.1555(6) 0.2612(5) 0.0326(17) Uani 1 1 d . U
H28 H -0.056385 -0.102829 0.238492 0.039 Uiso 1 1 calc R .
C29 C -0.1293(8) -0.2303(6) 0.3374(5) 0.0319(17) Uani 1 1 d . .
H29 H -0.059966 -0.226267 0.367375 0.038 Uiso 1 1 calc R .
C30 C -0.3392(8) -0.3145(6) 0.3268(5) 0.0311(17) Uani 1 1 d . .
H30 H -0.409464 -0.368444 0.348072 0.037 Uiso 1 1 calc R .
C31 C -0.3401(8) -0.2370(6) 0.2519(5) 0.0319(17) Uani 1 1 d . U
H31 H -0.412820 -0.237942 0.224549 0.038 Uiso 1 1 calc R .
C32 C 0.2378(8) 0.3889(5) 0.5438(5) 0.0270(16) Uani 1 1 d . .
C24 C 0.3546(9) 0.7822(6) 0.8098(6) 0.040(2) Uani 1 1 d . .
C23 C 0.2079(9) 0.5619(6) 0.6964(5) 0.0368(18) Uani 1 1 d . .
H23 H 0.135760 0.509365 0.713860 0.044 Uiso 1 1 calc R .
loop_
_atom_site_aniso_label
_atom_site_aniso_U_11
_atom_site_aniso_U_22
_atom_site_aniso_U_33
_atom_site_aniso_U_23
_atom_site_aniso_U_13
_atom_site_aniso_U_12
O1 0.052(3) 0.033(3) 0.045(3) -0.003(2) -0.037(3) -0.009(2)
Pb1 0.03567(17) 0.02080(14) 0.02018(15) 0.00163(10) -0.01483(13) -0.00435(11)
N1 0.044(4) 0.024(3) 0.021(3) 0.005(2) -0.018(3) -0.011(3)
C1 0.028(4) 0.029(4) 0.020(4) -0.007(3) -0.009(3) -0.008(3)
Pb2 0.03690(18) 0.02290(14) 0.02132(15) 0.00128(10) -0.01135(13) -0.00725(11)
O2 0.050(3) 0.027(3) 0.040(3) -0.014(2) -0.025(3) 0.003(2)
N2 0.053(4) 0.023(3) 0.022(3) -0.001(2) -0.021(3) -0.009(3)
C2 0.024(4) 0.027(4) 0.026(4) -0.007(3) -0.009(3) 0.000(3)
O3 0.095(5) 0.056(4) 0.050(4) -0.015(3) -0.041(4) -0.022(4)
C3 0.042(5) 0.037(4) 0.020(4) -0.006(3) -0.019(4) 0.000(3)
C21 0.043(5) 0.028(4) 0.030(4) -0.007(3) -0.017(4) 0.005(3)
C4 0.049(5) 0.022(3) 0.030(4) -0.002(3) -0.019(4) -0.004(3)
O7 0.050(3) 0.026(2) 0.024(3) 0.009(2) -0.014(3) -0.013(2)
C5 0.034(4) 0.021(3) 0.014(3) 0.003(3) -0.012(3) -0.006(3)
O6 0.044(3) 0.034(3) 0.031(3) 0.009(2) -0.002(3) 0.002(2)
C6 0.056(5) 0.028(4) 0.021(4) -0.001(3) -0.019(4) -0.006(3)
O5 0.035(3) 0.020(2) 0.022(2) 0.0047(18) -0.013(2) -0.002(2)
C7 0.051(5) 0.018(3) 0.034(4) 0.000(3) -0.016(4) -0.011(3)
O4 0.062(4) 0.069(4) 0.039(4) -0.039(3) -0.016(3) 0.009(3)
C18 0.040(4) 0.027(4) 0.020(4) -0.002(3) -0.015(4) -0.005(3)
C12 0.041(5) 0.031(4) 0.022(4) -0.001(3) -0.003(4) -0.002(3)
C13 0.034(4) 0.022(3) 0.020(4) 0.004(3) -0.014(3) -0.005(3)
C14 0.027(4) 0.027(4) 0.025(4) 0.010(3) -0.018(4) -0.008(3)
C15 0.031(4) 0.023(3) 0.024(4) 0.002(3) -0.008(3) -0.001(3)
C16 0.034(4) 0.022(3) 0.025(4) -0.005(3) -0.010(3) -0.001(3)
C8 0.039(4) 0.022(3) 0.020(4) -0.002(3) -0.014(3) -0.003(3)
O8 0.042(3) 0.033(3) 0.035(3) 0.004(2) -0.019(3) 0.003(2)
C17 0.039(4) 0.026(3) 0.016(3) 0.000(3) -0.015(3) -0.010(3)
C19 0.055(5) 0.038(4) 0.020(4) -0.004(3) -0.008(4) -0.017(4)
C10 0.037(4) 0.024(3) 0.018(3) 0.002(3) -0.016(3) -0.007(3)
C20 0.043(5) 0.042(4) 0.036(5) -0.012(4) -0.011(4) -0.015(4)
C9 0.043(4) 0.022(3) 0.027(4) 0.001(3) -0.020(4) -0.005(3)
C22 0.042(5) 0.048(5) 0.032(4) -0.007(4) -0.014(4) -0.005(4)
C11 0.048(5) 0.023(4) 0.030(4) -0.001(3) -0.019(4) 0.006(3)
C25 0.043(5) 0.025(3) 0.021(4) 0.003(3) -0.015(4) -0.007(3)
C26 0.032(4) 0.022(3) 0.027(4) -0.002(3) -0.018(3) 0.000(3)
C27 0.031(4) 0.026(3) 0.021(4) 0.005(3) -0.016(3) -0.007(3)
C28 0.040(4) 0.030(4) 0.029(4) 0.010(3) -0.014(4) -0.017(3)
C29 0.037(4) 0.039(4) 0.025(4) 0.006(3) -0.019(4) -0.015(3)
C30 0.040(4) 0.030(4) 0.027(4) 0.006(3) -0.015(4) -0.019(3)
C31 0.032(4) 0.039(4) 0.031(4) 0.006(3) -0.018(4) -0.012(3)
C32 0.044(4) 0.022(3) 0.019(4) -0.001(3) -0.016(3) -0.005(3)
C24 0.050(5) 0.035(4) 0.047(5) -0.017(4) -0.028(5) 0.011(4)
C23 0.046(5) 0.035(4) 0.032(4) -0.004(3) -0.013(4) -0.013(4)
loop_
_atom_type_symbol
_atom_type_description
_atom_type_scat_dispersion_real
_atom_type_scat_dispersion_imag
_atom_type_scat_source
C C 0.0033 0.0016 'International Tables Vol C Tables 4.2.6.8 and 6.1.1.4'
H H 0.0000 0.0000 'International Tables Vol C Tables 4.2.6.8 and 6.1.1.4'
N N 0.0061 0.0033 'International Tables Vol C Tables 4.2.6.8 and 6.1.1.4'
O O 0.0106 0.0060 'International Tables Vol C Tables 4.2.6.8 and 6.1.1.4'
Pb Pb -3.3944 10.1111 'International Tables Vol C Tables 4.2.6.8 and 6.1.1.4'
loop_
_geom_angle_atom_site_label_1
_geom_angle_atom_site_label_2
_geom_angle_atom_site_label_3
_geom_angle
_geom_angle_site_symmetry_1
_geom_angle_site_symmetry_3
C1 O1 Pb1 134.0(4) . .
O1 Pb1 O2 137.13(17) . 2
O7 Pb1 O1 75.90(16) . .
O7 Pb1 O2 83.44(16) . 2
O7 Pb1 O4 87.5(2) . 2_566
O4 Pb1 O1 79.01(19) 2_566 .
O4 Pb1 O2 137.64(19) 2_566 2
C8 N1 C32 120.4(5) . .
O1 C1 O2 126.9(6) . .
O1 C1 C2 117.7(6) . .
O2 C1 C2 115.4(6) . .
O3 Pb2 O6 85.3(2) . 1_556
O3 Pb2 O5 98.16(19) . 1_556
O3 Pb2 C14 92.1(2) . 1_556
O3 Pb2 O8 80.6(2) . 2_566
O6 Pb2 C14 25.90(18) 1_556 1_556
O5 Pb2 O6 53.16(16) 1_556 1_556
O5 Pb2 C14 27.27(18) 1_556 1_556
O5 Pb2 O8 74.81(16) 1_556 2_566
O8 Pb2 O6 123.15(17) 2_566 1_556
O8 Pb2 C14 99.92(19) 2_566 1_556
C1 O2 Pb1 130.3(4) . 2
C9 N2 C17 120.1(5) . .
C3 C2 C1 121.5(6) . .
C3 C2 C7 118.4(6) . .
C7 C2 C1 120.1(6) . .
C24 O3 Pb2 126.1(5) . .
C2 C3 H3 119.3 . .
C4 C3 C2 121.3(6) . .
C4 C3 H3 119.3 . .
C20 C21 C22 120.6(7) . .
C20 C21 C24 120.2(7) . .
C22 C21 C24 119.1(7) . .
C3 C4 H4 119.5 . .
C3 C4 C5 120.9(6) . .
C5 C4 H4 119.5 . .
C26 O7 Pb1 118.2(4) . .
C4 C5 C6 118.3(6) . .
C4 C5 C8 123.5(6) . .
C6 C5 C8 118.2(6) . .
C14 O6 Pb2 90.0(4) . 1_554
C5 C6 H6 119.9 . .
C7 C6 C5 120.3(6) . .
C7 C6 H6 119.9 . .
C14 O5 Pb2 94.8(4) . 1_554
C2 C7 H7 119.7 . .
C6 C7 C2 120.6(6) . .
C6 C7 H7 119.7 . .
C24 O4 Pb1 140.1(5) . 2_566
C19 C18 C17 117.9(6) . .
C23 C18 C17 122.8(6) . .
C23 C18 C19 119.2(6) . .
C13 C12 H12 119.5 . .
C11 C12 H12 119.5 . .
C11 C12 C13 120.9(7) . .
C12 C13 C14 120.7(6) . .
C15 C13 C12 119.1(6) . .
C15 C13 C14 120.1(6) . .
O6 C14 Pb2 64.1(3) . 1_554
O6 C14 O5 122.0(6) . .
O6 C14 C13 121.5(6) . .
O5 C14 Pb2 57.9(3) . 1_554
O5 C14 C13 116.5(6) . .
C13 C14 Pb2 174.1(5) . 1_554
C13 C15 H15 119.4 . .
C16 C15 C13 121.3(6) . .
C16 C15 H15 119.4 . .
C15 C16 H16 120.2 . .
C15 C16 C10 119.7(7) . .
C10 C16 H16 120.2 . .
N1 C8 C5 115.5(5) . .
N1 C8 C9 118.7(6) . .
C9 C8 C5 125.8(6) . .
C26 O8 Pb2 139.9(5) . 2_566
N2 C17 C18 115.2(5) . .
N2 C17 C32 119.1(5) . .
C32 C17 C18 125.8(6) . .
C18 C19 H19 119.9 . .
C20 C19 C18 120.2(7) . .
C20 C19 H19 119.9 . .
C16 C10 C9 118.3(6) . .
C11 C10 C16 118.7(6) . .
C11 C10 C9 122.9(6) . .
C21 C20 C19 119.8(7) . .
C21 C20 H20 120.1 . .
C19 C20 H20 120.1 . .
N2 C9 C8 120.7(6) . .
N2 C9 C10 113.6(5) . .
C8 C9 C10 125.7(6) . .
C21 C22 H22 120.4 . .
C21 C22 C23 119.2(7) . .
C23 C22 H22 120.4 . .
C12 C11 C10 120.2(7) . .
C12 C11 H11 119.9 . .
C10 C11 H11 119.9 . .
C29 C25 C32 120.2(6) 2_556 .
C30 C25 C29 118.7(6) 2_556 2_556
C30 C25 C32 120.9(6) 2_556 .
O7 C26 C27 115.5(6) . .
O8 C26 O7 123.9(6) . .
O8 C26 C27 120.6(6) . .
C28 C27 C26 121.3(6) . .
C31 C27 C26 119.7(6) . .
C31 C27 C28 119.0(6) . .
C27 C28 H28 120.0 . .
C29 C28 C27 120.1(6) . .
C29 C28 H28 120.0 . .
C25 C29 H29 119.6 2_556 .
C28 C29 C25 120.8(6) . 2_556
C28 C29 H29 119.6 . .
C25 C30 H30 119.8 2_556 .
C31 C30 C25 120.4(6) . 2_556
C31 C30 H30 119.8 . .
C27 C31 C30 121.0(6) . .
C27 C31 H31 119.5 . .
C30 C31 H31 119.5 . .
N1 C32 C17 120.0(6) . .
N1 C32 C25 115.0(5) . .
C17 C32 C25 124.9(6) . .
O3 C24 C21 114.6(8) . .
O4 C24 O3 126.3(7) . .
O4 C24 C21 119.1(7) . .
C18 C23 C22 120.9(7) . .
C18 C23 H23 119.6 . .
C22 C23 H23 119.6 . .
loop_
_geom_bond_atom_site_label_1
_geom_bond_atom_site_label_2
_geom_bond_distance
_geom_bond_site_symmetry_2
O1 Pb1 2.435(4) .
O1 C1 1.243(8) .
Pb1 O2 2.554(4) 2
Pb1 O7 2.286(4) .
Pb1 O4 2.428(5) 2_566
N1 C8 1.335(8) .
N1 C32 1.343(8) .
C1 O2 1.265(8) .
C1 C2 1.508(9) .
Pb2 O3 2.331(5) .
Pb2 O6 2.533(5) 1_556
Pb2 O5 2.395(4) 1_556
Pb2 C14 2.816(6) 1_556
Pb2 O8 2.470(5) 2_566
N2 C17 1.337(8) .
N2 C9 1.334(8) .
C2 C3 1.386(9) .
C2 C7 1.401(10) .
O3 C24 1.265(10) .
C3 H3 0.9300 .
C3 C4 1.371(9) .
C21 C20 1.381(10) .
C21 C22 1.389(10) .
C21 C24 1.526(10) .
C4 H4 0.9300 .
C4 C5 1.398(9) .
O7 C26 1.300(8) .
C5 C6 1.401(9) .
C5 C8 1.494(8) .
O6 C14 1.230(8) .
C6 H6 0.9300 .
C6 C7 1.391(9) .
O5 C14 1.295(8) .
C7 H7 0.9300 .
O4 C24 1.243(10) .
C18 C17 1.487(8) .
C18 C19 1.397(9) .
C18 C23 1.383(10) .
C12 H12 0.9300 .
C12 C13 1.380(9) .
C12 C11 1.370(10) .
C13 C14 1.506(9) .
C13 C15 1.379(10) .
C15 H15 0.9300 .
C15 C16 1.370(9) .
C16 H16 0.9300 .
C16 C10 1.404(9) .
C8 C9 1.405(9) .
O8 C26 1.238(8) .
C17 C32 1.407(9) .
C19 H19 0.9300 .
C19 C20 1.389(9) .
C10 C9 1.505(9) .
C10 C11 1.399(10) .
C20 H20 0.9300 .
C22 H22 0.9300 .
C22 C23 1.392(10) .
C11 H11 0.9300 .
C25 C29 1.397(9) 2_556
C25 C30 1.393(9) 2_556
C25 C32 1.486(9) .
C26 C27 1.494(9) .
C27 C28 1.408(9) .
C27 C31 1.375(9) .
C28 H28 0.9300 .
C28 C29 1.373(9) .
C29 H29 0.9300 .
C30 H30 0.9300 .
C30 C31 1.380(9) .
C31 H31 0.9300 .
C23 H23 0.9300 .
loop_
_geom_torsion_atom_site_label_1
_geom_torsion_atom_site_label_2
_geom_torsion_atom_site_label_3
_geom_torsion_atom_site_label_4
_geom_torsion
_geom_torsion_site_symmetry_1
_geom_torsion_site_symmetry_4
O1 C1 O2 Pb1 -11.7(11) . 2
O1 C1 C2 C3 -23.3(10) . .
O1 C1 C2 C7 158.7(7) . .
Pb1 O1 C1 O2 42.4(11) . .
Pb1 O1 C1 C2 -139.8(5) . .
Pb1 O7 C26 O8 5.2(9) . .
Pb1 O7 C26 C27 -174.3(4) . .
Pb1 O4 C24 O3 49.2(13) 2_566 .
Pb1 O4 C24 C21 -130.5(7) 2_566 .
N1 C8 C9 N2 -10.4(11) . .
N1 C8 C9 C10 171.4(7) . .
C1 C2 C3 C4 -174.5(7) . .
C1 C2 C7 C6 175.2(7) . .
Pb2 O3 C24 C21 -160.2(5) . .
Pb2 O3 C24 O4 20.2(12) . .
Pb2 O6 C14 O5 1.3(6) 1_554 .
Pb2 O6 C14 C13 -177.8(5) 1_554 .
Pb2 O5 C14 O6 -1.4(6) 1_554 .
Pb2 O5 C14 C13 177.8(5) 1_554 .
Pb2 O8 C26 O7 -85.1(9) 2_566 .
Pb2 O8 C26 C27 94.4(8) 2_566 .
O2 C1 C2 C3 154.8(7) . .
O2 C1 C2 C7 -23.3(10) . .
N2 C17 C32 N1 -9.0(11) . .
N2 C17 C32 C25 167.3(7) . .
C2 C1 O2 Pb1 170.5(4) . 2
C2 C3 C4 C5 -0.3(12) . .
C3 C2 C7 C6 -3.0(11) . .
C3 C4 C5 C6 -3.5(11) . .
C3 C4 C5 C8 176.6(7) . .
C21 C22 C23 C18 0.1(12) . .
C4 C5 C6 C7 4.1(11) . .
C4 C5 C8 N1 159.4(7) . .
C4 C5 C8 C9 -23.4(11) . .
O7 C26 C27 C28 12.9(10) . .
O7 C26 C27 C31 -169.3(7) . .
C5 C6 C7 C2 -0.8(12) . .
C5 C8 C9 N2 172.5(7) . .
C5 C8 C9 C10 -5.8(12) . .
C6 C5 C8 N1 -20.4(10) . .
C6 C5 C8 C9 156.8(7) . .
C7 C2 C3 C4 3.6(11) . .
C18 C17 C32 N1 170.7(7) . .
C18 C17 C32 C25 -13.0(12) . .
C18 C19 C20 C21 0.3(12) . .
C12 C13 C14 O6 -2.5(10) . .
C12 C13 C14 O5 178.3(6) . .
C12 C13 C15 C16 1.7(10) . .
C13 C12 C11 C10 -0.4(11) . .
C13 C15 C16 C10 -1.8(10) . .
C14 C13 C15 C16 -175.3(6) . .
C15 C13 C14 O6 174.4(6) . .
C15 C13 C14 O5 -4.8(9) . .
C15 C16 C10 C9 177.8(6) . .
C15 C16 C10 C11 0.9(10) . .
C16 C10 C9 N2 -52.7(9) . .
C16 C10 C9 C8 125.6(8) . .
C16 C10 C11 C12 0.2(10) . .
C8 N1 C32 C17 5.5(11) . .
C8 N1 C32 C25 -171.1(7) . .
C8 C5 C6 C7 -176.1(7) . .
O8 C26 C27 C28 -166.7(7) . .
O8 C26 C27 C31 11.2(10) . .
C17 N2 C9 C8 6.9(11) . .
C17 N2 C9 C10 -174.6(7) . .
C17 C18 C19 C20 179.6(7) . .
C17 C18 C23 C22 -179.8(7) . .
C19 C18 C17 N2 -35.6(10) . .
C19 C18 C17 C32 144.6(8) . .
C19 C18 C23 C22 -0.9(12) . .
C20 C21 C22 C23 0.9(12) . .
C20 C21 C24 O3 1.6(11) . .
C20 C21 C24 O4 -178.8(8) . .
C9 N2 C17 C18 -177.2(7) . .
C9 N2 C17 C32 2.6(11) . .
C9 C10 C11 C12 -176.5(6) . .
C22 C21 C20 C19 -1.1(12) . .
C22 C21 C24 O3 -176.4(7) . .
C22 C21 C24 O4 3.3(11) . .
C11 C12 C13 C14 176.4(6) . .
C11 C12 C13 C15 -0.5(10) . .
C11 C10 C9 N2 124.0(7) . .
C11 C10 C9 C8 -57.7(10) . .
C25 C30 C31 C27 1.9(12) 2_556 .
C26 C27 C28 C29 177.8(7) . .
C26 C27 C31 C30 -179.8(7) . .
C27 C28 C29 C25 2.1(12) . 2_556
C28 C27 C31 C30 -2.0(11) . .
C29 C25 C32 N1 -38.8(10) 2_556 .
C29 C25 C32 C17 144.7(8) 2_556 .
C30 C25 C32 N1 135.7(7) 2_556 .
C30 C25 C32 C17 -40.7(11) 2_556 .
C31 C27 C28 C29 0.0(11) . .
C32 N1 C8 C5 -178.7(6) . .
C32 N1 C8 C9 3.9(11) . .
C24 C21 C20 C19 -179.1(7) . .
C24 C21 C22 C23 178.9(7) . .
C23 C18 C17 N2 143.3(7) . .
C23 C18 C17 C32 -36.4(11) . .
C23 C18 C19 C20 0.7(12) . .
loop_
_platon_squeeze_void_nr
_platon_squeeze_void_average_x
_platon_squeeze_void_average_y
_platon_squeeze_void_average_z
_platon_squeeze_void_volume
_platon_squeeze_void_count_electrons
_platon_squeeze_void_content
1 -0.046 0.000 0.500 283 99 ' '
2 0.000 0.500 1.000 132 30 ' '
