#------------------------------------------------------------------------------
#$Date: 2018-11-22 01:52:04 +0200 (Thu, 22 Nov 2018) $
#$Revision: 212093 $
#$URL: file:///home/coder/svn-repositories/cod/cif/7/23/18/7231850.cif $
#------------------------------------------------------------------------------
#
# This file is available in the Crystallography Open Database (COD),
# http://www.crystallography.net/
#
# All data on this site have been placed in the public domain by the
# contributors.
#
data_7231850
loop_
_publ_author_name
'wang, tao'
'Huang, Kun'
'Peng, Mengni'
'Li, Xianglin'
'Han, Defang'
'jing, linhai'
'Qin, Dabin'
_publ_section_title
;
 Metal-Organic Frameworks Based on Tetraphenylpyrazine Derived
 Tetracarboxylic Acid for Electrocatalytic Hydrogen Evolution Reaction and
 NACs Sensing
;
_journal_name_full               CrystEngComm
_journal_paper_doi               10.1039/C8CE01868E
_journal_year                    2018
_chemical_formula_moiety         'C64 H45 N4 O22 Sr3'
_chemical_formula_sum            'C64 H45 N4 O22 Sr3'
_chemical_formula_weight         1484.91
_space_group_crystal_system      triclinic
_space_group_IT_number           2
_space_group_name_Hall           '-P 1'
_space_group_name_H-M_alt        'P -1'
_symmetry_space_group_name_Hall  '-P 1'
_symmetry_space_group_name_H-M   'P -1'
_atom_sites_solution_hydrogens   mixed
_audit_creation_date             2017-04-24
_audit_creation_method
;
Olex2 1.2-beta
(compiled 2016.11.30 svn.r3356 for OlexSys, GUI svn.r5269)
;
_audit_update_record
;
2018-05-29 deposited with the CCDC.
2018-11-21 downloaded from the CCDC.
;
_cell_angle_alpha                83.274(5)
_cell_angle_beta                 75.950(5)
_cell_angle_gamma                82.588(4)
_cell_formula_units_Z            2
_cell_length_a                   11.9979(14)
_cell_length_b                   17.366(2)
_cell_length_c                   17.573(2)
_cell_measurement_reflns_used    3580
_cell_measurement_temperature    273(2)
_cell_measurement_theta_max      27.54
_cell_measurement_theta_min      2.35
_cell_volume                     3508.2(7)
_computing_molecular_graphics    'Olex2 (Dolomanov et al., 2009)'
_computing_publication_material  'Olex2 (Dolomanov et al., 2009)'
_computing_structure_refinement  'ShelXL (Sheldrick, 2015)'
_diffrn_ambient_temperature      273.15
_diffrn_measured_fraction_theta_full 0.999
_diffrn_measured_fraction_theta_max 0.998
_diffrn_measurement_device_type  'Bruker APEX-II CCD'
_diffrn_radiation_type           MoK\a
_diffrn_radiation_wavelength     0.71073
_diffrn_reflns_av_R_equivalents  0.0555
_diffrn_reflns_av_unetI/netI     0.0237
_diffrn_reflns_Laue_measured_fraction_full 0.999
_diffrn_reflns_Laue_measured_fraction_max 0.998
_diffrn_reflns_limit_h_max       14
_diffrn_reflns_limit_h_min       -14
_diffrn_reflns_limit_k_max       20
_diffrn_reflns_limit_k_min       -20
_diffrn_reflns_limit_l_max       21
_diffrn_reflns_limit_l_min       -21
_diffrn_reflns_number            168698
_diffrn_reflns_point_group_measured_fraction_full 0.999
_diffrn_reflns_point_group_measured_fraction_max 0.998
_diffrn_reflns_theta_full        25.242
_diffrn_reflns_theta_max         25.427
_diffrn_reflns_theta_min         2.223
_exptl_absorpt_coefficient_mu    2.346
_exptl_absorpt_correction_T_max  0.3108
_exptl_absorpt_correction_T_min  0.2133
_exptl_absorpt_correction_type   multi-scan
_exptl_crystal_colour            colourless
_exptl_crystal_density_diffrn    1.408
_exptl_crystal_density_method    'not measured'
_exptl_crystal_description       block
_exptl_crystal_F_000             1498
_exptl_crystal_size_max          0.28
_exptl_crystal_size_mid          0.24
_exptl_crystal_size_min          0.23
_refine_diff_density_max         0.609
_refine_diff_density_min         -0.588
_refine_diff_density_rms         0.072
_refine_ls_extinction_method     none
_refine_ls_goodness_of_fit_ref   1.041
_refine_ls_hydrogen_treatment    constr
_refine_ls_matrix_type           full
_refine_ls_number_parameters     845
_refine_ls_number_reflns         12925
_refine_ls_number_restraints     0
_refine_ls_restrained_S_all      1.041
_refine_ls_R_factor_all          0.0360
_refine_ls_R_factor_gt           0.0293
_refine_ls_shift/su_max          0.001
_refine_ls_shift/su_mean         0.000
_refine_ls_structure_factor_coef Fsqd
_refine_ls_weighting_details
'w=1/[\s^2^(Fo^2^)+(0.0450P)^2^+2.6428P] where P=(Fo^2^+2Fc^2^)/3'
_refine_ls_weighting_scheme      calc
_refine_ls_wR_factor_gt          0.0809
_refine_ls_wR_factor_ref         0.0847
_reflns_Friedel_coverage         0.000
_reflns_number_gt                11278
_reflns_number_total             12925
_reflns_threshold_expression     'I > 2\s(I)'
_cod_data_source_file            c8ce01868e2.cif
_cod_data_source_block           mo_xjr20161025sr_0m_sq
_cod_original_cell_volume        3508.4(8)
_cod_database_code               7231850
_shelx_space_group_comment
;
The symmetry employed for this shelxl refinement is uniquely defined
by the following loop, which should always be used as a source of
symmetry information in preference to the above space-group names.
They are only intended as comments.
;
_olex2_refinement_description
;
1. Fixed Uiso
 At 1.2 times of:
  All C(H) groups
 At 1.5 times of:
  All O(H) groups, All O(H,H) groups
2.a Rotating group:
 O11(H11A,H11B), O16(H16A,H16B), O18(H18A,H18B), O19(H19A,H19B), O87(H87A,
 H87B), O90(H90A,H90B)
2.b Aromatic/amide H refined with riding coordinates:
 C24(H24), C25(H25), C26(H26), C27(H27), C33(H33), C34(H34), C36(H36),
 C37(H37), C45(H45), C46(H46), C47(H47), C48(H48), C50(H50), C51(H51), C52(H52),
  C53(H53), C55(H55), C56(H56), C64(H64), C65(H65), C67(H67), C68(H68),
 C72(H72), C73(H73), C75(H75), C76(H76), C81(H81), C82(H82), C83(H83), C84(H84),
  C85(H85), C86(H86)
2.c Idealised tetrahedral OH refined as rotating group:
 O22(H22)
;
_shelx_res_file
;
    mo_xjr20161025sr_0m_sq.res created by SHELXL-2014/7

TITL mo_xjr20161025Sr_0m in P-1
CELL 0.71073 11.9979 17.3664 17.5735 83.274 75.95 82.588
ZERR 2 0.0014 0.0022 0.0023 0.005 0.005 0.004
LATT 1
SFAC C H N O Sr
UNIT 128 94 8 44 6
EQIV $1 1-X,-Y,-Z

L.S. 5 0 70
PLAN  -10 0 0
TEMP 0
HTAB O90 O89_$1
HTAB O18 O31
HTAB O22 O29
FREE H11b Sr3
FREE Sr1 H87a
FREE Sr1 H87b
FREE Sr3 H11a
FREE Sr3 H16b
FREE Sr3 H16a
HTAB
BOND $H
CONF
ABIN
fmap 2
acta
REM <olex2.extras>
REM <HklSrc "%.\\mo_xjr20161025Sr_0m_sq.hkl">
REM </olex2.extras>

WGHT    0.045000    2.642800
FVAR       0.09086
SR1   5    0.387029   -0.037739    0.101942    11.00000    0.03497    0.01790 =
         0.03566   -0.00019   -0.01200   -0.00951
SR2   5    0.379251    0.078291    0.294322    11.00000    0.02839    0.01786 =
         0.03251   -0.00691   -0.00552   -0.00041
SR3   5    0.127697   -0.047224    0.412050    11.00000    0.03025    0.01966 =
         0.03062   -0.00363   -0.00603    0.00042
O1    4    0.553255    0.054697    0.044366    11.00000    0.03977    0.02212 =
         0.03617   -0.00974   -0.00615   -0.01042
C2    1    0.513488    0.106222    0.091759    11.00000    0.03249    0.01647 =
         0.03057    0.00069   -0.01365   -0.00639
O3    4    0.422906    0.100499    0.145184    11.00000    0.03769    0.02273 =
         0.03668   -0.00222   -0.00217   -0.01061
O4    4    0.236045    0.070807    0.425427    11.00000    0.03601    0.03130 =
         0.04181   -0.01588    0.00504   -0.00800
C5    1    0.152587    0.102909    0.473600    11.00000    0.03142    0.02109 =
         0.03321   -0.00377   -0.00581   -0.00312
O6    4    0.056102    0.076556    0.494834    11.00000    0.03103    0.02706 =
         0.05077   -0.01353   -0.00094   -0.00765
O7    4    0.327985   -0.086352    0.351738    11.00000    0.06042    0.06292 =
         0.06069   -0.00076    0.00634    0.03805
C8    1    0.407094   -0.104407    0.294578    11.00000    0.03797    0.02896 =
         0.03707   -0.00859   -0.01350    0.01168
C9    1    0.476260    0.818264    0.302450    11.00000    0.03338    0.02294 =
         0.03148   -0.00454   -0.00677    0.00777
O10   4    0.434655   -0.058284    0.234676    11.00000    0.05961    0.01936 =
         0.04234   -0.00353   -0.02089    0.00745
O11   4    0.178100   -0.097810    0.541469    11.00000    0.04010    0.07627 =
         0.04705    0.00673   -0.01697    0.00988
AFIX   7
H11A  2    0.127107   -0.078382    0.580169    11.00000   -1.50000
H11B  2    0.244978   -0.084707    0.542160    11.00000   -1.50000
AFIX   0
O12   4    0.182608    0.050864    0.264082    11.00000    0.04482    0.03012 =
         0.07689    0.00210   -0.03560    0.00087
C13   1    0.076191    0.068936    0.275986    11.00000    0.04852    0.02981 =
         0.04517   -0.00061   -0.02887   -0.00463
O14   4    0.004392    0.034874    0.329998    11.00000    0.05817    0.06225 =
         0.05792    0.02670   -0.02170   -0.00140
C15   1    1.027954    0.135699    0.226106    11.00000    0.03613    0.02148 =
         0.03544   -0.00311   -0.01699   -0.00048
O16   4    0.106918   -0.143651    0.318293    11.00000    0.26940    0.12950 =
         0.07884   -0.05124   -0.01435   -0.09783
AFIX   7
H16A  2    0.112412   -0.190331    0.340494    11.00000   -1.50000
H16B  2    0.160981   -0.140094    0.276254    11.00000   -1.50000
AFIX   0
C17   1    0.829989    0.826010    0.491858    11.00000    0.03149    0.02011 =
         0.04155   -0.00882   -0.00519   -0.00135
O18   4    0.500149   -0.000046    0.394472    11.00000    0.12115    0.05890 =
         0.13739   -0.00476   -0.07657   -0.01113
AFIX   7
H18A  2    0.459170   -0.034457    0.426381    11.00000   -1.50000
H18B  2    0.518837    0.032154    0.423433    11.00000   -1.50000
AFIX   0
O19   4    0.616456    0.049853    0.239205    11.00000    0.08501    0.14066 =
         0.13978   -0.03315   -0.03951    0.00292
AFIX   7
H19A  2    0.669745    0.075638    0.251990    11.00000   -1.50000
H19B  2    0.652766    0.013388    0.205781    11.00000   -1.50000
AFIX   0
O20   4    0.259163    0.214143    0.295656    11.00000    0.03917    0.02807 =
         0.07037   -0.02205   -0.02368    0.01315
C21   1    0.255147    0.275782    0.323349    11.00000    0.03216    0.02191 =
         0.04785   -0.00272   -0.01358    0.00460
O22   4    0.343789    0.298594    0.341886    11.00000    0.03447    0.02705 =
         0.10625   -0.01805   -0.03208    0.00828
AFIX 147
H22   2    0.392796    0.261358    0.344071    11.00000   -1.50000
AFIX   0
C23   1    0.149608    0.331678    0.339051    11.00000    0.03216    0.02247 =
         0.04562   -0.00812   -0.01436    0.00665
C24   1    0.140665    0.392881    0.384899    11.00000    0.04106    0.03570 =
         0.07914   -0.02653   -0.03533    0.01254
AFIX  43
H24   2    0.202141    0.400100    0.406005    11.00000   -1.20000
AFIX   0
C25   1    1.040275    0.443194    0.399235    11.00000    0.04355    0.03402 =
         0.07635   -0.03140   -0.03093    0.01293
AFIX  43
H25   2    1.034417    0.483618    0.430795    11.00000   -1.20000
AFIX   0
C26   1    0.057838    0.322104    0.308295    11.00000    0.04538    0.03687 =
         0.07225   -0.03329   -0.02993    0.01627
AFIX  43
H26   2    0.062669    0.280394    0.278528    11.00000   -1.20000
AFIX   0
C27   1   -0.040745    0.373110    0.320823    11.00000    0.03894    0.04339 =
         0.07087   -0.03349   -0.03089    0.01489
AFIX  43
H27   2   -0.100846    0.366691    0.298000    11.00000   -1.20000
AFIX   0
C28   1    0.948421    0.434456    0.367461    11.00000    0.03284    0.02020 =
         0.04631   -0.00978   -0.01641    0.00590
O29   4    0.493786    0.177621    0.339967    11.00000    0.02970    0.02547 =
         0.07378   -0.01016   -0.02387    0.00046
C30   1    0.570598    0.180403    0.377679    11.00000    0.02648    0.02433 =
         0.06540   -0.00911   -0.01680    0.00212
O31   4    0.611247    0.123152    0.414860    11.00000    0.07017    0.02616 =
         0.13980    0.00279   -0.07256   -0.00673
C32   1    0.613091    0.258805    0.376616    11.00000    0.02347    0.02257 =
         0.05033   -0.00799   -0.01148    0.00036
C33   1    0.599181    0.317061    0.317766    11.00000    0.03138    0.03529 =
         0.04158   -0.00681   -0.01545   -0.00632
AFIX  43
H33   2    0.562598    0.307702    0.279275    11.00000   -1.20000
AFIX   0
C34   1    0.638417    0.388456    0.315161    11.00000    0.03569    0.02823 =
         0.04116   -0.00001   -0.01596   -0.00154
AFIX  43
H34   2    0.628151    0.426782    0.275104    11.00000   -1.20000
AFIX   0
C35   1    0.693334    0.403711    0.372026    11.00000    0.02935    0.02062 =
         0.04736   -0.00859   -0.01388    0.00324
C36   1    0.706792    0.345696    0.431447    11.00000    0.05596    0.02677 =
         0.05455   -0.00410   -0.03390   -0.00314
AFIX  43
H36   2    0.743013    0.355113    0.470107    11.00000   -1.20000
AFIX   0
C37   1    0.666919    0.274030    0.433787    11.00000    0.05252    0.02306 =
         0.05610    0.00154   -0.02988   -0.00309
AFIX  43
H37   2    0.676322    0.235752    0.474067    11.00000   -1.20000
AFIX   0
C38   1    0.735514    0.480942    0.368342    11.00000    0.03167    0.01961 =
         0.04173   -0.00807   -0.01392    0.00391
C39   1    0.844951    0.492743    0.378617    11.00000    0.03405    0.01953 =
         0.04303   -0.00959   -0.01640    0.00485
N40   3    0.861605    0.562745    0.396177    11.00000    0.03155    0.02068 =
         0.05053   -0.01309   -0.01510    0.00462
C41   1    0.780946    0.622673    0.393037    11.00000    0.03006    0.01972 =
         0.04480   -0.00962   -0.00876    0.00255
C42   1    0.686518    0.614155    0.360960    11.00000    0.02869    0.01868 =
         0.04367   -0.00675   -0.00887    0.00393
N43   3    0.661556    0.542806    0.354240    11.00000    0.03082    0.01920 =
         0.04750   -0.00640   -0.01419    0.00348
C44   1    0.611826    0.681752    0.334662    11.00000    0.03080    0.01881 =
         0.03992   -0.00788   -0.01018    0.00480
C45   1    0.493464    0.686547    0.361354    11.00000    0.03373    0.02777 =
         0.05574    0.00835   -0.01158   -0.00291
AFIX  43
H45   2    0.458690    0.643640    0.389244    11.00000   -1.20000
AFIX   0
C46   1    0.426410    0.754948    0.346761    11.00000    0.02453    0.03738 =
         0.05426    0.00691   -0.00364    0.00671
AFIX  43
H46   2    0.346912    0.758521    0.366914    11.00000   -1.20000
AFIX   0
C47   1    0.593521    0.811130    0.269743    11.00000    0.03911    0.02090 =
         0.04118   -0.00022   -0.00323    0.00180
AFIX  43
H47   2    0.626832    0.851593    0.236002    11.00000   -1.20000
AFIX   0
C48   1    0.661631    0.743936    0.287028    11.00000    0.02663    0.02677 =
         0.05037   -0.00540   -0.00266    0.00408
AFIX  43
H48   2    0.741095    0.740305    0.266714    11.00000   -1.20000
AFIX   0
C49   1    0.796902    0.694600    0.425409    11.00000    0.03244    0.01866 =
         0.04915   -0.01090   -0.00923    0.00131
C50   1    0.703215    0.745185    0.459981    11.00000    0.02679    0.02989 =
         0.05636   -0.01753   -0.00706   -0.00202
AFIX  43
H50   2    0.628541    0.735198    0.460972    11.00000   -1.20000
AFIX   0
C51   1    0.720111    0.809875    0.492727    11.00000    0.02949    0.02818 =
         0.05022   -0.01800   -0.00193    0.00148
AFIX  43
H51   2    0.656681    0.842999    0.515658    11.00000   -1.20000
AFIX   0
C52   1    0.924121    0.774936    0.459615    11.00000    0.02908    0.03031 =
         0.07704   -0.02111   -0.01015   -0.00194
AFIX  43
H52   2    0.998417    0.784415    0.460245    11.00000   -1.20000
AFIX   0
C53   1    0.907556    0.710041    0.426589    11.00000    0.03258    0.02686 =
         0.07989   -0.02471   -0.01160    0.00684
AFIX  43
H53   2    0.971049    0.676306    0.404910    11.00000   -1.20000
AFIX   0
C54   1    0.578619    0.175565    0.085983    11.00000    0.03341    0.01817 =
         0.02779   -0.00061   -0.01154   -0.00685
C55   1    0.522601    0.243695    0.118280    11.00000    0.02797    0.02130 =
         0.04325   -0.00494   -0.00699   -0.00504
AFIX  43
H55   2    0.443318    0.247934    0.139393    11.00000   -1.20000
AFIX   0
C56   1    0.585597    0.305274    0.118836    11.00000    0.03192    0.01681 =
         0.04584   -0.00445   -0.01322   -0.00159
AFIX  43
H56   2    0.547448    0.351451    0.138454    11.00000   -1.20000
AFIX   0
C57   1    0.704209    0.298933    0.090647    11.00000    0.03205    0.01438 =
         0.03364    0.00183   -0.01409   -0.00547
C58   1    0.771368    0.361030    0.102301    11.00000    0.03030    0.01578 =
         0.03282   -0.00072   -0.00899   -0.00430
C59   1    0.879709    0.346377    0.121377    11.00000    0.02973    0.01606 =
         0.03496   -0.00372   -0.00846   -0.00290
N60   3    0.938735    0.405836    0.125220    11.00000    0.02957    0.01891 =
         0.03988   -0.00383   -0.01030   -0.00535
C61   1    0.888976    0.479094    0.117958    11.00000    0.03173    0.01733 =
         0.03730   -0.00407   -0.00639   -0.00673
C62   1    0.776427    0.493435    0.105526    11.00000    0.03180    0.01567 =
         0.03684    0.00014   -0.00813   -0.00565
C63   1    0.709740    0.571955    0.102078    11.00000    0.03316    0.01658 =
         0.04346   -0.00221   -0.01047   -0.00394
C64   1    0.754227    0.634735    0.052048    11.00000    0.04661    0.02102 =
         0.05927    0.00264    0.01069    0.00017
AFIX  43
H64   2    0.827561    0.628143    0.019083    11.00000   -1.20000
AFIX   0
C65   1    0.690096    0.706504    0.051193    11.00000    0.05258    0.01771 =
         0.05641    0.00676    0.00769   -0.00377
AFIX  43
H65   2    0.721255    0.747888    0.017784    11.00000   -1.20000
AFIX   0
C66   1    0.580587    0.718288    0.098866    11.00000    0.03858    0.01674 =
         0.03914   -0.00070   -0.01104   -0.00363
C67   1    0.535723    0.655896    0.148194    11.00000    0.02816    0.02371 =
         0.05371    0.00535   -0.00624   -0.00153
AFIX  43
H67   2    0.462119    0.662534    0.180793    11.00000   -1.20000
AFIX   0
C68   1    0.599902    0.583688    0.149220    11.00000    0.03117    0.02074 =
         0.05783    0.01091   -0.01045   -0.00705
AFIX  43
H68   2    0.568344    0.542266    0.182348    11.00000   -1.20000
AFIX   0
C69   1    0.513876   -0.202446    0.099182    11.00000    0.03800    0.01846 =
         0.03636   -0.00163   -0.01252   -0.00238
N70   3    0.720468    0.434312    0.096137    11.00000    0.03157    0.01650 =
         0.04066    0.00031   -0.01239   -0.00521
C71   1    0.959703    0.539791    0.128541    11.00000    0.03084    0.02011 =
         0.04136   -0.00443   -0.00642   -0.00731
C72   1    1.077090    0.533541    0.093659    11.00000    0.03352    0.02646 =
         0.05312   -0.01580   -0.00556   -0.00267
AFIX  43
H72   2    1.109923    0.491855    0.064064    11.00000   -1.20000
AFIX   0
C73   1    1.145666    0.588381    0.102338    11.00000    0.02708    0.03129 =
         0.05479   -0.01140   -0.00206   -0.00845
AFIX  43
H73   2    1.223999    0.583703    0.078161    11.00000   -1.20000
AFIX   0
C74   1    1.098445    0.650189    0.146783    11.00000    0.03368    0.02538 =
         0.05320   -0.00897   -0.00648   -0.01207
C75   1    0.982362    0.655359    0.183901    11.00000    0.03649    0.03808 =
         0.07475   -0.03072    0.00359   -0.01104
AFIX  43
H75   2    0.950376    0.695950    0.215180    11.00000   -1.20000
AFIX   0
C76   1    0.913422    0.600572    0.174846    11.00000    0.03026    0.03840 =
         0.06828   -0.02397    0.00496   -0.01214
AFIX  43
H76   2    0.835479    0.604646    0.200056    11.00000   -1.20000
AFIX   0
C77   1    1.169341    0.712274    0.153797    11.00000    0.04067    0.02969 =
         0.06368   -0.01207   -0.00690   -0.01387
O78   4    1.278786    0.697370    0.126663    11.00000    0.03449    0.03219 =
         0.08087   -0.01051   -0.01555   -0.01020
O79   4    1.124687    0.773293    0.181572    11.00000    0.05370    0.05152 =
         0.16393   -0.05703    0.01122   -0.02497
C80   1    0.931657    0.268839    0.149594    11.00000    0.03012    0.01576 =
         0.03390   -0.00456   -0.01049   -0.00239
C81   1    1.050227    0.247298    0.131275    11.00000    0.03075    0.02489 =
         0.04034    0.00010   -0.00478   -0.00313
AFIX  43
H81   2    1.098164    0.277870    0.093457    11.00000   -1.20000
AFIX   0
C82   1    1.097923    0.180900    0.168605    11.00000    0.02864    0.02705 =
         0.04134   -0.00590   -0.00972    0.00263
AFIX  43
H82   2    1.177167    0.166704    0.154956    11.00000   -1.20000
AFIX   0
C83   1    0.909714    0.155332    0.242462    11.00000    0.03603    0.03610 =
         0.03998    0.01129   -0.01278   -0.00726
AFIX  43
H83   2    0.861837    0.123996    0.279435    11.00000   -1.20000
AFIX   0
C84   1    0.861781    0.220793    0.204670    11.00000    0.02717    0.03333 =
         0.04133    0.00375   -0.00801   -0.00147
AFIX  43
H84   2    0.782020    0.232882    0.216142    11.00000   -1.20000
AFIX   0
C85   1    0.759138    0.232362    0.054246    11.00000    0.02953    0.02369 =
         0.03668   -0.00426   -0.00635   -0.00724
AFIX  43
H85   2    0.838085    0.228730    0.031944    11.00000   -1.20000
AFIX   0
C86   1    0.695874    0.171559    0.051344    11.00000    0.03377    0.02081 =
         0.03341   -0.00802   -0.00733   -0.00534
AFIX  43
H86   2    0.732437    0.127874    0.025990    11.00000   -1.20000
AFIX   0
O87   4    0.181379   -0.075521    0.134675    11.00000    0.04755    0.04177 =
         0.12437   -0.00988    0.01180   -0.01449
AFIX   7
H87A  2    0.134008   -0.038431    0.156334    11.00000   -1.50000
H87B  2    0.176358   -0.117021    0.166755    11.00000   -1.50000
AFIX   0
O88   4    0.405225   -0.195415    0.125081    11.00000    0.03368    0.02007 =
         0.06127   -0.00320   -0.01601   -0.00397
O89   4    0.567946   -0.144021    0.075156    11.00000    0.04238    0.01626 =
         0.06066    0.00243   -0.00505   -0.00512
O90   4    0.264151    0.068670    0.030042    11.00000    0.04182    0.04659 =
         0.07073    0.00506   -0.00862   -0.00119
AFIX   7
H90A  2    0.219227    0.046980    0.009145    11.00000   -1.50000
H90B  2    0.309231    0.095197   -0.006771    11.00000   -1.50000
AFIX   0
HKLF 4

REM  mo_xjr20161025Sr_0m in P-1
REM R1 =  0.0293 for   11278 Fo > 4sig(Fo)  and  0.0360 for all   12925 data
REM    845 parameters refined using      0 restraints

END

WGHT      0.0450      2.6428

REM Instructions for potential hydrogen bonds
HTAB O18 O31
HTAB O22 O29
HTAB O90 O89_$1

REM Highest difference peak  0.609,  deepest hole -0.588,  1-sigma level  0.072
Q1    1   0.5732  0.0122  0.3208  11.00000  0.05    0.61
Q2    1   0.2731 -0.1236  0.3359  11.00000  0.05    0.52
Q3    1   1.3241  0.7370  0.1292  11.00000  0.05    0.52
Q4    1   1.1621  0.7288  0.2292  11.00000  0.05    0.34
Q5    1   0.6641  0.1249  0.3655  11.00000  0.05    0.33
Q6    1   0.2204  0.0559  0.2136  11.00000  0.05    0.32
Q7    1   0.2362 -0.1182  0.5559  11.00000  0.05    0.30
Q8    1   0.1814  0.0949  0.0380  11.00000  0.05    0.29
Q9    1   0.5531  0.7505  0.0988  11.00000  0.05    0.28
Q10   1   0.6986  0.0098  0.1974  11.00000  0.05    0.28
;
_shelx_res_checksum              95993
_shelx_fab_checksum              60875
_shelx_fab_file
;
    2    0    0    -10.48      0.00
    3    0    0     -3.62      0.00
    4    0    0     10.78      0.00
    5    0    0      9.80      0.00
    6    0    0      0.39      0.00
    7    0    0     -0.64      0.00
    8    0    0      0.93      0.00
    9    0    0      1.18      0.00
   10    0    0      1.77      0.00
   11    0    0      0.10      0.00
   12    0    0     -0.24      0.00
   13    0    0     -0.79      0.00
  -13    1    0     -0.46      0.00
  -12    1    0      0.43      0.00
  -11    1    0      1.30      0.00
  -10    1    0      0.65      0.00
   -9    1    0      1.54      0.00
   -8    1    0      0.52      0.00
   -7    1    0     -0.17      0.00
   -6    1    0      1.76      0.00
   -5    1    0      7.05      0.00
   -4    1    0     14.51      0.00
   -3    1    0      4.26      0.00
   -2    1    0     13.21      0.00
   -1    1    0     65.27      0.00
    2    1    0     -5.09      0.00
    3    1    0     -8.78      0.00
    4    1    0      5.94      0.00
    5    1    0      5.57      0.00
    6    1    0      3.66      0.00
    7    1    0      1.85      0.00
    8    1    0      0.99      0.00
    9    1    0      1.98      0.00
   10    1    0      0.32      0.00
   11    1    0     -0.15      0.00
   12    1    0     -1.30      0.00
   13    1    0     -0.56      0.00
   14    1    0      0.11      0.00
  -13    2    0     -0.53      0.00
  -12    2    0     -0.25      0.00
  -11    2    0      0.48      0.00
  -10    2    0      1.30      0.00
   -9    2    0      0.34      0.00
   -8    2    0     -0.24      0.00
   -7    2    0     -0.64      0.00
   -6    2    0      3.09      0.00
   -5    2    0     13.17      0.00
   -4    2    0     11.70      0.00
   -3    2    0      5.23      0.00
   -2    2    0     19.42      0.00
   -1    2    0     36.55      0.00
    0    2    0     57.34      0.00
    1    2    0    -20.47      0.00
    2    2    0    -30.03      0.00
    3    2    0      0.69      0.00
    4    2    0     12.74      0.00
    5    2    0      7.07      0.00
    6    2    0      1.26      0.00
    7    2    0      0.06      0.00
    8    2    0      1.89      0.00
    9    2    0      0.47      0.00
   10    2    0      0.26      0.00
   11    2    0     -0.32      0.00
   12    2    0     -0.94      0.00
   13    2    0     -1.12      0.00
   14    2    0     -0.03      0.00
  -13    3    0     -0.21      0.00
  -12    3    0      0.37      0.00
  -11    3    0     -0.16      0.00
  -10    3    0     -0.35      0.00
   -9    3    0      0.75      0.00
   -8    3    0     -0.87      0.00
   -7    3    0     -0.42      0.00
   -6    3    0      4.48      0.00
   -5    3    0     10.79      0.00
   -4    3    0     12.96      0.00
   -3    3    0      0.24      0.00
   -2    3    0     -1.26      0.00
   -1    3    0     31.81      0.00
    0    3    0     14.08      0.00
    1    3    0     -5.67      0.00
    2    3    0    -21.12      0.00
    3    3    0     -2.77      0.00
    4    3    0     13.94      0.00
    5    3    0     11.04      0.00
    6    3    0      2.45      0.00
    7    3    0      0.12      0.00
    8    3    0     -1.53      0.00
    9    3    0     -0.28      0.00
   10    3    0     -0.30      0.00
   11    3    0     -1.33      0.00
   12    3    0     -0.76      0.00
   13    3    0      0.49      0.00
   14    3    0     -0.27      0.00
  -13    4    0      0.83      0.00
  -12    4    0      0.23      0.00
  -11    4    0     -0.37      0.00
  -10    4    0      0.23      0.00
   -9    4    0     -0.17      0.00
   -8    4    0      0.23      0.00
   -7    4    0      0.70      0.00
   -6    4    0      3.50      0.00
   -5    4    0      9.74      0.00
   -4    4    0      5.21      0.00
   -3    4    0     -5.76      0.00
   -2    4    0      1.12      0.00
   -1    4    0     11.29      0.00
    0    4    0     10.26      0.00
    1    4    0    -14.09      0.00
    2    4    0     -5.65      0.00
    3    4    0     11.46      0.00
    4    4    0     11.57      0.00
    5    4    0      5.34      0.00
    6    4    0      2.04      0.00
    7    4    0     -2.09      0.00
    8    4    0     -1.25      0.00
    9    4    0     -0.98      0.00
   10    4    0     -0.50      0.00
   11    4    0      0.69      0.00
   12    4    0     -0.27      0.00
   13    4    0     -0.76      0.00
  -13    5    0     -0.29      0.00
  -12    5    0      0.22      0.00
  -11    5    0     -0.11      0.00
  -10    5    0     -0.53      0.00
   -9    5    0      0.61      0.00
   -8    5    0      0.16      0.00
   -7    5    0      0.99      0.00
   -6    5    0      4.31      0.00
   -5    5    0      4.95      0.00
   -4    5    0      0.17      0.00
   -3    5    0     -9.80      0.00
   -2    5    0     -3.81      0.00
   -1    5    0     16.62      0.00
    0    5    0      9.43      0.00
    1    5    0     -2.96      0.00
    2    5    0     -3.61      0.00
    3    5    0      8.30      0.00
    4    5    0     13.50      0.00
    5    5    0      3.76      0.00
    6    5    0     -5.22      0.00
    7    5    0     -3.22      0.00
    8    5    0     -0.85      0.00
    9    5    0      0.00      0.00
   10    5    0      0.60      0.00
   11    5    0     -0.13      0.00
   12    5    0     -0.28      0.00
   13    5    0     -0.27      0.00
  -12    6    0     -0.05      0.00
  -11    6    0      0.01      0.00
  -10    6    0      0.64      0.00
   -9    6    0      0.07      0.00
   -8    6    0      0.11      0.00
   -7    6    0      0.88      0.00
   -6    6    0      1.54      0.00
   -5    6    0      3.74      0.00
   -4    6    0     -2.99      0.00
   -3    6    0     -8.61      0.00
   -2    6    0      2.21      0.00
   -1    6    0     12.61      0.00
    0    6    0     12.46      0.00
    1    6    0     -2.96      0.00
    2    6    0     -1.23      0.00
    3    6    0      6.47      0.00
    4    6    0      4.14      0.00
    5    6    0      0.73      0.00
    6    6    0     -3.19      0.00
    7    6    0     -3.79      0.00
    8    6    0     -1.06      0.00
    9    6    0      0.95      0.00
   10    6    0      1.41      0.00
   11    6    0      0.17      0.00
   12    6    0     -0.85      0.00
   13    6    0     -0.15      0.00
  -12    7    0      0.48      0.00
  -11    7    0      0.03      0.00
  -10    7    0      0.51      0.00
   -9    7    0      1.87      0.00
   -8    7    0      0.76      0.00
   -7    7    0     -0.65      0.00
   -6    7    0      1.25      0.00
   -5    7    0      0.21      0.00
   -4    7    0     -1.98      0.00
   -3    7    0     -2.32      0.00
   -2    7    0      3.35      0.00
   -1    7    0     15.22      0.00
    0    7    0      3.64      0.00
    1    7    0     -4.21      0.00
    2    7    0     -2.96      0.00
    3    7    0      3.86      0.00
    4    7    0      4.47      0.00
    5    7    0     -4.78      0.00
    6    7    0     -3.89      0.00
    7    7    0     -0.13      0.00
    8    7    0      0.31      0.00
    9    7    0      0.85      0.00
   10    7    0      0.42      0.00
   11    7    0     -0.54      0.00
   12    7    0     -0.70      0.00
   13    7    0     -0.42      0.00
  -12    8    0      0.36      0.00
  -11    8    0      0.27      0.00
  -10    8    0      0.66      0.00
   -9    8    0      0.48      0.00
   -8    8    0      0.14      0.00
   -7    8    0      0.20      0.00
   -6    8    0     -0.23      0.00
   -5    8    0      1.17      0.00
   -4    8    0     -0.69      0.00
   -3    8    0     -2.62      0.00
   -2    8    0      7.95      0.00
   -1    8    0      8.45      0.00
    0    8    0      2.71      0.00
    1    8    0     -8.66      0.00
    2    8    0     -4.91      0.00
    3    8    0      1.69      0.00
    4    8    0      0.18      0.00
    5    8    0      0.12      0.00
    6    8    0     -2.46      0.00
    7    8    0     -1.13      0.00
    8    8    0      1.84      0.00
    9    8    0      1.36      0.00
   10    8    0      0.13      0.00
   11    8    0     -1.17      0.00
   12    8    0     -0.84      0.00
   13    8    0     -0.09      0.00
  -11    9    0     -0.24      0.00
  -10    9    0     -0.10      0.00
   -9    9    0      0.68      0.00
   -8    9    0     -0.56      0.00
   -7    9    0     -0.99      0.00
   -6    9    0      0.87      0.00
   -5    9    0      1.26      0.00
   -4    9    0     -0.87      0.00
   -3    9    0      0.98      0.00
   -2    9    0      2.64      0.00
   -1    9    0      5.69      0.00
    0    9    0     -3.33      0.00
    1    9    0     -7.00      0.00
    2    9    0     -3.87      0.00
    3    9    0      1.18      0.00
    4    9    0      2.40      0.00
    5    9    0     -1.70      0.00
    6    9    0     -0.74      0.00
    7    9    0      0.02      0.00
    8    9    0     -0.77      0.00
    9    9    0      0.38      0.00
   10    9    0     -0.31      0.00
   11    9    0     -0.68      0.00
   12    9    0      0.09      0.00
   13    9    0      0.55      0.00
  -11   10    0      0.02      0.00
  -10   10    0      0.19      0.00
   -9   10    0     -0.66      0.00
   -8   10    0     -0.56      0.00
   -7   10    0     -0.21      0.00
   -6   10    0      1.03      0.00
   -5   10    0      1.74      0.00
   -4   10    0      0.61      0.00
   -3   10    0     -1.11      0.00
   -2   10    0      2.47      0.00
   -1   10    0      0.60      0.00
    0   10    0     -3.97      0.00
    1   10    0     -6.25      0.00
    2   10    0     -0.85      0.00
    3   10    0      3.06      0.00
    4   10    0      1.38      0.00
    5   10    0      0.24      0.00
    6   10    0     -1.18      0.00
    7   10    0     -1.30      0.00
    8   10    0      0.29      0.00
    9   10    0     -0.13      0.00
   10   10    0     -0.58      0.00
   11   10    0     -0.30      0.00
   12   10    0      0.40      0.00
  -11   11    0     -0.58      0.00
  -10   11    0     -0.74      0.00
   -9   11    0      0.15      0.00
   -8   11    0     -0.54      0.00
   -7   11    0      0.08      0.00
   -6   11    0      1.54      0.00
   -5   11    0      1.26      0.00
   -4   11    0     -0.40      0.00
   -3   11    0     -0.66      0.00
   -2   11    0     -0.11      0.00
   -1   11    0      0.06      0.00
    0   11    0     -3.00      0.00
    1   11    0     -2.79      0.00
    2   11    0      1.09      0.00
    3   11    0      3.76      0.00
    4   11    0      1.47      0.00
    5   11    0     -1.85      0.00
    6   11    0     -1.97      0.00
    7   11    0     -0.92      0.00
    8   11    0      0.42      0.00
    9   11    0      1.23      0.00
   10   11    0     -0.06      0.00
   11   11    0     -0.67      0.00
   12   11    0     -0.12      0.00
  -10   12    0      0.02      0.00
   -9   12    0     -0.22      0.00
   -8   12    0     -0.59      0.00
   -7   12    0      0.15      0.00
   -6   12    0      1.17      0.00
   -5   12    0      1.52      0.00
   -4   12    0     -0.86      0.00
   -3   12    0     -2.23      0.00
   -2   12    0      0.28      0.00
   -1   12    0      0.61      0.00
    0   12    0     -1.59      0.00
    1   12    0     -1.38      0.00
    2   12    0      1.99      0.00
    3   12    0      1.77      0.00
    4   12    0     -0.10      0.00
    5   12    0     -1.17      0.00
    6   12    0     -2.07      0.00
    7   12    0     -0.38      0.00
    8   12    0      1.08      0.00
    9   12    0      0.37      0.00
   10   12    0     -0.29      0.00
   11   12    0     -0.02      0.00
   12   12    0      0.59      0.00
   -9   13    0     -0.13      0.00
   -8   13    0      0.68      0.00
   -7   13    0      0.43      0.00
   -6   13    0      0.38      0.00
   -5   13    0     -0.57      0.00
   -4   13    0     -1.43      0.00
   -3   13    0     -0.66      0.00
   -2   13    0      0.46      0.00
   -1   13    0      0.91      0.00
    0   13    0     -0.49      0.00
    1   13    0     -0.45      0.00
    2   13    0      0.62      0.00
    3   13    0      0.69      0.00
    4   13    0     -0.75      0.00
    5   13    0     -1.78      0.00
    6   13    0     -1.10      0.00
    7   13    0     -0.45      0.00
    8   13    0      0.70      0.00
    9   13    0      0.32      0.00
   10   13    0     -0.72      0.00
   11   13    0     -0.19      0.00
   -9   14    0      0.30      0.00
   -8   14    0     -0.35      0.00
   -7   14    0      0.23      0.00
   -6   14    0      0.17      0.00
   -5   14    0     -0.75      0.00
   -4   14    0     -1.42      0.00
   -3   14    0     -1.40      0.00
   -2   14    0      1.05      0.00
   -1   14    0      1.02      0.00
    0   14    0     -0.82      0.00
    1   14    0     -0.63      0.00
    2   14    0     -0.04      0.00
    3   14    0     -0.53      0.00
    4   14    0     -0.89      0.00
    5   14    0     -0.68      0.00
    6   14    0     -0.71      0.00
    7   14    0      0.31      0.00
    8   14    0      0.73      0.00
    9   14    0     -0.11      0.00
   10   14    0     -0.54      0.00
   11   14    0     -0.35      0.00
   -8   15    0      0.15      0.00
   -7   15    0     -0.60      0.00
   -6   15    0     -1.04      0.00
   -5   15    0     -0.32      0.00
   -4   15    0     -1.02      0.00
   -3   15    0     -0.31      0.00
   -2   15    0      0.44      0.00
   -1   15    0      0.30      0.00
    0   15    0     -0.66      0.00
    1   15    0     -1.19      0.00
    2   15    0     -0.36      0.00
    3   15    0     -0.54      0.00
    4   15    0     -0.74      0.00
    5   15    0     -0.66      0.00
    6   15    0     -0.36      0.00
    7   15    0      0.64      0.00
    8   15    0      0.34      0.00
    9   15    0     -0.33      0.00
   10   15    0     -0.31      0.00
   -7   16    0     -0.36      0.00
   -6   16    0     -0.06      0.00
   -5   16    0     -0.76      0.00
   -4   16    0     -0.31      0.00
   -3   16    0     -0.42      0.00
   -2   16    0      0.45      0.00
   -1   16    0      0.08      0.00
    0   16    0     -1.07      0.00
    1   16    0     -0.93      0.00
    2   16    0     -0.48      0.00
    3   16    0     -0.17      0.00
    4   16    0      0.10      0.00
    5   16    0     -0.10      0.00
    6   16    0      0.18      0.00
    7   16    0      0.26      0.00
    8   16    0      0.34      0.00
    9   16    0     -0.41      0.00
   10   16    0     -0.64      0.00
   -6   17    0     -0.88      0.00
   -5   17    0      0.46      0.00
   -4   17    0     -0.39      0.00
   -3   17    0     -0.37      0.00
   -2   17    0      0.10      0.00
   -1   17    0      0.01      0.00
    0   17    0     -1.40      0.00
    1   17    0     -0.30      0.00
    2   17    0      0.12      0.00
    3   17    0      0.00      0.00
    4   17    0     -0.18      0.00
    5   17    0     -0.02      0.00
    6   17    0     -0.03      0.00
    7   17    0      0.26      0.00
    8   17    0      0.10      0.00
    9   17    0     -0.10      0.00
   -5   18    0     -0.41      0.00
   -4   18    0     -0.21      0.00
   -3   18    0     -0.63      0.00
   -2   18    0     -0.06      0.00
   -1   18    0     -0.94      0.00
    0   18    0      0.24      0.00
    1   18    0     -0.32      0.00
    2   18    0      0.31      0.00
    3   18    0     -0.12      0.00
    4   18    0     -0.05      0.00
    5   18    0     -0.10      0.00
    6   18    0     -0.23      0.00
    7   18    0     -0.15      0.00
    8   18    0     -0.60      0.00
   -4   19    0     -1.01      0.00
   -3   19    0     -0.36      0.00
   -2   19    0     -0.42      0.00
   -1   19    0      0.23      0.00
    0   19    0     -0.89      0.00
    1   19    0      0.84      0.00
    2   19    0     -0.07      0.00
    3   19    0     -0.11      0.00
    4   19    0     -0.26      0.00
    5   19    0     -0.30      0.00
    6   19    0     -0.20      0.00
    7   19    0     -0.47      0.00
   -2   20    0      0.30      0.00
   -1   20    0     -0.36      0.00
    0   20    0      0.30      0.00
    1   20    0     -0.52      0.00
    2   20    0      0.25      0.00
    3   20    0     -0.43      0.00
    4   20    0     -0.20      0.00
    5   20    0     -0.28      0.00
   -4  -20    1      0.05      0.00
   -3  -20    1      0.03      0.00
   -2  -20    1     -0.55      0.00
   -1  -20    1      0.14      0.00
    0  -20    1      0.48      0.00
    1  -20    1     -0.14      0.00
    2  -20    1      0.24      0.00
   -6  -19    1     -0.19      0.00
   -5  -19    1     -0.34      0.00
   -4  -19    1     -0.28      0.00
   -3  -19    1     -0.49      0.00
   -2  -19    1      0.16      0.00
   -1  -19    1     -0.26      0.00
    0  -19    1      0.24      0.00
    1  -19    1      0.56      0.00
    2  -19    1     -0.66      0.00
    3  -19    1     -0.27      0.00
    4  -19    1     -0.34      0.00
   -7  -18    1      0.09      0.00
   -6  -18    1     -0.35      0.00
   -5  -18    1     -0.43      0.00
   -4  -18    1     -0.42      0.00
   -3  -18    1      0.01      0.00
   -2  -18    1     -0.38      0.00
   -1  -18    1      0.75      0.00
    0  -18    1      0.25      0.00
    1  -18    1     -0.62      0.00
    2  -18    1      0.19      0.00
    3  -18    1     -0.17      0.00
    4  -18    1     -0.55      0.00
    5  -18    1     -0.52      0.00
   -8  -17    1     -0.19      0.00
   -7  -17    1     -0.14      0.00
   -6  -17    1     -0.32      0.00
   -5  -17    1     -0.51      0.00
   -4  -17    1      0.01      0.00
   -3  -17    1      0.24      0.00
   -2  -17    1      0.38      0.00
   -1  -17    1     -0.39      0.00
    0  -17    1     -0.07      0.00
    1  -17    1     -0.36      0.00
    2  -17    1     -0.12      0.00
    3  -17    1     -0.08      0.00
    4  -17    1     -0.49      0.00
    5  -17    1     -0.06      0.00
    6  -17    1     -0.89      0.00
   -9  -16    1      0.03      0.00
   -8  -16    1     -0.38      0.00
   -7  -16    1     -0.24      0.00
   -6  -16    1     -0.01      0.00
   -5  -16    1     -0.04      0.00
   -4  -16    1      0.09      0.00
   -3  -16    1      0.04      0.00
   -2  -16    1     -0.34      0.00
   -1  -16    1     -0.10      0.00
    0  -16    1     -0.91      0.00
    1  -16    1     -0.50      0.00
    2  -16    1     -0.36      0.00
    3  -16    1      0.16      0.00
    4  -16    1     -0.25      0.00
    5  -16    1     -0.67      0.00
    6  -16    1      0.09      0.00
    7  -16    1     -1.59      0.00
  -10  -15    1     -0.10      0.00
   -9  -15    1     -0.45      0.00
   -8  -15    1     -0.31      0.00
   -7  -15    1     -0.24      0.00
   -6  -15    1     -0.30      0.00
   -5  -15    1      0.13      0.00
   -4  -15    1      0.71      0.00
   -3  -15    1      0.02      0.00
   -2  -15    1     -0.66      0.00
   -1  -15    1     -0.77      0.00
    0  -15    1     -0.74      0.00
    1  -15    1     -1.12      0.00
    2  -15    1      0.72      0.00
    3  -15    1      0.29      0.00
    4  -15    1     -0.77      0.00
    5  -15    1     -0.29      0.00
    6  -15    1     -1.30      0.00
    7  -15    1     -0.37      0.00
    8  -15    1     -0.19      0.00
  -11  -14    1      0.46      0.00
  -10  -14    1      0.07      0.00
   -9  -14    1     -0.78      0.00
   -8  -14    1     -0.63      0.00
   -7  -14    1     -0.07      0.00
   -6  -14    1     -0.02      0.00
   -5  -14    1      0.16      0.00
   -4  -14    1     -0.41      0.00
   -3  -14    1     -0.49      0.00
   -2  -14    1     -0.63      0.00
   -1  -14    1     -0.50      0.00
    0  -14    1     -0.54      0.00
    1  -14    1      0.08      0.00
    2  -14    1      0.38      0.00
    3  -14    1      0.50      0.00
    4  -14    1      0.04      0.00
    5  -14    1     -0.97      0.00
    6  -14    1     -0.67      0.00
    7  -14    1     -0.91      0.00
    8  -14    1      0.16      0.00
    9  -14    1      0.89      0.00
  -11  -13    1      0.51      0.00
  -10  -13    1     -0.62      0.00
   -9  -13    1     -0.92      0.00
   -8  -13    1     -0.30      0.00
   -7  -13    1      0.50      0.00
   -6  -13    1      0.56      0.00
   -5  -13    1     -0.50      0.00
   -4  -13    1     -0.59      0.00
   -3  -13    1     -1.41      0.00
   -2  -13    1     -0.31      0.00
   -1  -13    1      0.81      0.00
    0  -13    1      0.23      0.00
    1  -13    1      0.41      0.00
    2  -13    1      1.40      0.00
    3  -13    1     -0.01      0.00
    4  -13    1     -1.59      0.00
    5  -13    1     -0.25      0.00
    6  -13    1      0.39      0.00
    7  -13    1      0.46      0.00
    8  -13    1      0.31      0.00
    9  -13    1     -0.40      0.00
   10  -13    1      0.52      0.00
  -12  -12    1      0.86      0.00
  -11  -12    1     -0.32      0.00
  -10  -12    1     -0.35      0.00
   -9  -12    1     -0.38      0.00
   -8  -12    1      0.24      0.00
   -7  -12    1      0.54      0.00
   -6  -12    1      0.04      0.00
   -5  -12    1     -0.74      0.00
   -4  -12    1     -2.10      0.00
   -3  -12    1     -0.78      0.00
   -2  -12    1      1.06      0.00
   -1  -12    1      1.96      0.00
    0  -12    1      1.10      0.00
    1  -12    1      0.56      0.00
    2  -12    1      0.29      0.00
    3  -12    1     -0.37      0.00
    4  -12    1     -0.73      0.00
    5  -12    1     -0.57      0.00
    6  -12    1      0.43      0.00
    7  -12    1      0.85      0.00
    8  -12    1      0.34      0.00
    9  -12    1      0.81      0.00
   10  -12    1      0.21      0.00
  -12  -11    1     -0.20      0.00
  -11  -11    1      0.83      0.00
  -10  -11    1     -0.30      0.00
   -9  -11    1     -0.28      0.00
   -8  -11    1      0.01      0.00
   -7  -11    1      0.05      0.00
   -6  -11    1     -0.46      0.00
   -5  -11    1     -0.79      0.00
   -4  -11    1     -0.79      0.00
   -3  -11    1      0.21      0.00
   -2  -11    1      2.72      0.00
   -1  -11    1      2.05      0.00
    0  -11    1     -0.12      0.00
    1  -11    1     -1.13      0.00
    2  -11    1     -0.17      0.00
    3  -11    1     -0.80      0.00
    4  -11    1     -1.22      0.00
    5  -11    1      1.00      0.00
    6  -11    1      1.29      0.00
    7  -11    1      0.93      0.00
    8  -11    1      0.68      0.00
    9  -11    1     -0.14      0.00
   10  -11    1      0.06      0.00
   11  -11    1      0.10      0.00
  -12  -10    1      0.93      0.00
  -11  -10    1     -0.23      0.00
  -10  -10    1     -0.32      0.00
   -9  -10    1     -0.64      0.00
   -8  -10    1     -0.14      0.00
   -7  -10    1     -0.27      0.00
   -6  -10    1     -0.14      0.00
   -5  -10    1     -1.25      0.00
   -4  -10    1     -0.24      0.00
   -3  -10    1      2.11      0.00
   -2  -10    1      2.43      0.00
   -1  -10    1      1.20      0.00
    0  -10    1     -2.45      0.00
    1  -10    1     -2.27      0.00
    2  -10    1     -0.31      0.00
    3  -10    1     -0.61      0.00
    4  -10    1      0.67      0.00
    5  -10    1      0.98      0.00
    6  -10    1      2.04      0.00
    7  -10    1      0.75      0.00
    8  -10    1      0.06      0.00
    9  -10    1      0.43      0.00
   10  -10    1      0.67      0.00
   11  -10    1     -0.29      0.00
  -13   -9    1      0.59      0.00
  -12   -9    1      0.07      0.00
  -11   -9    1     -0.12      0.00
  -10   -9    1     -1.45      0.00
   -9   -9    1     -0.93      0.00
   -8   -9    1     -0.21      0.00
   -7   -9    1      0.99      0.00
   -6   -9    1      0.08      0.00
   -5   -9    1      0.29      0.00
   -4   -9    1     -0.25      0.00
   -3   -9    1      1.11      0.00
   -2   -9    1      2.94      0.00
   -1   -9    1     -1.60      0.00
    0   -9    1     -4.80      0.00
    1   -9    1     -2.01      0.00
    2   -9    1      0.89      0.00
    3   -9    1      2.33      0.00
    4   -9    1      0.32      0.00
    5   -9    1      3.14      0.00
    6   -9    1      1.32      0.00
    7   -9    1      0.35      0.00
    8   -9    1     -0.05      0.00
    9   -9    1      0.16      0.00
   10   -9    1      0.58      0.00
   11   -9    1      0.29      0.00
   12   -9    1     -0.16      0.00
  -13   -8    1      0.09      0.00
  -12   -8    1      0.26      0.00
  -11   -8    1     -0.54      0.00
  -10   -8    1     -0.52      0.00
   -9   -8    1     -0.43      0.00
   -8   -8    1     -0.15      0.00
   -7   -8    1      0.70      0.00
   -6   -8    1      2.37      0.00
   -5   -8    1     -1.53      0.00
   -4   -8    1     -2.19      0.00
   -3   -8    1      1.27      0.00
   -2   -8    1      1.75      0.00
   -1   -8    1     -0.79      0.00
    0   -8    1     -3.55      0.00
    1   -8    1     -0.45      0.00
    2   -8    1      6.05      0.00
    3   -8    1      2.28      0.00
    4   -8    1      3.16      0.00
    5   -8    1      1.31      0.00
    6   -8    1      1.14      0.00
    7   -8    1     -0.05      0.00
    8   -8    1     -0.59      0.00
    9   -8    1      0.01      0.00
   10   -8    1      0.70      0.00
   11   -8    1      0.35      0.00
   12   -8    1      0.12      0.00
  -13   -7    1     -0.09      0.00
  -12   -7    1     -0.24      0.00
  -11   -7    1     -0.99      0.00
  -10   -7    1     -0.57      0.00
   -9   -7    1      0.47      0.00
   -8   -7    1      1.31      0.00
   -7   -7    1      1.80      0.00
   -6   -7    1     -0.12      0.00
   -5   -7    1     -1.23      0.00
   -4   -7    1     -3.06      0.00
   -3   -7    1      0.05      0.00
   -2   -7    1      3.34      0.00
   -1   -7    1     -0.60      0.00
    0   -7    1     -1.12      0.00
    1   -7    1      7.52      0.00
    2   -7    1      8.67      0.00
    3   -7    1      5.90      0.00
    4   -7    1     -0.79      0.00
    5   -7    1      1.11      0.00
    6   -7    1      0.65      0.00
    7   -7    1     -0.17      0.00
    8   -7    1      0.57      0.00
    9   -7    1      0.44      0.00
   10   -7    1      0.44      0.00
   11   -7    1      0.31      0.00
   12   -7    1      0.39      0.00
  -13   -6    1     -0.50      0.00
  -12   -6    1     -0.54      0.00
  -11   -6    1     -0.44      0.00
  -10   -6    1     -0.45      0.00
   -9   -6    1      0.11      0.00
   -8   -6    1      0.99      0.00
   -7   -6    1      2.88      0.00
   -6   -6    1     -0.96      0.00
   -5   -6    1     -7.74      0.00
   -4   -6    1     -1.68      0.00
   -3   -6    1      5.98      0.00
   -2   -6    1      7.07      0.00
   -1   -6    1      2.83      0.00
    0   -6    1      1.77      0.00
    1   -6    1      9.80      0.00
    2   -6    1     13.49      0.00
    3   -6    1      1.13      0.00
    4   -6    1     -1.84      0.00
    5   -6    1     -0.56      0.00
    6   -6    1      0.03      0.00
    7   -6    1      0.79      0.00
    8   -6    1      1.03      0.00
    9   -6    1      1.39      0.00
   10   -6    1      1.45      0.00
   11   -6    1      0.59      0.00
   12   -6    1      0.03      0.00
   13   -6    1      0.56      0.00
  -13   -5    1     -0.12      0.00
  -12   -5    1     -0.66      0.00
  -11   -5    1     -0.22      0.00
  -10   -5    1      0.94      0.00
   -9   -5    1      0.44      0.00
   -8   -5    1      1.13      0.00
   -7   -5    1     -0.65      0.00
   -6   -5    1     -2.54      0.00
   -5   -5    1     -1.90      0.00
   -4   -5    1     -1.54      0.00
   -3   -5    1     10.17      0.00
   -2   -5    1     15.76      0.00
   -1   -5    1      5.22      0.00
    0   -5    1      2.08      0.00
    1   -5    1      9.84      0.00
    2   -5    1      7.51      0.00
    3   -5    1     -0.77      0.00
    4   -5    1     -3.99      0.00
    5   -5    1      1.66      0.00
    6   -5    1      2.45      0.00
    7   -5    1      1.39      0.00
    8   -5    1      1.31      0.00
    9   -5    1      0.65      0.00
   10   -5    1      0.68      0.00
   11   -5    1      0.47      0.00
   12   -5    1      0.01      0.00
   13   -5    1      0.04      0.00
  -13   -4    1     -0.46      0.00
  -12   -4    1      0.41      0.00
  -11   -4    1     -0.21      0.00
  -10   -4    1     -0.36      0.00
   -9   -4    1      0.97      0.00
   -8   -4    1     -0.08      0.00
   -7   -4    1     -0.34      0.00
   -6   -4    1     -3.50      0.00
   -5   -4    1     -4.13      0.00
   -4   -4    1     10.86      0.00
   -3   -4    1     18.81      0.00
   -2   -4    1     11.93      0.00
   -1   -4    1     -0.12      0.00
    0   -4    1     -3.85      0.00
    1   -4    1      8.20      0.00
    2   -4    1     11.13      0.00
    3   -4    1     -5.24      0.00
    4   -4    1     -1.11      0.00
    5   -4    1      5.26      0.00
    6   -4    1      6.05      0.00
    7   -4    1      3.87      0.00
    8   -4    1      1.45      0.00
    9   -4    1      0.49      0.00
   10   -4    1      0.44      0.00
   11   -4    1     -0.52      0.00
   12   -4    1     -0.72      0.00
   13   -4    1     -0.02      0.00
  -13   -3    1      0.18      0.00
  -12   -3    1     -0.60      0.00
  -11   -3    1     -0.28      0.00
  -10   -3    1      0.46      0.00
   -9   -3    1     -0.68      0.00
   -8   -3    1      0.96      0.00
   -7   -3    1      0.92      0.00
   -6   -3    1     -1.50      0.00
   -5   -3    1      0.80      0.00
   -4   -3    1      7.11      0.00
   -3   -3    1     23.39      0.00
   -2   -3    1     16.96      0.00
   -1   -3    1    -18.49      0.00
    0   -3    1    -17.14      0.00
    1   -3    1     14.17      0.00
    2   -3    1      9.02      0.00
    3   -3    1      7.40      0.00
    4   -3    1      3.51      0.00
    5   -3    1     10.35      0.00
    6   -3    1      8.36      0.00
    7   -3    1      3.85      0.00
    8   -3    1      1.58      0.00
    9   -3    1     -0.04      0.00
   10   -3    1      0.02      0.00
   11   -3    1      0.21      0.00
   12   -3    1     -0.18      0.00
   13   -3    1     -0.28      0.00
  -13   -2    1      0.31      0.00
  -12   -2    1      0.15      0.00
  -11   -2    1     -0.31      0.00
  -10   -2    1     -0.55      0.00
   -9   -2    1      0.30      0.00
   -8   -2    1      0.47      0.00
   -7   -2    1      0.76      0.00
   -6   -2    1      1.63      0.00
   -5   -2    1      3.96      0.00
   -4   -2    1     14.98      0.00
   -3   -2    1     12.60      0.00
   -2   -2    1     -5.40      0.00
   -1   -2    1     -8.08      0.00
    0   -2    1      0.24      0.00
    1   -2    1      9.27      0.00
    2   -2    1     34.20      0.00
    3   -2    1      7.03      0.00
    4   -2    1     11.60      0.00
    5   -2    1     12.54      0.00
    6   -2    1      6.52      0.00
    7   -2    1      2.62      0.00
    8   -2    1      0.30      0.00
    9   -2    1     -0.06      0.00
   10   -2    1     -0.52      0.00
   11   -2    1     -0.72      0.00
   12   -2    1     -0.07      0.00
   13   -2    1      0.53      0.00
  -13   -1    1     -0.21      0.00
  -12   -1    1     -0.48      0.00
  -11   -1    1     -0.63      0.00
  -10   -1    1      0.26      0.00
   -9   -1    1      0.84      0.00
   -8   -1    1      2.50      0.00
   -7   -1    1      2.59      0.00
   -6   -1    1     -0.44      0.00
   -5   -1    1      3.65      0.00
   -4   -1    1     13.94      0.00
   -3   -1    1     20.83      0.00
   -2   -1    1     -6.38      0.00
   -1   -1    1    -41.98      0.00
    1   -1    1     84.81      0.00
    2   -1    1     33.92      0.00
    3   -1    1     14.56      0.00
    4   -1    1      6.90      0.00
    5   -1    1     11.31      0.00
    6   -1    1      5.98      0.00
    7   -1    1      0.49      0.00
    8   -1    1     -0.08      0.00
    9   -1    1     -1.14      0.00
   10   -1    1      0.24      0.00
   11   -1    1      0.38      0.00
   12   -1    1     -0.06      0.00
   13   -1    1      0.31      0.00
   14   -1    1     -0.28      0.00
  -13    0    1     -0.21      0.00
  -12    0    1     -0.97      0.00
  -11    0    1     -0.16      0.00
  -10    0    1      0.70      0.00
   -9    0    1      1.36      0.00
   -8    0    1      2.49      0.00
   -7    0    1      2.87      0.00
   -6    0    1      1.94      0.00
   -5    0    1      2.29      0.00
   -4    0    1     12.87      0.00
   -3    0    1     10.45      0.00
   -2    0    1     -7.35      0.00
   -1    0    1      6.77      0.00
    2    0    1     53.33      0.00
    3    0    1     13.56      0.00
    4    0    1      8.06      0.00
    5    0    1      4.04      0.00
    6    0    1      1.41      0.00
    7    0    1      1.43      0.00
    8    0    1     -0.62      0.00
    9    0    1      0.36      0.00
   10    0    1      0.65      0.00
   11    0    1      0.96      0.00
   12    0    1      0.63      0.00
   13    0    1     -0.74      0.00
   14    0    1     -0.31      0.00
  -13    1    1     -0.33      0.00
  -12    1    1     -0.91      0.00
  -11    1    1     -0.50      0.00
  -10    1    1      0.85      0.00
   -9    1    1      1.63      0.00
   -8    1    1      2.62      0.00
   -7    1    1      0.68      0.00
   -6    1    1     -2.66      0.00
   -5    1    1      4.34      0.00
   -4    1    1     11.90      0.00
   -3    1    1      8.48      0.00
   -2    1    1     -3.75      0.00
   -1    1    1      7.16      0.00
    2    1    1      5.91      0.00
    3    1    1     -6.87      0.00
    4    1    1     -1.59      0.00
    5    1    1      5.76      0.00
    6    1    1      1.07      0.00
    7    1    1     -1.36      0.00
    8    1    1      0.13      0.00
    9    1    1     -0.07      0.00
   10    1    1      1.02      0.00
   11    1    1      0.90      0.00
   12    1    1      0.12      0.00
   13    1    1     -0.20      0.00
   14    1    1     -0.67      0.00
  -13    2    1     -0.34      0.00
  -12    2    1     -0.33      0.00
  -11    2    1      0.57      0.00
  -10    2    1      0.62      0.00
   -9    2    1      1.81      0.00
   -8    2    1      2.53      0.00
   -7    2    1      0.21      0.00
   -6    2    1     -1.09      0.00
   -5    2    1      0.76      0.00
   -4    2    1     12.10      0.00
   -3    2    1     11.31      0.00
   -2    2    1     -2.97      0.00
   -1    2    1      3.22      0.00
    0    2    1     40.58      0.00
    1    2    1     32.12      0.00
    2    2    1     15.37      0.00
    3    2    1    -16.92      0.00
    4    2    1     -7.93      0.00
    5    2    1     -1.19      0.00
    6    2    1      3.05      0.00
    7    2    1      2.99      0.00
    8    2    1      0.50      0.00
    9    2    1     -0.03      0.00
   10    2    1      0.35      0.00
   11    2    1      0.00      0.00
   12    2    1     -1.41      0.00
   13    2    1     -0.93      0.00
   14    2    1      0.27      0.00
  -13    3    1     -0.33      0.00
  -12    3    1      0.35      0.00
  -11    3    1      0.58      0.00
  -10    3    1      0.88      0.00
   -9    3    1      0.75      0.00
   -8    3    1      0.88      0.00
   -7    3    1      0.35      0.00
   -6    3    1     -2.14      0.00
   -5    3    1      4.79      0.00
   -4    3    1     10.68      0.00
   -3    3    1      6.47      0.00
   -2    3    1     -4.38      0.00
   -1    3    1      8.73      0.00
    0    3    1     23.13      0.00
    1    3    1     14.60      0.00
    2    3    1    -15.60      0.00
    3    3    1     -9.28      0.00
    4    3    1     -3.09      0.00
    5    3    1      2.01      0.00
    6    3    1      1.64      0.00
    7    3    1      2.40      0.00
    8    3    1      0.65      0.00
    9    3    1     -0.38      0.00
   10    3    1     -0.77      0.00
   11    3    1     -1.15      0.00
   12    3    1     -0.09      0.00
   13    3    1     -0.79      0.00
   14    3    1     -0.63      0.00
  -13    4    1     -0.01      0.00
  -12    4    1     -0.58      0.00
  -11    4    1      0.41      0.00
  -10    4    1      0.35      0.00
   -9    4    1     -0.08      0.00
   -8    4    1     -0.15      0.00
   -7    4    1     -2.73      0.00
   -6    4    1     -1.00      0.00
   -5    4    1      3.32      0.00
   -4    4    1     10.78      0.00
   -3    4    1      1.96      0.00
   -2    4    1    -10.36      0.00
   -1    4    1     -3.38      0.00
    0    4    1     14.66      0.00
    1    4    1     10.75      0.00
    2    4    1     -6.02      0.00
    3    4    1    -14.26      0.00
    4    4    1     -0.15      0.00
    5    4    1      6.89      0.00
    6    4    1      6.06      0.00
    7    4    1     -0.01      0.00
    8    4    1     -1.71      0.00
    9    4    1     -1.50      0.00
   10    4    1     -1.21      0.00
   11    4    1     -0.11      0.00
   12    4    1     -0.91      0.00
   13    4    1     -0.14      0.00
   14    4    1      0.10      0.00
  -13    5    1      0.51      0.00
  -12    5    1      0.28      0.00
  -11    5    1     -0.20      0.00
  -10    5    1     -0.26      0.00
   -9    5    1      0.11      0.00
   -8    5    1     -0.98      0.00
   -7    5    1     -1.37      0.00
   -6    5    1     -2.53      0.00
   -5    5    1      3.84      0.00
   -4    5    1      6.03      0.00
   -3    5    1     -1.84      0.00
   -2    5    1    -12.16      0.00
   -1    5    1     -5.26      0.00
    0    5    1     10.34      0.00
    1    5    1      7.46      0.00
    2    5    1     -5.61      0.00
    3    5    1     -3.83      0.00
    4    5    1      0.73      0.00
    5    5    1      5.07      0.00
    6    5    1      4.02      0.00
    7    5    1      0.73      0.00
    8    5    1     -2.88      0.00
    9    5    1     -3.42      0.00
   10    5    1     -0.44      0.00
   11    5    1      0.41      0.00
   12    5    1      0.18      0.00
   13    5    1     -0.56      0.00
   14    5    1      0.32      0.00
  -12    6    1     -0.12      0.00
  -11    6    1      0.02      0.00
  -10    6    1     -0.85      0.00
   -9    6    1     -1.00      0.00
   -8    6    1      1.01      0.00
   -7    6    1     -0.47      0.00
   -6    6    1     -0.06      0.00
   -5    6    1      1.92      0.00
   -4    6    1      2.71      0.00
   -3    6    1     -5.35      0.00
   -2    6    1    -10.75      0.00
   -1    6    1     -0.02      0.00
    0    6    1     12.05      0.00
    1    6    1      5.26      0.00
    2    6    1     -4.47      0.00
    3    6    1     -5.16      0.00
    4    6    1      4.94      0.00
    5    6    1      5.01      0.00
    6    6    1     -1.07      0.00
    7    6    1     -2.97      0.00
    8    6    1     -2.75      0.00
    9    6    1     -1.18      0.00
   10    6    1     -0.27      0.00
   11    6    1      0.76      0.00
   12    6    1      0.00      0.00
   13    6    1     -0.20      0.00
  -12    7    1     -0.63      0.00
  -11    7    1     -0.34      0.00
  -10    7    1     -0.21      0.00
   -9    7    1      0.27      0.00
   -8    7    1     -0.22      0.00
   -7    7    1      0.19      0.00
   -6    7    1      0.19      0.00
   -5    7    1      2.26      0.00
   -4    7    1      1.51      0.00
   -3    7    1     -6.32      0.00
   -2    7    1     -9.74      0.00
   -1    7    1      3.86      0.00
    0    7    1     12.38      0.00
    1    7    1      7.06      0.00
    2    7    1     -5.60      0.00
    3    7    1     -4.52      0.00
    4    7    1     -1.54      0.00
    5    7    1      1.82      0.00
    6    7    1      0.91      0.00
    7    7    1     -3.75      0.00
    8    7    1     -3.07      0.00
    9    7    1     -0.43      0.00
   10    7    1      1.79      0.00
   11    7    1      1.10      0.00
   12    7    1     -0.49      0.00
   13    7    1     -0.80      0.00
  -12    8    1     -0.02      0.00
  -11    8    1      0.25      0.00
  -10    8    1      0.03      0.00
   -9    8    1      0.43      0.00
   -8    8    1      1.30      0.00
   -7    8    1     -0.43      0.00
   -6    8    1     -0.60      0.00
   -5    8    1      1.41      0.00
   -4    8    1      0.02      0.00
   -3    8    1     -5.49      0.00
   -2    8    1     -3.26      0.00
   -1    8    1      3.55      0.00
    0    8    1     10.18      0.00
    1    8    1      1.80      0.00
    2    8    1     -5.50      0.00
    3    8    1     -6.53      0.00
    4    8    1      0.25      0.00
    5    8    1     -0.20      0.00
    6    8    1     -2.47      0.00
    7    8    1     -0.77      0.00
    8    8    1     -1.10      0.00
    9    8    1     -0.82      0.00
   10    8    1      0.68      0.00
   11    8    1     -0.01      0.00
   12    8    1     -0.68      0.00
   13    8    1      0.05      0.00
  -11    9    1      0.30      0.00
  -10    9    1      0.65      0.00
   -9    9    1      0.55      0.00
   -8    9    1     -0.16      0.00
   -7    9    1     -0.29      0.00
   -6    9    1     -0.85      0.00
   -5    9    1      0.56      0.00
   -4    9    1     -0.20      0.00
   -3    9    1     -2.40      0.00
   -2    9    1     -2.36      0.00
   -1    9    1      6.02      0.00
    0    9    1      5.33      0.00
    1    9    1     -2.37      0.00
    2    9    1     -9.11      0.00
    3    9    1     -4.74      0.00
    4    9    1     -0.79      0.00
    5    9    1      1.29      0.00
    6    9    1     -0.01      0.00
    7    9    1     -1.86      0.00
    8    9    1     -1.31      0.00
    9    9    1      0.61      0.00
   10    9    1      0.01      0.00
   11    9    1     -0.25      0.00
   12    9    1     -0.45      0.00
   13    9    1     -0.22      0.00
  -11   10    1      0.56      0.00
  -10   10    1     -0.22      0.00
   -9   10    1     -0.34      0.00
   -8   10    1     -0.01      0.00
   -7   10    1     -1.80      0.00
   -6   10    1     -0.48      0.00
   -5   10    1      0.54      0.00
   -4   10    1      0.55      0.00
   -3   10    1     -1.90      0.00
   -2   10    1     -0.08      0.00
   -1   10    1      2.67      0.00
    0   10    1      2.67      0.00
    1   10    1     -4.27      0.00
    2   10    1     -7.44      0.00
    3   10    1     -3.75      0.00
    4   10    1      2.29      0.00
    5   10    1      1.37      0.00
    6   10    1     -0.39      0.00
    7   10    1     -1.53      0.00
    8   10    1     -1.48      0.00
    9   10    1     -0.60      0.00
   10   10    1      1.35      0.00
   11   10    1     -0.19      0.00
   12   10    1     -0.53      0.00
   13   10    1      0.37      0.00
  -10   11    1     -0.16      0.00
   -9   11    1     -0.31      0.00
   -8   11    1     -1.25      0.00
   -7   11    1     -0.79      0.00
   -6   11    1     -1.28      0.00
   -5   11    1      1.44      0.00
   -4   11    1      1.35      0.00
   -3   11    1     -1.20      0.00
   -2   11    1     -1.51      0.00
   -1   11    1      1.95      0.00
    0   11    1      0.67      0.00
    1   11    1     -4.09      0.00
    2   11    1     -5.03      0.00
    3   11    1     -0.36      0.00
    4   11    1      1.47      0.00
    5   11    1      1.91      0.00
    6   11    1      0.15      0.00
    7   11    1     -1.42      0.00
    8   11    1     -1.24      0.00
    9   11    1      0.37      0.00
   10   11    1     -0.29      0.00
   11   11    1      0.37      0.00
   12   11    1      0.46      0.00
  -10   12    1     -0.52      0.00
   -9   12    1     -1.10      0.00
   -8   12    1     -0.62      0.00
   -7   12    1     -0.95      0.00
   -6   12    1      0.55      0.00
   -5   12    1      0.89      0.00
   -4   12    1      0.01      0.00
   -3   12    1     -1.59      0.00
   -2   12    1     -0.97      0.00
   -1   12    1      0.55      0.00
    0   12    1      0.42      0.00
    1   12    1     -2.20      0.00
    2   12    1     -2.16      0.00
    3   12    1      0.15      0.00
    4   12    1      2.33      0.00
    5   12    1      0.83      0.00
    6   12    1     -0.83      0.00
    7   12    1     -1.74      0.00
    8   12    1     -1.30      0.00
    9   12    1      0.45      0.00
   10   12    1      1.25      0.00
   11   12    1     -0.35      0.00
   12   12    1      0.17      0.00
   -9   13    1     -0.53      0.00
   -8   13    1     -0.37      0.00
   -7   13    1     -0.49      0.00
   -6   13    1      0.06      0.00
   -5   13    1      1.27      0.00
   -4   13    1      0.01      0.00
   -3   13    1     -2.22      0.00
   -2   13    1     -2.00      0.00
   -1   13    1      0.70      0.00
    0   13    1      0.38      0.00
    1   13    1     -1.31      0.00
    2   13    1     -1.05      0.00
    3   13    1      0.86      0.00
    4   13    1      0.94      0.00
    5   13    1      0.18      0.00
    6   13    1     -1.34      0.00
    7   13    1     -2.17      0.00
    8   13    1     -0.37      0.00
    9   13    1      0.84      0.00
   10   13    1      0.44      0.00
   11   13    1      0.63      0.00
   12   13    1     -0.41      0.00
   -9   14    1      0.05      0.00
   -8   14    1     -0.39      0.00
   -7   14    1     -0.13      0.00
   -6   14    1     -0.18      0.00
   -5   14    1     -0.03      0.00
   -4   14    1     -0.31      0.00
   -3   14    1     -1.56      0.00
   -2   14    1     -1.11      0.00
   -1   14    1      0.28      0.00
    0   14    1      0.57      0.00
    1   14    1     -0.61      0.00
    2   14    1     -1.07      0.00
    3   14    1      0.27      0.00
    4   14    1      0.50      0.00
    5   14    1     -0.55      0.00
    6   14    1     -1.77      0.00
    7   14    1     -1.58      0.00
    8   14    1      0.08      0.00
    9   14    1      0.79      0.00
   10   14    1      0.29      0.00
   11   14    1     -0.74      0.00
   -8   15    1     -0.10      0.00
   -7   15    1     -0.87      0.00
   -6   15    1     -0.34      0.00
   -5   15    1      0.10      0.00
   -4   15    1     -0.89      0.00
   -3   15    1     -1.34      0.00
   -2   15    1     -0.52      0.00
   -1   15    1      0.66      0.00
    0   15    1      0.71      0.00
    1   15    1     -1.43      0.00
    2   15    1     -0.84      0.00
    3   15    1     -0.35      0.00
    4   15    1     -0.03      0.00
    5   15    1     -0.57      0.00
    6   15    1     -1.18      0.00
    7   15    1     -0.08      0.00
    8   15    1      0.64      0.00
    9   15    1      0.87      0.00
   10   15    1     -0.29      0.00
   -7   16    1     -0.16      0.00
   -6   16    1     -0.64      0.00
   -5   16    1     -0.63      0.00
   -4   16    1      0.11      0.00
   -3   16    1     -0.46      0.00
   -2   16    1     -0.50      0.00
   -1   16    1      1.25      0.00
    0   16    1     -0.22      0.00
    1   16    1     -0.82      0.00
    2   16    1     -1.38      0.00
    3   16    1     -0.16      0.00
    4   16    1     -0.19      0.00
    5   16    1     -0.71      0.00
    6   16    1     -0.28      0.00
    7   16    1     -0.19      0.00
    8   16    1      0.98      0.00
    9   16    1      0.37      0.00
   10   16    1      0.62      0.00
   -6   17    1      0.09      0.00
   -5   17    1      0.64      0.00
   -4   17    1     -0.08      0.00
   -3   17    1     -0.33      0.00
   -2   17    1      0.51      0.00
   -1   17    1     -0.30      0.00
    0   17    1      0.04      0.00
    1   17    1     -1.04      0.00
    2   17    1     -0.26      0.00
    3   17    1     -0.15      0.00
    4   17    1     -0.17      0.00
    5   17    1      0.29      0.00
    6   17    1      0.04      0.00
    7   17    1      0.96      0.00
    8   17    1      0.38      0.00
    9   17    1      0.08      0.00
   -5   18    1      0.20      0.00
   -4   18    1      0.42      0.00
   -3   18    1     -0.16      0.00
   -2   18    1     -0.78      0.00
   -1   18    1      0.32      0.00
    0   18    1     -0.75      0.00
    1   18    1     -0.78      0.00
    2   18    1     -0.18      0.00
    3   18    1      0.23      0.00
    4   18    1      0.34      0.00
    5   18    1     -0.13      0.00
    6   18    1      0.35      0.00
    7   18    1      0.15      0.00
    8   18    1      0.32      0.00
   -4   19    1     -0.12      0.00
   -3   19    1     -0.71      0.00
   -2   19    1     -0.57      0.00
   -1   19    1     -0.49      0.00
    0   19    1     -0.14      0.00
    1   19    1     -0.20      0.00
    2   19    1      0.03      0.00
    3   19    1      0.44      0.00
    4   19    1     -0.13      0.00
    5   19    1     -0.15      0.00
    6   19    1     -0.57      0.00
    7   19    1     -0.15      0.00
   -2   20    1     -0.56      0.00
   -1   20    1     -0.35      0.00
    0   20    1     -0.42      0.00
    1   20    1     -0.04      0.00
    2   20    1      0.57      0.00
    3   20    1      0.15      0.00
    4   20    1      0.09      0.00
    5   20    1     -0.56      0.00
   -4  -20    2      0.16      0.00
   -3  -20    2     -0.58      0.00
   -2  -20    2      0.22      0.00
   -1  -20    2     -0.05      0.00
    0  -20    2     -0.40      0.00
    1  -20    2      0.28      0.00
   -6  -19    2      0.33      0.00
   -5  -19    2     -0.43      0.00
   -4  -19    2     -0.54      0.00
   -3  -19    2      0.02      0.00
   -2  -19    2     -0.41      0.00
   -1  -19    2     -0.40      0.00
    0  -19    2      0.29      0.00
    1  -19    2      0.55      0.00
    2  -19    2     -0.26      0.00
    3  -19    2      0.62      0.00
    4  -19    2     -0.19      0.00
   -7  -18    2      0.18      0.00
   -6  -18    2     -0.35      0.00
   -5  -18    2     -0.12      0.00
   -4  -18    2     -0.56      0.00
   -3  -18    2     -0.52      0.00
   -2  -18    2      0.32      0.00
   -1  -18    2      0.22      0.00
    0  -18    2     -0.14      0.00
    1  -18    2      0.23      0.00
    2  -18    2      0.56      0.00
    3  -18    2     -0.69      0.00
    4  -18    2      0.17      0.00
    5  -18    2     -0.19      0.00
   -8  -17    2      0.38      0.00
   -7  -17    2      0.04      0.00
   -6  -17    2     -0.04      0.00
   -5  -17    2     -0.57      0.00
   -4  -17    2     -0.30      0.00
   -3  -17    2     -0.01      0.00
   -2  -17    2      0.24      0.00
   -1  -17    2      0.30      0.00
    0  -17    2      0.41      0.00
    1  -17    2      0.40      0.00
    2  -17    2     -0.38      0.00
    3  -17    2      0.03      0.00
    4  -17    2     -0.35      0.00
    5  -17    2     -0.35      0.00
    6  -17    2     -0.13      0.00
   -9  -16    2      0.34      0.00
   -8  -16    2      0.28      0.00
   -7  -16    2      0.28      0.00
   -6  -16    2     -0.51      0.00
   -5  -16    2     -0.62      0.00
   -4  -16    2     -0.39      0.00
   -3  -16    2      0.58      0.00
   -2  -16    2      0.73      0.00
   -1  -16    2      0.05      0.00
    0  -16    2     -0.11      0.00
    1  -16    2     -0.34      0.00
    2  -16    2     -0.32      0.00
    3  -16    2     -0.06      0.00
    4  -16    2     -0.15      0.00
    5  -16    2     -0.49      0.00
    6  -16    2     -0.15      0.00
    7  -16    2     -1.04      0.00
  -10  -15    2      0.89      0.00
   -9  -15    2      0.32      0.00
   -8  -15    2     -0.07      0.00
   -7  -15    2     -0.46      0.00
   -6  -15    2     -0.35      0.00
   -5  -15    2     -0.33      0.00
   -4  -15    2      0.23      0.00
   -3  -15    2      0.55      0.00
   -2  -15    2      0.66      0.00
   -1  -15    2     -0.38      0.00
    0  -15    2     -0.89      0.00
    1  -15    2     -0.24      0.00
    2  -15    2     -0.32      0.00
    3  -15    2     -0.25      0.00
    4  -15    2     -0.08      0.00
    5  -15    2     -0.18      0.00
    6  -15    2     -0.70      0.00
    7  -15    2     -0.47      0.00
    8  -15    2     -1.30      0.00
  -10  -14    2     -0.02      0.00
   -9  -14    2     -0.29      0.00
   -8  -14    2     -0.60      0.00
   -7  -14    2     -0.66      0.00
   -6  -14    2     -0.64      0.00
   -5  -14    2      0.40      0.00
   -4  -14    2      0.85      0.00
   -3  -14    2      1.03      0.00
   -2  -14    2     -0.43      0.00
   -1  -14    2     -1.00      0.00
    0  -14    2     -0.41      0.00
    1  -14    2     -0.32      0.00
    2  -14    2      0.46      0.00
    3  -14    2      0.60      0.00
    4  -14    2     -0.34      0.00
    5  -14    2     -0.98      0.00
    6  -14    2      0.04      0.00
    7  -14    2     -0.24      0.00
    8  -14    2      0.20      0.00
    9  -14    2     -0.17      0.00
  -11  -13    2     -0.02      0.00
  -10  -13    2     -0.14      0.00
   -9  -13    2     -0.36      0.00
   -8  -13    2     -0.09      0.00
   -7  -13    2     -0.54      0.00
   -6  -13    2     -0.43      0.00
   -5  -13    2      0.21      0.00
   -4  -13    2      0.99      0.00
   -3  -13    2     -0.03      0.00
   -2  -13    2     -0.77      0.00
   -1  -13    2     -1.34      0.00
    0  -13    2     -0.19      0.00
    1  -13    2      1.36      0.00
    2  -13    2      1.13      0.00
    3  -13    2      0.72      0.00
    4  -13    2      0.04      0.00
    5  -13    2     -0.23      0.00
    6  -13    2     -0.47      0.00
    7  -13    2     -0.10      0.00
    8  -13    2     -0.17      0.00
    9  -13    2      0.42      0.00
   10  -13    2      0.93      0.00
  -11  -12    2     -0.23      0.00
  -10  -12    2      0.16      0.00
   -9  -12    2      0.07      0.00
   -8  -12    2     -0.02      0.00
   -7  -12    2     -0.32      0.00
   -6  -12    2     -0.35      0.00
   -5  -12    2      0.60      0.00
   -4  -12    2      0.27      0.00
   -3  -12    2     -0.29      0.00
   -2  -12    2     -1.04      0.00
   -1  -12    2     -0.23      0.00
    0  -12    2      1.20      0.00
    1  -12    2      2.05      0.00
    2  -12    2      1.64      0.00
    3  -12    2      0.61      0.00
    4  -12    2     -0.98      0.00
    5  -12    2     -0.52      0.00
    6  -12    2      0.83      0.00
    7  -12    2      0.29      0.00
    8  -12    2      0.19      0.00
    9  -12    2      0.62      0.00
   10  -12    2     -0.05      0.00
  -12  -11    2     -0.39      0.00
  -11  -11    2      0.61      0.00
  -10  -11    2      0.17      0.00
   -9  -11    2      0.22      0.00
   -8  -11    2     -0.32      0.00
   -7  -11    2     -0.39      0.00
   -6  -11    2      0.29      0.00
   -5  -11    2      0.00      0.00
   -4  -11    2     -0.44      0.00
   -3  -11    2     -0.11      0.00
   -2  -11    2      0.17      0.00
   -1  -11    2      0.74      0.00
    0  -11    2      2.61      0.00
    1  -11    2      2.36      0.00
    2  -11    2      1.39      0.00
    3  -11    2     -0.93      0.00
    4  -11    2     -1.26      0.00
    5  -11    2     -0.01      0.00
    6  -11    2      1.03      0.00
    7  -11    2      1.02      0.00
    8  -11    2      0.24      0.00
    9  -11    2      0.17      0.00
   10  -11    2      0.86      0.00
   11  -11    2      0.45      0.00
  -12  -10    2      0.26      0.00
  -11  -10    2      0.11      0.00
  -10  -10    2      0.36      0.00
   -9  -10    2     -0.48      0.00
   -8  -10    2     -0.52      0.00
   -7  -10    2     -0.85      0.00
   -6  -10    2     -0.48      0.00
   -5  -10    2      0.56      0.00
   -4  -10    2      0.83      0.00
   -3  -10    2      0.36      0.00
   -2  -10    2      1.02      0.00
   -1  -10    2      2.12      0.00
    0  -10    2      1.95      0.00
    1  -10    2      1.67      0.00
    2  -10    2     -0.38      0.00
    3  -10    2     -1.75      0.00
    4  -10    2     -1.82      0.00
    5  -10    2      0.48      0.00
    6  -10    2      2.51      0.00
    7  -10    2      1.14      0.00
    8  -10    2      0.68      0.00
    9  -10    2      0.40      0.00
   10  -10    2      0.40      0.00
   11  -10    2      0.61      0.00
  -12   -9    2      0.28      0.00
  -11   -9    2      0.51      0.00
  -10   -9    2     -0.08      0.00
   -9   -9    2      0.06      0.00
   -8   -9    2     -0.50      0.00
   -7   -9    2     -1.30      0.00
   -6   -9    2     -0.48      0.00
   -5   -9    2      1.08      0.00
   -4   -9    2      1.46      0.00
   -3   -9    2      1.48      0.00
   -2   -9    2      0.57      0.00
   -1   -9    2      0.64      0.00
    0   -9    2      1.87      0.00
    1   -9    2      0.90      0.00
    2   -9    2     -1.27      0.00
    3   -9    2     -1.44      0.00
    4   -9    2     -1.06      0.00
    5   -9    2      2.16      0.00
    6   -9    2      2.24      0.00
    7   -9    2      1.53      0.00
    8   -9    2      0.41      0.00
    9   -9    2      0.75      0.00
   10   -9    2      0.29      0.00
   11   -9    2      0.12      0.00
   12   -9    2      0.03      0.00
  -13   -8    2      0.11      0.00
  -12   -8    2      0.30      0.00
  -11   -8    2      0.33      0.00
  -10   -8    2     -0.32      0.00
   -9   -8    2     -0.54      0.00
   -8   -8    2     -0.84      0.00
   -7   -8    2     -0.53      0.00
   -6   -8    2      0.88      0.00
   -5   -8    2      2.99      0.00
   -4   -8    2      2.68      0.00
   -3   -8    2      0.25      0.00
   -2   -8    2     -0.94      0.00
   -1   -8    2     -0.54      0.00
    0   -8    2      0.25      0.00
    1   -8    2     -0.15      0.00
    2   -8    2      1.95      0.00
    3   -8    2      0.16      0.00
    4   -8    2      2.17      0.00
    5   -8    2      2.60      0.00
    6   -8    2      3.24      0.00
    7   -8    2      0.51      0.00
    8   -8    2     -0.21      0.00
    9   -8    2      0.16      0.00
   10   -8    2      0.78      0.00
   11   -8    2      0.37      0.00
   12   -8    2      0.00      0.00
  -13   -7    2      0.28      0.00
  -12   -7    2     -0.24      0.00
  -11   -7    2     -0.25      0.00
  -10   -7    2      0.33      0.00
   -9   -7    2     -0.38      0.00
   -8   -7    2     -1.32      0.00
   -7   -7    2     -0.27      0.00
   -6   -7    2      4.13      0.00
   -5   -7    2      2.55      0.00
   -4   -7    2     -0.73      0.00
   -3   -7    2     -1.33      0.00
   -2   -7    2     -1.28      0.00
   -1   -7    2      0.36      0.00
    0   -7    2      1.13      0.00
    1   -7    2      3.70      0.00
    2   -7    2      3.32      0.00
    3   -7    2      5.68      0.00
    4   -7    2      2.22      0.00
    5   -7    2      3.84      0.00
    6   -7    2      2.26      0.00
    7   -7    2     -0.88      0.00
    8   -7    2     -1.12      0.00
    9   -7    2      0.12      0.00
   10   -7    2      0.39      0.00
   11   -7    2      1.04      0.00
   12   -7    2      0.40      0.00
  -13   -6    2     -0.31      0.00
  -12   -6    2     -0.18      0.00
  -11   -6    2     -0.37      0.00
  -10   -6    2     -0.58      0.00
   -9   -6    2     -0.06      0.00
   -8   -6    2      0.27      0.00
   -7   -6    2      1.48      0.00
   -6   -6    2      1.21      0.00
   -5   -6    2      3.13      0.00
   -4   -6    2     -1.07      0.00
   -3   -6    2     -5.15      0.00
   -2   -6    2     -0.42      0.00
   -1   -6    2      4.58      0.00
    0   -6    2      7.25      0.00
    1   -6    2      7.17      0.00
    2   -6    2      9.22      0.00
    3   -6    2      3.20      0.00
    4   -6    2      2.28      0.00
    5   -6    2      2.39      0.00
    6   -6    2      1.05      0.00
    7   -6    2     -0.58      0.00
    8   -6    2     -0.48      0.00
    9   -6    2      0.28      0.00
   10   -6    2      0.60      0.00
   11   -6    2      0.08      0.00
   12   -6    2      0.53      0.00
   13   -6    2      0.53      0.00
  -13   -5    2     -0.23      0.00
  -12   -5    2     -0.36      0.00
  -11   -5    2      0.21      0.00
  -10   -5    2     -0.28      0.00
   -9   -5    2     -0.22      0.00
   -8   -5    2      0.39      0.00
   -7   -5    2      1.65      0.00
   -6   -5    2      4.04      0.00
   -5   -5    2     -3.16      0.00
   -4   -5    2     -5.24      0.00
   -3   -5    2      1.25      0.00
   -2   -5    2      5.48      0.00
   -1   -5    2      9.51      0.00
    0   -5    2     10.19      0.00
    1   -5    2     10.26      0.00
    2   -5    2      7.88      0.00
    3   -5    2      4.28      0.00
    4   -5    2     -1.75      0.00
    5   -5    2     -0.64      0.00
    6   -5    2      1.16      0.00
    7   -5    2     -0.08      0.00
    8   -5    2      0.76      0.00
    9   -5    2      1.76      0.00
   10   -5    2      1.03      0.00
   11   -5    2      1.36      0.00
   12   -5    2      0.19      0.00
   13   -5    2     -0.15      0.00
  -13   -4    2      0.00      0.00
  -12   -4    2      0.14      0.00
  -11   -4    2     -0.16      0.00
  -10   -4    2      0.62      0.00
   -9   -4    2      0.49      0.00
   -8   -4    2      0.23      0.00
   -7   -4    2      2.15      0.00
   -6   -4    2      1.20      0.00
   -5   -4    2      0.38      0.00
   -4   -4    2     -3.83      0.00
   -3   -4    2     -0.92      0.00
   -2   -4    2     14.46      0.00
   -1   -4    2     17.96      0.00
    0   -4    2      8.66      0.00
    1   -4    2      4.28      0.00
    2   -4    2      4.07      0.00
    3   -4    2     -2.69      0.00
    4   -4    2     -1.58      0.00
    5   -4    2      1.79      0.00
    6   -4    2      2.42      0.00
    7   -4    2      1.67      0.00
    8   -4    2      1.83      0.00
    9   -4    2      1.32      0.00
   10   -4    2      1.08      0.00
   11   -4    2      0.30      0.00
   12   -4    2      0.79      0.00
   13   -4    2      0.31      0.00
  -13   -3    2     -0.74      0.00
  -12   -3    2     -0.16      0.00
  -11   -3    2      0.66      0.00
  -10   -3    2      0.38      0.00
   -9   -3    2      0.83      0.00
   -8   -3    2      1.04      0.00
   -7   -3    2      0.23      0.00
   -6   -3    2      0.25      0.00
   -5   -3    2     -2.93      0.00
   -4   -3    2      1.69      0.00
   -3   -3    2     11.62      0.00
   -2   -3    2     10.50      0.00
   -1   -3    2      9.57      0.00
    0   -3    2      8.48      0.00
    1   -3    2      1.61      0.00
    2   -3    2     -4.00      0.00
    3   -3    2      1.92      0.00
    4   -3    2     -1.17      0.00
    5   -3    2      5.48      0.00
    6   -3    2      6.68      0.00
    7   -3    2      3.01      0.00
    8   -3    2      2.14      0.00
    9   -3    2      2.15      0.00
   10   -3    2      0.27      0.00
   11   -3    2      0.05      0.00
   12   -3    2     -1.12      0.00
   13   -3    2     -1.01      0.00
  -13   -2    2      0.07      0.00
  -12   -2    2      0.29      0.00
  -11   -2    2      0.12      0.00
  -10   -2    2      0.31      0.00
   -9   -2    2      0.49      0.00
   -8   -2    2      0.23      0.00
   -7   -2    2      2.04      0.00
   -6   -2    2      1.23      0.00
   -5   -2    2     -0.81      0.00
   -4   -2    2     -0.03      0.00
   -3   -2    2     12.40      0.00
   -2   -2    2     27.75      0.00
   -1   -2    2      4.69      0.00
    0   -2    2    -24.15      0.00
    1   -2    2     -9.55      0.00
    2   -2    2     21.11      0.00
    3   -2    2      5.47      0.00
    4   -2    2      7.86      0.00
    5   -2    2      8.90      0.00
    6   -2    2      7.33      0.00
    7   -2    2      3.82      0.00
    8   -2    2      2.13      0.00
    9   -2    2      0.57      0.00
   10   -2    2      0.25      0.00
   11   -2    2     -0.23      0.00
   12   -2    2     -0.51      0.00
   13   -2    2     -0.46      0.00
   14   -2    2     -0.10      0.00
  -13   -1    2      0.11      0.00
  -12   -1    2      0.65      0.00
  -11   -1    2      0.12      0.00
  -10   -1    2      0.39      0.00
   -9   -1    2      0.63      0.00
   -8   -1    2      0.33      0.00
   -7   -1    2      1.12      0.00
   -6   -1    2      3.47      0.00
   -5   -1    2      1.18      0.00
   -4   -1    2      6.30      0.00
   -3   -1    2     15.80      0.00
   -2   -1    2      5.84      0.00
   -1   -1    2      1.91      0.00
    0   -1    2      5.13      0.00
    1   -1    2      9.01      0.00
    2   -1    2     -2.57      0.00
    3   -1    2     20.52      0.00
    4   -1    2     13.99      0.00
    5   -1    2     12.33      0.00
    6   -1    2      5.91      0.00
    7   -1    2      1.49      0.00
    8   -1    2      0.57      0.00
    9   -1    2      0.06      0.00
   10   -1    2     -0.88      0.00
   11   -1    2     -0.42      0.00
   12   -1    2      0.33      0.00
   13   -1    2      0.05      0.00
   14   -1    2     -0.38      0.00
  -13    0    2      0.25      0.00
  -12    0    2      0.51      0.00
  -11    0    2      0.16      0.00
  -10    0    2      0.28      0.00
   -9    0    2      0.29      0.00
   -8    0    2      1.05      0.00
   -7    0    2      4.03      0.00
   -6    0    2      0.95      0.00
   -5    0    2      0.39      0.00
   -4    0    2      6.45      0.00
   -3    0    2     12.76      0.00
   -2    0    2     11.96      0.00
   -1    0    2    -10.50      0.00
    0    0    2     -3.22      0.00
    1    0    2     19.69      0.00
    2    0    2     45.78      0.00
    3    0    2     11.43      0.00
    4    0    2      8.83      0.00
    5    0    2      7.95      0.00
    6    0    2      4.69      0.00
    7    0    2     -0.67      0.00
    8    0    2     -0.97      0.00
    9    0    2     -1.22      0.00
   10    0    2     -0.98      0.00
   11    0    2      0.25      0.00
   12    0    2      0.06      0.00
   13    0    2      0.21      0.00
   14    0    2      0.66      0.00
  -13    1    2      0.11      0.00
  -12    1    2      0.12      0.00
  -11    1    2      0.10      0.00
  -10    1    2      0.21      0.00
   -9    1    2      0.53      0.00
   -8    1    2      1.98      0.00
   -7    1    2      3.11      0.00
   -6    1    2      4.12      0.00
   -5    1    2     -0.24      0.00
   -4    1    2      3.13      0.00
   -3    1    2     11.93      0.00
   -2    1    2      4.04      0.00
   -1    1    2      0.89      0.00
    0    1    2     -5.44      0.00
    1    1    2     22.61      0.00
    2    1    2     20.71      0.00
    3    1    2     23.88      0.00
    4    1    2      6.17      0.00
    5    1    2      0.52      0.00
    6    1    2     -3.92      0.00
    7    1    2     -1.36      0.00
    8    1    2     -0.20      0.00
    9    1    2     -0.24      0.00
   10    1    2     -0.17      0.00
   11    1    2      0.59      0.00
   12    1    2      0.67      0.00
   13    1    2     -0.41      0.00
   14    1    2     -0.31      0.00
  -13    2    2     -0.67      0.00
  -12    2    2     -0.53      0.00
  -11    2    2     -0.45      0.00
  -10    2    2      0.70      0.00
   -9    2    2      1.12      0.00
   -8    2    2      1.20      0.00
   -7    2    2      3.27      0.00
   -6    2    2     -0.18      0.00
   -5    2    2     -0.94      0.00
   -4    2    2      3.99      0.00
   -3    2    2      5.72      0.00
   -2    2    2      1.97      0.00
   -1    2    2    -10.87      0.00
    0    2    2     15.74      0.00
    1    2    2     16.25      0.00
    2    2    2     12.68      0.00
    3    2    2     -1.19      0.00
    4    2    2      1.33      0.00
    5    2    2     -2.62      0.00
    6    2    2     -4.22      0.00
    7    2    2     -4.35      0.00
    8    2    2     -0.40      0.00
    9    2    2     -0.12      0.00
   10    2    2      0.58      0.00
   11    2    2      0.30      0.00
   12    2    2     -0.47      0.00
   13    2    2      0.09      0.00
   14    2    2     -0.39      0.00
  -13    3    2      0.66      0.00
  -12    3    2      0.01      0.00
  -11    3    2     -0.63      0.00
  -10    3    2      0.19      0.00
   -9    3    2      1.37      0.00
   -8    3    2      2.49      0.00
   -7    3    2      1.25      0.00
   -6    3    2     -1.35      0.00
   -5    3    2     -4.25      0.00
   -4    3    2      0.86      0.00
   -3    3    2      7.42      0.00
   -2    3    2     -4.07      0.00
   -1    3    2     -3.06      0.00
    0    3    2     -8.79      0.00
    1    3    2     10.31      0.00
    2    3    2     11.30      0.00
    3    3    2     -0.01      0.00
    4    3    2     -9.91      0.00
    5    3    2     -7.08      0.00
    6    3    2     -2.96      0.00
    7    3    2      1.46      0.00
    8    3    2     -0.37      0.00
    9    3    2     -0.19      0.00
   10    3    2     -0.77      0.00
   11    3    2     -0.40      0.00
   12    3    2     -0.21      0.00
   13    3    2     -1.13      0.00
   14    3    2     -0.25      0.00
  -13    4    2     -0.02      0.00
  -12    4    2      0.50      0.00
  -11    4    2      0.48      0.00
  -10    4    2      0.46      0.00
   -9    4    2      0.52      0.00
   -8    4    2      0.57      0.00
   -7    4    2      0.84      0.00
   -6    4    2     -2.88      0.00
   -5    4    2     -4.27      0.00
   -4    4    2      0.71      0.00
   -3    4    2      1.37      0.00
   -2    4    2      1.26      0.00
   -1    4    2    -12.05      0.00
    0    4    2     -1.39      0.00
    1    4    2      1.77      0.00
    2    4    2     -0.06      0.00
    3    4    2     -3.01      0.00
    4    4    2     -5.35      0.00
    5    4    2     -5.99      0.00
    6    4    2     -2.41      0.00
    7    4    2      0.79      0.00
    8    4    2      3.23      0.00
    9    4    2     -0.76      0.00
   10    4    2     -1.95      0.00
   11    4    2     -0.91      0.00
   12    4    2     -0.71      0.00
   13    4    2     -0.67      0.00
   14    4    2     -0.56      0.00
  -12    5    2      0.00      0.00
  -11    5    2      0.18      0.00
  -10    5    2      0.74      0.00
   -9    5    2     -0.51      0.00
   -8    5    2     -1.51      0.00
   -7    5    2     -1.80      0.00
   -6    5    2     -2.77      0.00
   -5    5    2     -3.48      0.00
   -4    5    2     -0.14      0.00
   -3    5    2      3.47      0.00
   -2    5    2     -8.91      0.00
   -1    5    2     -7.88      0.00
    0    5    2     -5.07      0.00
    1    5    2      3.75      0.00
    2    5    2      1.24      0.00
    3    5    2     -6.52      0.00
    4    5    2     -5.44      0.00
    5    5    2     -0.57      0.00
    6    5    2      1.58      0.00
    7    5    2      1.53      0.00
    8    5    2     -1.14      0.00
    9    5    2     -1.24      0.00
   10    5    2     -1.42      0.00
   11    5    2     -1.20      0.00
   12    5    2     -0.23      0.00
   13    5    2      0.20      0.00
   14    5    2      0.24      0.00
  -12    6    2      0.05      0.00
  -11    6    2     -0.53      0.00
  -10    6    2     -0.61      0.00
   -9    6    2     -0.49      0.00
   -8    6    2     -1.20      0.00
   -7    6    2     -1.77      0.00
   -6    6    2     -3.71      0.00
   -5    6    2     -2.28      0.00
   -4    6    2      2.88      0.00
   -3    6    2      0.98      0.00
   -2    6    2     -4.92      0.00
   -1    6    2    -15.13      0.00
    0    6    2     -4.05      0.00
    1    6    2      2.68      0.00
    2    6    2      2.92      0.00
    3    6    2     -0.09      0.00
    4    6    2     -4.69      0.00
    5    6    2     -3.46      0.00
    6    6    2      1.11      0.00
    7    6    2      1.85      0.00
    8    6    2     -0.69      0.00
    9    6    2     -3.38      0.00
   10    6    2     -2.14      0.00
   11    6    2      0.53      0.00
   12    6    2      0.91      0.00
   13    6    2     -0.26      0.00
   14    6    2      0.02      0.00
  -12    7    2     -0.24      0.00
  -11    7    2     -0.78      0.00
  -10    7    2     -0.57      0.00
   -9    7    2     -1.16      0.00
   -8    7    2     -0.66      0.00
   -7    7    2     -0.49      0.00
   -6    7    2     -0.60      0.00
   -5    7    2     -0.99      0.00
   -4    7    2      2.07      0.00
   -3    7    2      0.70      0.00
   -2    7    2     -9.04      0.00
   -1    7    2     -6.08      0.00
    0    7    2     -4.37      0.00
    1    7    2      4.04      0.00
    2    7    2      3.59      0.00
    3    7    2     -2.53      0.00
    4    7    2     -2.15      0.00
    5    7    2     -0.93      0.00
    6    7    2     -1.21      0.00
    7    7    2     -0.64      0.00
    8    7    2     -0.90      0.00
    9    7    2     -1.66      0.00
   10    7    2     -1.35      0.00
   11    7    2      0.26      0.00
   12    7    2      0.01      0.00
   13    7    2     -0.01      0.00
  -12    8    2     -0.89      0.00
  -11    8    2     -0.78      0.00
  -10    8    2     -0.74      0.00
   -9    8    2     -0.17      0.00
   -8    8    2     -0.65      0.00
   -7    8    2      0.62      0.00
   -6    8    2     -0.44      0.00
   -5    8    2      0.73      0.00
   -4    8    2      0.91      0.00
   -3    8    2     -2.33      0.00
   -2    8    2     -5.29      0.00
   -1    8    2     -7.97      0.00
    0    8    2      4.11      0.00
    1    8    2      5.64      0.00
    2    8    2      0.68      0.00
    3    8    2     -3.50      0.00
    4    8    2     -6.01      0.00
    5    8    2     -2.07      0.00
    6    8    2      0.94      0.00
    7    8    2     -0.61      0.00
    8    8    2     -1.97      0.00
    9    8    2     -1.85      0.00
   10    8    2      0.35      0.00
   11    8    2      0.35      0.00
   12    8    2      0.42      0.00
   13    8    2     -0.55      0.00
  -11    9    2     -0.75      0.00
  -10    9    2      0.33      0.00
   -9    9    2     -0.19      0.00
   -8    9    2      0.75      0.00
   -7    9    2     -0.23      0.00
   -6    9    2     -0.22      0.00
   -5    9    2     -0.69      0.00
   -4    9    2      0.18      0.00
   -3    9    2     -1.62      0.00
   -2    9    2     -6.31      0.00
   -1    9    2     -1.51      0.00
    0    9    2      1.94      0.00
    1    9    2      5.40      0.00
    2    9    2      0.43      0.00
    3    9    2     -6.46      0.00
    4    9    2     -4.54      0.00
    5    9    2     -2.32      0.00
    6    9    2     -0.99      0.00
    7    9    2      0.06      0.00
    8    9    2     -1.36      0.00
    9    9    2     -1.39      0.00
   10    9    2     -0.98      0.00
   11    9    2      0.95      0.00
   12    9    2     -0.53      0.00
   13    9    2     -0.46      0.00
  -11   10    2      0.10      0.00
  -10   10    2     -0.05      0.00
   -9   10    2      0.81      0.00
   -8   10    2     -0.55      0.00
   -7   10    2      0.06      0.00
   -6   10    2     -0.97      0.00
   -5   10    2     -1.40      0.00
   -4   10    2      0.04      0.00
   -3   10    2     -1.09      0.00
   -2   10    2     -2.58      0.00
   -1   10    2     -1.95      0.00
    0   10    2      3.69      0.00
    1   10    2      2.35      0.00
    2   10    2     -2.94      0.00
    3   10    2     -5.00      0.00
    4   10    2     -4.64      0.00
    5   10    2     -1.36      0.00
    6   10    2      0.41      0.00
    7   10    2     -0.06      0.00
    8   10    2     -0.11      0.00
    9   10    2     -0.82      0.00
   10   10    2     -0.19      0.00
   11   10    2     -1.20      0.00
   12   10    2      0.10      0.00
   13   10    2      0.11      0.00
  -10   11    2      0.68      0.00
   -9   11    2     -0.34      0.00
   -8   11    2     -0.53      0.00
   -7   11    2     -1.40      0.00
   -6   11    2     -1.51      0.00
   -5   11    2     -0.27      0.00
   -4   11    2     -0.04      0.00
   -3   11    2     -0.80      0.00
   -2   11    2     -1.93      0.00
   -1   11    2     -0.04      0.00
    0   11    2      1.28      0.00
    1   11    2      0.78      0.00
    2   11    2     -2.43      0.00
    3   11    2     -4.53      0.00
    4   11    2     -2.34      0.00
    5   11    2      0.21      0.00
    6   11    2      1.14      0.00
    7   11    2      0.81      0.00
    8   11    2     -0.76      0.00
    9   11    2     -1.24      0.00
   10   11    2     -0.64      0.00
   11   11    2      0.68      0.00
   12   11    2     -0.27      0.00
  -10   12    2      0.42      0.00
   -9   12    2     -0.36      0.00
   -8   12    2     -1.16      0.00
   -7   12    2     -0.87      0.00
   -6   12    2     -1.11      0.00
   -5   12    2     -0.81      0.00
   -4   12    2      1.13      0.00
   -3   12    2      0.27      0.00
   -2   12    2     -1.64      0.00
   -1   12    2     -1.39      0.00
    0   12    2      0.73      0.00
    1   12    2     -0.32      0.00
    2   12    2     -2.36      0.00
    3   12    2     -2.62      0.00
    4   12    2     -0.74      0.00
    5   12    2      1.14      0.00
    6   12    2      1.90      0.00
    7   12    2      0.49      0.00
    8   12    2     -1.40      0.00
    9   12    2     -1.20      0.00
   10   12    2     -0.33      0.00
   11   12    2      0.34      0.00
   12   12    2      0.89      0.00
   -9   13    2     -0.05      0.00
   -8   13    2     -0.32      0.00
   -7   13    2     -0.91      0.00
   -6   13    2     -0.79      0.00
   -5   13    2     -0.14      0.00
   -4   13    2      0.31      0.00
   -3   13    2     -0.03      0.00
   -2   13    2     -1.24      0.00
   -1   13    2     -0.88      0.00
    0   13    2     -0.27      0.00
    1   13    2      0.27      0.00
    2   13    2     -1.23      0.00
    3   13    2     -1.66      0.00
    4   13    2     -0.03      0.00
    5   13    2      1.68      0.00
    6   13    2      1.12      0.00
    7   13    2     -0.85      0.00
    8   13    2     -1.63      0.00
    9   13    2     -0.85      0.00
   10   13    2      0.52      0.00
   11   13    2      0.08      0.00
   12   13    2     -0.57      0.00
   -9   14    2     -0.66      0.00
   -8   14    2     -0.34      0.00
   -7   14    2      0.07      0.00
   -6   14    2     -0.58      0.00
   -5   14    2     -0.04      0.00
   -4   14    2      0.38      0.00
   -3   14    2     -0.84      0.00
   -2   14    2     -1.75      0.00
   -1   14    2     -1.34      0.00
    0   14    2      0.55      0.00
    1   14    2      0.26      0.00
    2   14    2     -0.95      0.00
    3   14    2     -0.67      0.00
    4   14    2      0.27      0.00
    5   14    2      1.06      0.00
    6   14    2      0.12      0.00
    7   14    2     -1.46      0.00
    8   14    2     -1.15      0.00
    9   14    2     -0.17      0.00
   10   14    2      0.06      0.00
   11   14    2      0.30      0.00
   -8   15    2     -0.16      0.00
   -7   15    2     -0.39      0.00
   -6   15    2     -0.15      0.00
   -5   15    2     -0.27      0.00
   -4   15    2      0.06      0.00
   -3   15    2     -0.41      0.00
   -2   15    2     -1.50      0.00
   -1   15    2     -0.78      0.00
    0   15    2      0.40      0.00
    1   15    2      0.54      0.00
    2   15    2      0.04      0.00
    3   15    2     -1.28      0.00
    4   15    2      0.18      0.00
    5   15    2      0.41      0.00
    6   15    2     -0.61      0.00
    7   15    2     -1.08      0.00
    8   15    2     -1.17      0.00
    9   15    2      0.08      0.00
   10   15    2      0.29      0.00
   11   15    2      0.60      0.00
   -7   16    2     -0.65      0.00
   -6   16    2     -0.99      0.00
   -5   16    2      0.27      0.00
   -4   16    2      0.27      0.00
   -3   16    2     -0.64      0.00
   -2   16    2     -0.40      0.00
   -1   16    2     -0.03      0.00
    0   16    2      0.24      0.00
    1   16    2      0.56      0.00
    2   16    2     -1.01      0.00
    3   16    2      0.01      0.00
    4   16    2     -0.53      0.00
    5   16    2     -0.17      0.00
    6   16    2     -0.25      0.00
    7   16    2     -0.54      0.00
    8   16    2      1.00      0.00
    9   16    2      0.60      0.00
   10   16    2      0.44      0.00
   -6   17    2     -0.19      0.00
   -5   17    2     -0.39      0.00
   -4   17    2      0.13      0.00
   -3   17    2      0.54      0.00
   -2   17    2     -0.11      0.00
   -1   17    2      0.17      0.00
    0   17    2      0.92      0.00
    1   17    2     -0.39      0.00
    2   17    2     -0.54      0.00
    3   17    2     -1.49      0.00
    4   17    2      0.35      0.00
    5   17    2      0.16      0.00
    6   17    2     -0.29      0.00
    7   17    2      0.35      0.00
    8   17    2      0.28      0.00
    9   17    2      0.97      0.00
   -5   18    2      0.57      0.00
   -4   18    2      0.37      0.00
   -3   18    2      0.12      0.00
   -2   18    2      0.35      0.00
   -1   18    2     -0.06      0.00
    0   18    2     -0.30      0.00
    1   18    2     -0.11      0.00
    2   18    2     -0.99      0.00
    3   18    2      0.39      0.00
    4   18    2      0.16      0.00
    5   18    2      0.54      0.00
    6   18    2      0.23      0.00
    7   18    2      0.04      0.00
    8   18    2      0.52      0.00
   -4   19    2      0.31      0.00
   -3   19    2      0.44      0.00
   -2   19    2     -0.17      0.00
   -1   19    2     -0.23      0.00
    0   19    2     -0.44      0.00
    1   19    2     -0.88      0.00
    2   19    2     -0.20      0.00
    3   19    2     -0.09      0.00
    4   19    2      0.61      0.00
    5   19    2      0.26      0.00
    6   19    2      0.26      0.00
    7   19    2      0.14      0.00
   -2   20    2     -0.50      0.00
   -1   20    2     -0.44      0.00
    0   20    2     -0.06      0.00
    1   20    2     -0.18      0.00
    2   20    2     -0.26      0.00
    3   20    2      0.16      0.00
    4   20    2      0.08      0.00
    5   20    2      0.07      0.00
   -3  -20    3     -0.08      0.00
   -2  -20    3      0.23      0.00
   -1  -20    3     -0.13      0.00
    0  -20    3     -0.44      0.00
    1  -20    3     -0.20      0.00
   -5  -19    3     -0.37      0.00
   -4  -19    3      0.20      0.00
   -3  -19    3     -0.55      0.00
   -2  -19    3     -0.46      0.00
   -1  -19    3      0.07      0.00
    0  -19    3      0.15      0.00
    1  -19    3     -0.66      0.00
    2  -19    3      0.47      0.00
    3  -19    3      0.12      0.00
   -7  -18    3      0.09      0.00
   -6  -18    3      0.38      0.00
   -5  -18    3      0.17      0.00
   -4  -18    3     -0.64      0.00
   -3  -18    3     -0.26      0.00
   -2  -18    3     -0.76      0.00
   -1  -18    3      0.25      0.00
    0  -18    3     -0.20      0.00
    1  -18    3      0.63      0.00
    2  -18    3      0.41      0.00
    3  -18    3      0.35      0.00
    4  -18    3      0.06      0.00
    5  -18    3     -0.57      0.00
   -8  -17    3     -0.04      0.00
   -7  -17    3      0.60      0.00
   -6  -17    3      0.44      0.00
   -5  -17    3     -0.10      0.00
   -4  -17    3      0.00      0.00
   -3  -17    3     -1.03      0.00
   -2  -17    3      0.23      0.00
   -1  -17    3      0.27      0.00
    0  -17    3      0.65      0.00
    1  -17    3     -0.17      0.00
    2  -17    3      0.73      0.00
    3  -17    3      0.02      0.00
    4  -17    3     -0.23      0.00
    5  -17    3      0.26      0.00
    6  -17    3     -0.28      0.00
   -9  -16    3      0.40      0.00
   -8  -16    3      0.50      0.00
   -7  -16    3      0.42      0.00
   -6  -16    3      0.15      0.00
   -5  -16    3     -0.06      0.00
   -4  -16    3     -0.62      0.00
   -3  -16    3     -0.01      0.00
   -2  -16    3      0.18      0.00
   -1  -16    3      1.38      0.00
    0  -16    3     -0.25      0.00
    1  -16    3      0.24      0.00
    2  -16    3      0.29      0.00
    3  -16    3      0.13      0.00
    4  -16    3     -0.26      0.00
    5  -16    3     -0.28      0.00
    6  -16    3     -0.09      0.00
    7  -16    3     -0.45      0.00
   -9  -15    3      0.11      0.00
   -8  -15    3      0.23      0.00
   -7  -15    3      0.29      0.00
   -6  -15    3     -0.17      0.00
   -5  -15    3     -0.80      0.00
   -4  -15    3      0.13      0.00
   -3  -15    3      0.39      0.00
   -2  -15    3      1.14      0.00
   -1  -15    3      0.18      0.00
    0  -15    3      0.09      0.00
    1  -15    3     -0.29      0.00
    2  -15    3      0.19      0.00
    3  -15    3      0.03      0.00
    4  -15    3     -0.11      0.00
    5  -15    3     -0.41      0.00
    6  -15    3     -0.88      0.00
    7  -15    3     -0.13      0.00
    8  -15    3     -0.09      0.00
  -10  -14    3     -0.14      0.00
   -9  -14    3     -0.14      0.00
   -8  -14    3     -0.40      0.00
   -7  -14    3      0.51      0.00
   -6  -14    3     -0.04      0.00
   -5  -14    3     -0.50      0.00
   -4  -14    3     -0.33      0.00
   -3  -14    3      0.99      0.00
   -2  -14    3      1.45      0.00
   -1  -14    3      0.93      0.00
    0  -14    3     -1.25      0.00
    1  -14    3     -0.80      0.00
    2  -14    3      0.38      0.00
    3  -14    3      0.24      0.00
    4  -14    3      0.35      0.00
    5  -14    3     -0.13      0.00
    6  -14    3     -0.34      0.00
    7  -14    3     -0.47      0.00
    8  -14    3     -0.23      0.00
    9  -14    3     -0.47      0.00
  -11  -13    3     -0.04      0.00
  -10  -13    3     -0.26      0.00
   -9  -13    3     -0.64      0.00
   -8  -13    3      0.12      0.00
   -7  -13    3      0.10      0.00
   -6  -13    3     -0.59      0.00
   -5  -13    3     -0.69      0.00
   -4  -13    3      0.76      0.00
   -3  -13    3      1.21      0.00
   -2  -13    3      1.19      0.00
   -1  -13    3     -0.31      0.00
    0  -13    3     -1.18      0.00
    1  -13    3     -0.30      0.00
    2  -13    3      0.97      0.00
    3  -13    3      1.48      0.00
    4  -13    3      0.18      0.00
    5  -13    3     -0.70      0.00
    6  -13    3     -0.20      0.00
    7  -13    3      0.60      0.00
    8  -13    3     -0.08      0.00
    9  -13    3     -0.07      0.00
   10  -13    3      0.12      0.00
  -11  -12    3     -0.67      0.00
  -10  -12    3     -0.08      0.00
   -9  -12    3     -0.05      0.00
   -8  -12    3      0.34      0.00
   -7  -12    3      0.31      0.00
   -6  -12    3     -0.41      0.00
   -5  -12    3     -0.05      0.00
   -4  -12    3      0.35      0.00
   -3  -12    3      0.86      0.00
   -2  -12    3      0.74      0.00
   -1  -12    3     -0.69      0.00
    0  -12    3     -1.62      0.00
    1  -12    3      0.48      0.00
    2  -12    3      2.84      0.00
    3  -12    3      2.18      0.00
    4  -12    3     -0.24      0.00
    5  -12    3     -1.00      0.00
    6  -12    3     -0.04      0.00
    7  -12    3      0.67      0.00
    8  -12    3      0.35      0.00
    9  -12    3     -0.18      0.00
   10  -12    3     -0.13      0.00
  -11  -11    3     -0.43      0.00
  -10  -11    3     -0.63      0.00
   -9  -11    3      0.11      0.00
   -8  -11    3      0.62      0.00
   -7  -11    3      0.74      0.00
   -6  -11    3     -0.46      0.00
   -5  -11    3     -0.68      0.00
   -4  -11    3      0.66      0.00
   -3  -11    3      1.15      0.00
   -2  -11    3      0.58      0.00
   -1  -11    3     -0.45      0.00
    0  -11    3     -0.57      0.00
    1  -11    3      1.81      0.00
    2  -11    3      4.06      0.00
    3  -11    3      1.91      0.00
    4  -11    3     -0.71      0.00
    5  -11    3     -1.64      0.00
    6  -11    3      0.24      0.00
    7  -11    3      1.05      0.00
    8  -11    3      0.22      0.00
    9  -11    3      0.00      0.00
   10  -11    3      0.66      0.00
   11  -11    3      0.15      0.00
  -12  -10    3     -1.09      0.00
  -11  -10    3     -0.39      0.00
  -10  -10    3      0.16      0.00
   -9  -10    3      0.13      0.00
   -8  -10    3      0.90      0.00
   -7  -10    3      0.40      0.00
   -6  -10    3     -0.86      0.00
   -5  -10    3     -0.92      0.00
   -4  -10    3     -0.16      0.00
   -3  -10    3      1.42      0.00
   -2  -10    3      2.45      0.00
   -1  -10    3      0.17      0.00
    0  -10    3     -0.51      0.00
    1  -10    3      3.06      0.00
    2  -10    3      4.12      0.00
    3  -10    3      1.65      0.00
    4  -10    3     -2.03      0.00
    5  -10    3     -1.51      0.00
    6  -10    3      0.80      0.00
    7  -10    3      1.26      0.00
    8  -10    3      0.39      0.00
    9  -10    3      0.71      0.00
   10  -10    3      1.01      0.00
   11  -10    3      0.48      0.00
  -12   -9    3      0.07      0.00
  -11   -9    3     -0.08      0.00
  -10   -9    3      0.28      0.00
   -9   -9    3      0.44      0.00
   -8   -9    3      0.50      0.00
   -7   -9    3     -0.66      0.00
   -6   -9    3     -1.53      0.00
   -5   -9    3     -1.17      0.00
   -4   -9    3      1.18      0.00
   -3   -9    3      3.63      0.00
   -2   -9    3      3.37      0.00
   -1   -9    3      0.84      0.00
    0   -9    3     -0.48      0.00
    1   -9    3      1.39      0.00
    2   -9    3      3.23      0.00
    3   -9    3      0.41      0.00
    4   -9    3     -2.88      0.00
    5   -9    3     -0.99      0.00
    6   -9    3      1.98      0.00
    7   -9    3      2.54      0.00
    8   -9    3      0.82      0.00
    9   -9    3      0.04      0.00
   10   -9    3      0.58      0.00
   11   -9    3      0.68      0.00
   12   -9    3      0.34      0.00
  -12   -8    3      0.23      0.00
  -11   -8    3     -0.14      0.00
  -10   -8    3     -0.09      0.00
   -9   -8    3      1.19      0.00
   -8   -8    3      0.50      0.00
   -7   -8    3     -0.93      0.00
   -6   -8    3     -1.93      0.00
   -5   -8    3      0.42      0.00
   -4   -8    3      2.38      0.00
   -3   -8    3      4.59      0.00
   -2   -8    3      3.99      0.00
   -1   -8    3     -0.58      0.00
    0   -8    3     -2.34      0.00
    1   -8    3      1.45      0.00
    2   -8    3      3.28      0.00
    3   -8    3     -0.40      0.00
    4   -8    3     -1.37      0.00
    5   -8    3     -0.53      0.00
    6   -8    3      3.57      0.00
    7   -8    3      2.99      0.00
    8   -8    3      0.20      0.00
    9   -8    3     -0.23      0.00
   10   -8    3     -0.04      0.00
   11   -8    3      0.24      0.00
   12   -8    3      0.39      0.00
  -12   -7    3      0.15      0.00
  -11   -7    3      0.08      0.00
  -10   -7    3      0.33      0.00
   -9   -7    3     -0.27      0.00
   -8   -7    3      0.31      0.00
   -7   -7    3     -0.42      0.00
   -6   -7    3     -0.90      0.00
   -5   -7    3      0.29      0.00
   -4   -7    3      5.67      0.00
   -3   -7    3      5.33      0.00
   -2   -7    3      0.77      0.00
   -1   -7    3     -3.79      0.00
    0   -7    3     -3.37      0.00
    1   -7    3      2.42      0.00
    2   -7    3      6.12      0.00
    3   -7    3      3.76      0.00
    4   -7    3     -2.32      0.00
    5   -7    3      2.10      0.00
    6   -7    3      4.00      0.00
    7   -7    3      1.97      0.00
    8   -7    3     -0.09      0.00
    9   -7    3     -0.73      0.00
   10   -7    3      0.64      0.00
   11   -7    3      0.12      0.00
   12   -7    3     -0.34      0.00
  -13   -6    3      0.33      0.00
  -12   -6    3     -0.27      0.00
  -11   -6    3     -0.36      0.00
  -10   -6    3      0.29      0.00
   -9   -6    3      0.78      0.00
   -8   -6    3     -0.60      0.00
   -7   -6    3     -1.55      0.00
   -6   -6    3      0.94      0.00
   -5   -6    3      4.73      0.00
   -4   -6    3      2.27      0.00
   -3   -6    3      2.78      0.00
   -2   -6    3      0.14      0.00
   -1   -6    3     -5.20      0.00
    0   -6    3     -3.57      0.00
    1   -6    3      6.75      0.00
    2   -6    3     10.64      0.00
    3   -6    3      4.52      0.00
    4   -6    3      2.45      0.00
    5   -6    3      0.53      0.00
    6   -6    3      2.38      0.00
    7   -6    3      1.54      0.00
    8   -6    3     -1.91      0.00
    9   -6    3     -0.73      0.00
   10   -6    3      0.27      0.00
   11   -6    3      1.03      0.00
   12   -6    3      0.86      0.00
   13   -6    3      0.18      0.00
  -13   -5    3      0.33      0.00
  -12   -5    3     -0.19      0.00
  -11   -5    3     -0.45      0.00
  -10   -5    3      0.15      0.00
   -9   -5    3      0.39      0.00
   -8   -5    3     -0.20      0.00
   -7   -5    3      0.35      0.00
   -6   -5    3      1.28      0.00
   -5   -5    3      3.42      0.00
   -4   -5    3      6.12      0.00
   -3   -5    3      0.33      0.00
   -2   -5    3     -3.78      0.00
   -1   -5    3     -3.36      0.00
    0   -5    3      3.53      0.00
    1   -5    3     11.34      0.00
    2   -5    3     13.86      0.00
    3   -5    3      5.32      0.00
    4   -5    3     -3.66      0.00
    5   -5    3      0.76      0.00
    6   -5    3      3.03      0.00
    7   -5    3     -0.58      0.00
    8   -5    3     -1.28      0.00
    9   -5    3     -0.88      0.00
   10   -5    3      0.83      0.00
   11   -5    3      0.19      0.00
   12   -5    3      0.01      0.00
   13   -5    3      0.75      0.00
  -13   -4    3      0.14      0.00
  -12   -4    3     -0.61      0.00
  -11   -4    3     -0.30      0.00
  -10   -4    3      0.31      0.00
   -9   -4    3     -0.06      0.00
   -8   -4    3      1.06      0.00
   -7   -4    3      1.56      0.00
   -6   -4    3      2.68      0.00
   -5   -4    3      1.50      0.00
   -4   -4    3     -0.87      0.00
   -3   -4    3      2.66      0.00
   -2   -4    3      1.70      0.00
   -1   -4    3     -2.19      0.00
    0   -4    3      3.67      0.00
    1   -4    3     18.17      0.00
    2   -4    3     13.37      0.00
    3   -4    3     -0.87      0.00
    4   -4    3     -4.15      0.00
    5   -4    3     -2.53      0.00
    6   -4    3      1.76      0.00
    7   -4    3      1.86      0.00
    8   -4    3     -1.34      0.00
    9   -4    3      0.75      0.00
   10   -4    3      1.45      0.00
   11   -4    3      1.13      0.00
   12   -4    3      0.60      0.00
   13   -4    3     -0.47      0.00
  -13   -3    3      0.52      0.00
  -12   -3    3      0.13      0.00
  -11   -3    3      0.53      0.00
  -10   -3    3      0.45      0.00
   -9   -3    3      0.84      0.00
   -8   -3    3      0.92      0.00
   -7   -3    3      1.32      0.00
   -6   -3    3      1.39      0.00
   -5   -3    3      2.61      0.00
   -4   -3    3     -0.43      0.00
   -3   -3    3     -3.84      0.00
   -2   -3    3      2.83      0.00
   -1   -3    3     10.34      0.00
    0   -3    3      9.41      0.00
    1   -3    3      3.61      0.00
    2   -3    3      3.56      0.00
    3   -3    3     -0.80      0.00
    4   -3    3     -8.40      0.00
    5   -3    3      0.94      0.00
    6   -3    3      4.11      0.00
    7   -3    3      1.19      0.00
    8   -3    3      1.10      0.00
    9   -3    3      0.54      0.00
   10   -3    3      1.35      0.00
   11   -3    3      0.97      0.00
   12   -3    3      0.24      0.00
   13   -3    3      0.38      0.00
  -13   -2    3     -0.72      0.00
  -12   -2    3     -0.16      0.00
  -11   -2    3      0.34      0.00
  -10   -2    3      0.83      0.00
   -9   -2    3      1.46      0.00
   -8   -2    3      1.76      0.00
   -7   -2    3     -0.01      0.00
   -6   -2    3      0.37      0.00
   -5   -2    3     -0.61      0.00
   -4   -2    3      0.00      0.00
   -3   -2    3      6.19      0.00
   -2   -2    3      4.56      0.00
   -1   -2    3     -4.27      0.00
    0   -2    3      5.11      0.00
    1   -2    3     20.17      0.00
    2   -2    3      6.71      0.00
    3   -2    3    -17.17      0.00
    4   -2    3     -4.90      0.00
    5   -2    3      2.21      0.00
    6   -2    3      6.21      0.00
    7   -2    3      3.95      0.00
    8   -2    3      0.06      0.00
    9   -2    3      1.55      0.00
   10   -2    3      0.86      0.00
   11   -2    3     -0.33      0.00
   12   -2    3     -0.10      0.00
   13   -2    3      0.00      0.00
   14   -2    3     -0.40      0.00
  -13   -1    3     -0.06      0.00
  -12   -1    3     -0.38      0.00
  -11   -1    3      0.65      0.00
  -10   -1    3      1.13      0.00
   -9   -1    3      1.24      0.00
   -8   -1    3      0.42      0.00
   -7   -1    3      0.70      0.00
   -6   -1    3      1.22      0.00
   -5   -1    3      0.54      0.00
   -4   -1    3      0.43      0.00
   -3   -1    3      4.35      0.00
   -2   -1    3      8.93      0.00
   -1   -1    3      5.31      0.00
    0   -1    3     -0.51      0.00
    1   -1    3      4.03      0.00
    2   -1    3      1.71      0.00
    3   -1    3      6.42      0.00
    4   -1    3     -5.27      0.00
    5   -1    3      6.13      0.00
    6   -1    3      7.74      0.00
    7   -1    3      2.46      0.00
    8   -1    3      0.85      0.00
    9   -1    3     -0.19      0.00
   10   -1    3      0.00      0.00
   11   -1    3     -0.14      0.00
   12   -1    3     -0.13      0.00
   13   -1    3     -0.62      0.00
   14   -1    3     -0.23      0.00
  -13    0    3     -0.45      0.00
  -12    0    3      0.37      0.00
  -11    0    3      0.72      0.00
  -10    0    3      0.94      0.00
   -9    0    3      0.75      0.00
   -8    0    3      0.12      0.00
   -7    0    3     -0.75      0.00
   -6    0    3      1.50      0.00
   -5    0    3      3.03      0.00
   -4    0    3      3.04      0.00
   -3    0    3      8.61      0.00
   -2    0    3      5.87      0.00
   -1    0    3      2.26      0.00
    0    0    3      9.05      0.00
    1    0    3      3.58      0.00
    2    0    3      3.59      0.00
    3    0    3    -10.96      0.00
    4    0    3      8.75      0.00
    5    0    3     10.06      0.00
    6    0    3      5.52      0.00
    7    0    3     -0.01      0.00
    8    0    3     -2.23      0.00
    9    0    3     -0.51      0.00
   10    0    3     -0.64      0.00
   11    0    3     -0.24      0.00
   12    0    3      0.31      0.00
   13    0    3      0.26      0.00
   14    0    3     -0.17      0.00
  -13    1    3     -0.09      0.00
  -12    1    3      0.02      0.00
  -11    1    3      0.43      0.00
  -10    1    3      0.19      0.00
   -9    1    3      0.74      0.00
   -8    1    3      0.21      0.00
   -7    1    3      0.64      0.00
   -6    1    3      1.78      0.00
   -5    1    3      0.46      0.00
   -4    1    3      3.04      0.00
   -3    1    3      5.70      0.00
   -2    1    3      5.36      0.00
   -1    1    3     -5.65      0.00
    0    1    3     -3.39      0.00
    1    1    3     18.97      0.00
    2    1    3     -3.29      0.00
    3    1    3     -2.97      0.00
    4    1    3     -1.78      0.00
    5    1    3      9.35      0.00
    6    1    3      4.11      0.00
    7    1    3     -3.02      0.00
    8    1    3     -3.67      0.00
    9    1    3     -2.81      0.00
   10    1    3     -0.86      0.00
   11    1    3      0.67      0.00
   12    1    3      0.44      0.00
   13    1    3      0.01      0.00
   14    1    3      0.30      0.00
  -13    2    3     -0.39      0.00
  -12    2    3      0.74      0.00
  -11    2    3      0.62      0.00
  -10    2    3     -0.01      0.00
   -9    2    3     -0.17      0.00
   -8    2    3      0.87      0.00
   -7    2    3      2.41      0.00
   -6    2    3      3.43      0.00
   -5    2    3      1.15      0.00
   -4    2    3     -1.46      0.00
   -3    2    3      3.46      0.00
   -2    2    3     -4.09      0.00
   -1    2    3     -5.29      0.00
    0    2    3      2.76      0.00
    1    2    3    -12.09      0.00
    2    2    3     -2.24      0.00
    3    2    3     -3.77      0.00
    4    2    3      5.13      0.00
    5    2    3     -0.07      0.00
    6    2    3     -3.62      0.00
    7    2    3     -3.83      0.00
    8    2    3     -2.93      0.00
    9    2    3     -1.42      0.00
   10    2    3     -0.68      0.00
   11    2    3     -0.36      0.00
   12    2    3      0.76      0.00
   13    2    3      0.44      0.00
   14    2    3     -0.14      0.00
  -13    3    3     -0.31      0.00
  -12    3    3     -0.52      0.00
  -11    3    3      0.03      0.00
  -10    3    3      0.14      0.00
   -9    3    3      0.57      0.00
   -8    3    3      0.54      0.00
   -7    3    3      1.58      0.00
   -6    3    3      2.11      0.00
   -5    3    3      0.09      0.00
   -4    3    3     -0.22      0.00
   -3    3    3     -4.64      0.00
   -2    3    3     -5.50      0.00
   -1    3    3     -7.45      0.00
    0    3    3     -7.37      0.00
    1    3    3      2.92      0.00
    2    3    3    -12.93      0.00
    3    3    3     -6.49      0.00
    4    3    3     -0.95      0.00
    5    3    3      1.04      0.00
    6    3    3     -5.60      0.00
    7    3    3     -7.86      0.00
    8    3    3     -2.87      0.00
    9    3    3      0.49      0.00
   10    3    3      0.15      0.00
   11    3    3      0.35      0.00
   12    3    3     -0.26      0.00
   13    3    3     -0.48      0.00
   14    3    3     -0.52      0.00
  -12    4    3      0.28      0.00
  -11    4    3     -0.39      0.00
  -10    4    3      0.05      0.00
   -9    4    3      1.23      0.00
   -8    4    3      1.24      0.00
   -7    4    3     -0.20      0.00
   -6    4    3     -0.54      0.00
   -5    4    3     -2.99      0.00
   -4    4    3     -5.36      0.00
   -3    4    3     -1.82      0.00
   -2    4    3     -7.41      0.00
   -1    4    3    -11.36      0.00
    0    4    3     -3.63      0.00
    1    4    3     -7.34      0.00
    2    4    3     -2.67      0.00
    3    4    3     -6.81      0.00
    4    4    3     -3.42      0.00
    5    4    3     -4.18      0.00
    6    4    3     -3.95      0.00
    7    4    3     -1.96      0.00
    8    4    3     -1.64      0.00
    9    4    3     -1.17      0.00
   10    4    3      0.10      0.00
   11    4    3     -0.14      0.00
   12    4    3     -0.57      0.00
   13    4    3     -0.73      0.00
   14    4    3     -0.13      0.00
  -12    5    3      0.25      0.00
  -11    5    3      0.66      0.00
  -10    5    3     -0.10      0.00
   -9    5    3      0.35      0.00
   -8    5    3      0.14      0.00
   -7    5    3      0.22      0.00
   -6    5    3     -2.49      0.00
   -5    5    3     -5.95      0.00
   -4    5    3     -5.31      0.00
   -3    5    3     -4.57      0.00
   -2    5    3     -2.93      0.00
   -1    5    3     -3.59      0.00
    0    5    3     -8.20      0.00
    1    5    3     -6.03      0.00
    2    5    3    -11.84      0.00
    3    5    3     -2.67      0.00
    4    5    3      0.05      0.00
    5    5    3     -2.52      0.00
    6    5    3     -5.09      0.00
    7    5    3     -3.43      0.00
    8    5    3      0.92      0.00
    9    5    3      0.79      0.00
   10    5    3     -1.44      0.00
   11    5    3     -1.48      0.00
   12    5    3     -0.39      0.00
   13    5    3     -0.12      0.00
   14    5    3     -0.88      0.00
  -12    6    3      0.21      0.00
  -11    6    3     -0.25      0.00
  -10    6    3      0.10      0.00
   -9    6    3     -0.05      0.00
   -8    6    3     -0.60      0.00
   -7    6    3     -2.69      0.00
   -6    6    3     -2.55      0.00
   -5    6    3     -3.65      0.00
   -4    6    3     -4.40      0.00
   -3    6    3     -0.99      0.00
   -2    6    3     -3.90      0.00
   -1    6    3     -5.95      0.00
    0    6    3     -1.94      0.00
    1    6    3     -9.48      0.00
    2    6    3     -5.53      0.00
    3    6    3     -5.70      0.00
    4    6    3     -1.02      0.00
    5    6    3      0.02      0.00
    6    6    3     -2.58      0.00
    7    6    3     -1.72      0.00
    8    6    3     -0.53      0.00
    9    6    3      0.14      0.00
   10    6    3     -0.70      0.00
   11    6    3     -0.92      0.00
   12    6    3     -0.56      0.00
   13    6    3     -0.53      0.00
   14    6    3      0.57      0.00
  -12    7    3     -0.29      0.00
  -11    7    3     -0.39      0.00
  -10    7    3     -0.91      0.00
   -9    7    3     -0.36      0.00
   -8    7    3     -1.72      0.00
   -7    7    3     -1.80      0.00
   -6    7    3     -2.22      0.00
   -5    7    3     -2.35      0.00
   -4    7    3      0.42      0.00
   -3    7    3     -0.88      0.00
   -2    7    3     -2.24      0.00
   -1    7    3     -5.17      0.00
    0    7    3     -9.37      0.00
    1    7    3     -1.64      0.00
    2    7    3     -4.95      0.00
    3    7    3      0.16      0.00
    4    7    3     -0.74      0.00
    5    7    3     -3.89      0.00
    6    7    3     -1.66      0.00
    7    7    3     -0.18      0.00
    8    7    3      0.56      0.00
    9    7    3     -1.18      0.00
   10    7    3     -1.40      0.00
   11    7    3     -0.25      0.00
   12    7    3      0.09      0.00
   13    7    3      0.72      0.00
   14    7    3     -0.14      0.00
  -11    8    3     -0.54      0.00
  -10    8    3     -0.99      0.00
   -9    8    3     -1.01      0.00
   -8    8    3     -0.61      0.00
   -7    8    3     -1.08      0.00
   -6    8    3     -0.77      0.00
   -5    8    3      0.43      0.00
   -4    8    3     -0.39      0.00
   -3    8    3      1.12      0.00
   -2    8    3     -3.04      0.00
   -1    8    3     -6.80      0.00
    0    8    3     -3.62      0.00
    1    8    3     -6.22      0.00
    2    8    3      1.48      0.00
    3    8    3      0.40      0.00
    4    8    3      0.56      0.00
    5    8    3     -0.68      0.00
    6    8    3     -4.01      0.00
    7    8    3     -0.95      0.00
    8    8    3      0.09      0.00
    9    8    3     -0.59      0.00
   10    8    3     -0.90      0.00
   11    8    3     -0.71      0.00
   12    8    3      0.62      0.00
   13    8    3     -0.29      0.00
  -11    9    3     -0.45      0.00
  -10    9    3     -0.74      0.00
   -9    9    3     -0.35      0.00
   -8    9    3     -0.37      0.00
   -7    9    3     -0.71      0.00
   -6    9    3      0.75      0.00
   -5    9    3      0.09      0.00
   -4    9    3      0.44      0.00
   -3    9    3     -1.46      0.00
   -2    9    3     -2.93      0.00
   -1    9    3     -4.22      0.00
    0    9    3     -4.33      0.00
    1    9    3      1.40      0.00
    2    9    3     -0.85      0.00
    3    9    3      1.56      0.00
    4    9    3     -1.04      0.00
    5    9    3     -3.51      0.00
    6    9    3     -1.34      0.00
    7    9    3     -1.85      0.00
    8    9    3     -0.94      0.00
    9    9    3      0.10      0.00
   10    9    3      0.11      0.00
   11    9    3      0.17      0.00
   12    9    3     -1.02      0.00
   13    9    3      0.08      0.00
  -11   10    3     -0.46      0.00
  -10   10    3     -0.36      0.00
   -9   10    3      0.59      0.00
   -8   10    3      0.14      0.00
   -7   10    3     -0.04      0.00
   -6   10    3     -0.82      0.00
   -5   10    3     -0.09      0.00
   -4   10    3     -0.59      0.00
   -3   10    3     -1.36      0.00
   -2   10    3     -3.33      0.00
   -1   10    3     -2.77      0.00
    0   10    3     -0.35      0.00
    1   10    3     -0.32      0.00
    2   10    3      2.29      0.00
    3   10    3     -0.46      0.00
    4   10    3     -1.68      0.00
    5   10    3     -2.82      0.00
    6   10    3     -3.12      0.00
    7   10    3     -0.45      0.00
    8   10    3      0.26      0.00
    9   10    3      0.07      0.00
   10   10    3     -0.33      0.00
   11   10    3     -1.13      0.00
   12   10    3      0.06      0.00
   13   10    3     -0.32      0.00
  -10   11    3      0.06      0.00
   -9   11    3      0.59      0.00
   -8   11    3      0.17      0.00
   -7   11    3     -0.81      0.00
   -6   11    3     -0.29      0.00
   -5   11    3     -1.10      0.00
   -4   11    3     -1.45      0.00
   -3   11    3     -0.88      0.00
   -2   11    3     -0.65      0.00
   -1   11    3     -1.50      0.00
    0   11    3     -0.50      0.00
    1   11    3      1.27      0.00
    2   11    3     -0.29      0.00
    3   11    3     -0.54      0.00
    4   11    3     -2.56      0.00
    5   11    3     -2.76      0.00
    6   11    3     -1.30      0.00
    7   11    3      0.40      0.00
    8   11    3      1.38      0.00
    9   11    3      0.45      0.00
   10   11    3     -0.79      0.00
   11   11    3     -0.64      0.00
   12   11    3     -0.24      0.00
   13   11    3     -0.03      0.00
  -10   12    3     -0.09      0.00
   -9   12    3     -0.41      0.00
   -8   12    3      0.10      0.00
   -7   12    3     -0.57      0.00
   -6   12    3     -1.20      0.00
   -5   12    3     -0.94      0.00
   -4   12    3     -0.90      0.00
   -3   12    3     -0.98      0.00
   -2   12    3     -0.93      0.00
   -1   12    3     -0.08      0.00
    0   12    3      0.31      0.00
    1   12    3     -0.14      0.00
    2   12    3      0.39      0.00
    3   12    3     -1.24      0.00
    4   12    3     -2.15      0.00
    5   12    3     -2.03      0.00
    6   12    3      0.24      0.00
    7   12    3      1.16      0.00
    8   12    3      0.69      0.00
    9   12    3      0.11      0.00
   10   12    3     -0.37      0.00
   11   12    3     -0.29      0.00
   12   12    3     -0.49      0.00
   -9   13    3      0.68      0.00
   -8   13    3     -1.07      0.00
   -7   13    3     -0.76      0.00
   -6   13    3     -0.17      0.00
   -5   13    3     -0.49      0.00
   -4   13    3     -0.34      0.00
   -3   13    3     -0.01      0.00
   -2   13    3     -0.45      0.00
   -1   13    3     -0.99      0.00
    0   13    3     -0.84      0.00
    1   13    3      0.03      0.00
    2   13    3     -0.62      0.00
    3   13    3     -0.73      0.00
    4   13    3     -1.27      0.00
    5   13    3     -0.32      0.00
    6   13    3      0.99      0.00
    7   13    3      1.47      0.00
    8   13    3      0.35      0.00
    9   13    3     -0.54      0.00
   10   13    3     -0.93      0.00
   11   13    3     -0.85      0.00
   12   13    3      0.33      0.00
   -8   14    3      0.46      0.00
   -7   14    3     -0.36      0.00
   -6   14    3     -0.57      0.00
   -5   14    3     -0.27      0.00
   -4   14    3      0.21      0.00
   -3   14    3      0.40      0.00
   -2   14    3     -0.20      0.00
   -1   14    3     -0.63      0.00
    0   14    3     -0.94      0.00
    1   14    3     -1.20      0.00
    2   14    3      0.45      0.00
    3   14    3      0.30      0.00
    4   14    3     -0.74      0.00
    5   14    3      0.25      0.00
    6   14    3      1.32      0.00
    7   14    3      0.58      0.00
    8   14    3     -0.25      0.00
    9   14    3     -0.96      0.00
   10   14    3     -0.64      0.00
   11   14    3     -0.29      0.00
   -8   15    3     -0.01      0.00
   -7   15    3      0.34      0.00
   -6   15    3     -0.40      0.00
   -5   15    3     -0.20      0.00
   -4   15    3      0.48      0.00
   -3   15    3     -0.08      0.00
   -2   15    3     -0.22      0.00
   -1   15    3     -0.54      0.00
    0   15    3     -0.87      0.00
    1   15    3     -0.14      0.00
    2   15    3      0.19      0.00
    3   15    3      0.01      0.00
    4   15    3      0.47      0.00
    5   15    3      0.18      0.00
    6   15    3      0.38      0.00
    7   15    3     -0.10      0.00
    8   15    3     -0.75      0.00
    9   15    3      0.17      0.00
   10   15    3     -0.13      0.00
   11   15    3     -0.04      0.00
   -7   16    3     -0.05      0.00
   -6   16    3      0.27      0.00
   -5   16    3      0.19      0.00
   -4   16    3      0.05      0.00
   -3   16    3      0.32      0.00
   -2   16    3     -0.50      0.00
   -1   16    3     -0.38      0.00
    0   16    3     -0.01      0.00
    1   16    3      0.70      0.00
    2   16    3      0.90      0.00
    3   16    3     -0.08      0.00
    4   16    3     -1.30      0.00
    5   16    3      0.52      0.00
    6   16    3      0.42      0.00
    7   16    3     -0.41      0.00
    8   16    3     -0.08      0.00
    9   16    3     -0.55      0.00
   10   16    3      0.10      0.00
   -6   17    3     -0.46      0.00
   -5   17    3      0.24      0.00
   -4   17    3      0.88      0.00
   -3   17    3     -0.37      0.00
   -2   17    3      0.12      0.00
   -1   17    3      0.27      0.00
    0   17    3      0.32      0.00
    1   17    3      0.36      0.00
    2   17    3      0.04      0.00
    3   17    3     -0.63      0.00
    4   17    3      0.18      0.00
    5   17    3     -0.09      0.00
    6   17    3      0.51      0.00
    7   17    3      0.52      0.00
    8   17    3      0.16      0.00
    9   17    3      0.61      0.00
   -5   18    3      0.11      0.00
   -4   18    3     -0.20      0.00
   -3   18    3      0.41      0.00
   -2   18    3      0.06      0.00
   -1   18    3      0.55      0.00
    0   18    3      0.45      0.00
    1   18    3      0.02      0.00
    2   18    3     -0.30      0.00
    3   18    3     -0.52      0.00
    4   18    3     -0.68      0.00
    5   18    3      0.28      0.00
    6   18    3      0.19      0.00
    7   18    3      0.29      0.00
    8   18    3      0.49      0.00
   -4   19    3      0.53      0.00
   -3   19    3     -0.25      0.00
   -2   19    3      0.49      0.00
   -1   19    3      0.10      0.00
    0   19    3     -0.22      0.00
    1   19    3     -0.03      0.00
    2   19    3     -0.26      0.00
    3   19    3     -0.20      0.00
    4   19    3      0.12      0.00
    5   19    3      0.18      0.00
    6   19    3      0.19      0.00
    7   19    3      0.05      0.00
   -2   20    3      0.13      0.00
   -1   20    3      0.23      0.00
    0   20    3     -0.28      0.00
    1   20    3     -0.43      0.00
    2   20    3     -0.28      0.00
    3   20    3     -0.23      0.00
    4   20    3      0.39      0.00
    5   20    3      0.39      0.00
    6   20    3      0.38      0.00
   -4  -19    4     -0.03      0.00
   -3  -19    4      0.45      0.00
   -2  -19    4     -0.65      0.00
   -1  -19    4     -0.39      0.00
    0  -19    4     -0.11      0.00
    1  -19    4     -0.06      0.00
    2  -19    4     -0.49      0.00
    3  -19    4      0.18      0.00
   -6  -18    4      0.37      0.00
   -5  -18    4      0.01      0.00
   -4  -18    4      0.61      0.00
   -3  -18    4     -0.30      0.00
   -2  -18    4     -0.48      0.00
   -1  -18    4     -0.33      0.00
    0  -18    4      0.34      0.00
    1  -18    4     -0.13      0.00
    2  -18    4     -0.25      0.00
    3  -18    4      0.31      0.00
    4  -18    4     -0.25      0.00
    5  -18    4     -0.07      0.00
   -7  -17    4      0.28      0.00
   -6  -17    4      0.36      0.00
   -5  -17    4      0.55      0.00
   -4  -17    4     -0.41      0.00
   -3  -17    4     -0.23      0.00
   -2  -17    4     -0.68      0.00
   -1  -17    4      0.08      0.00
    0  -17    4      0.83      0.00
    1  -17    4     -0.06      0.00
    2  -17    4      0.17      0.00
    3  -17    4      0.52      0.00
    4  -17    4      0.49      0.00
    5  -17    4     -0.40      0.00
    6  -17    4     -0.04      0.00
   -8  -16    4      0.31      0.00
   -7  -16    4      0.07      0.00
   -6  -16    4      0.45      0.00
   -5  -16    4     -0.14      0.00
   -4  -16    4     -0.04      0.00
   -3  -16    4     -0.06      0.00
   -2  -16    4     -0.20      0.00
   -1  -16    4      0.07      0.00
    0  -16    4      0.09      0.00
    1  -16    4      0.26      0.00
    2  -16    4      0.33      0.00
    3  -16    4      0.81      0.00
    4  -16    4     -0.10      0.00
    5  -16    4      0.09      0.00
    6  -16    4     -0.17      0.00
    7  -16    4     -0.52      0.00
   -9  -15    4      0.03      0.00
   -8  -15    4     -0.21      0.00
   -7  -15    4     -0.20      0.00
   -6  -15    4      0.36      0.00
   -5  -15    4      0.58      0.00
   -4  -15    4      0.09      0.00
   -3  -15    4     -0.65      0.00
   -2  -15    4     -0.21      0.00
   -1  -15    4      1.03      0.00
    0  -15    4      1.22      0.00
    1  -15    4     -0.25      0.00
    2  -15    4     -0.10      0.00
    3  -15    4      0.21      0.00
    4  -15    4     -0.09      0.00
    5  -15    4      0.06      0.00
    6  -15    4      0.21      0.00
    7  -15    4     -0.11      0.00
    8  -15    4     -0.40      0.00
  -10  -14    4      0.00      0.00
   -9  -14    4      0.27      0.00
   -8  -14    4     -0.28      0.00
   -7  -14    4      0.09      0.00
   -6  -14    4      0.18      0.00
   -5  -14    4     -0.20      0.00
   -4  -14    4     -0.44      0.00
   -3  -14    4      0.40      0.00
   -2  -14    4      0.64      0.00
   -1  -14    4      1.07      0.00
    0  -14    4      0.49      0.00
    1  -14    4     -0.24      0.00
    2  -14    4      0.19      0.00
    3  -14    4      0.36      0.00
    4  -14    4      0.69      0.00
    5  -14    4     -0.19      0.00
    6  -14    4     -0.37      0.00
    7  -14    4     -0.12      0.00
    8  -14    4      0.44      0.00
    9  -14    4      0.08      0.00
  -10  -13    4     -0.03      0.00
   -9  -13    4     -0.39      0.00
   -8  -13    4     -0.48      0.00
   -7  -13    4     -0.25      0.00
   -6  -13    4      0.70      0.00
   -5  -13    4      0.16      0.00
   -4  -13    4     -0.15      0.00
   -3  -13    4      0.00      0.00
   -2  -13    4      1.25      0.00
   -1  -13    4      1.73      0.00
    0  -13    4      0.31      0.00
    1  -13    4     -1.31      0.00
    2  -13    4     -0.68      0.00
    3  -13    4      1.88      0.00
    4  -13    4      1.09      0.00
    5  -13    4      0.19      0.00
    6  -13    4     -0.79      0.00
    7  -13    4     -0.22      0.00
    8  -13    4      0.30      0.00
    9  -13    4      0.48      0.00
   10  -13    4     -0.35      0.00
  -11  -12    4      0.65      0.00
  -10  -12    4     -0.43      0.00
   -9  -12    4     -0.64      0.00
   -8  -12    4     -0.86      0.00
   -7  -12    4      0.43      0.00
   -6  -12    4      0.92      0.00
   -5  -12    4     -0.02      0.00
   -4  -12    4     -0.50      0.00
   -3  -12    4      0.70      0.00
   -2  -12    4      1.53      0.00
   -1  -12    4      1.38      0.00
    0  -12    4     -0.36      0.00
    1  -12    4     -1.55      0.00
    2  -12    4      0.42      0.00
    3  -12    4      1.83      0.00
    4  -12    4      1.83      0.00
    5  -12    4     -0.12      0.00
    6  -12    4     -0.49      0.00
    7  -12    4      0.03      0.00
    8  -12    4      0.36      0.00
    9  -12    4     -0.81      0.00
   10  -12    4     -0.45      0.00
  -11  -11    4     -1.32      0.00
  -10  -11    4     -0.42      0.00
   -9  -11    4     -0.64      0.00
   -8  -11    4      0.13      0.00
   -7  -11    4      1.13      0.00
   -6  -11    4      1.05      0.00
   -5  -11    4      0.06      0.00
   -4  -11    4     -0.06      0.00
   -3  -11    4     -0.02      0.00
   -2  -11    4      1.02      0.00
   -1  -11    4      1.66      0.00
    0  -11    4     -0.48      0.00
    1  -11    4     -1.71      0.00
    2  -11    4      0.98      0.00
    3  -11    4      3.63      0.00
    4  -11    4      2.07      0.00
    5  -11    4     -0.77      0.00
    6  -11    4     -0.96      0.00
    7  -11    4      0.61      0.00
    8  -11    4     -0.14      0.00
    9  -11    4     -0.51      0.00
   10  -11    4      0.15      0.00
   11  -11    4      0.44      0.00
  -11  -10    4     -0.20      0.00
  -10  -10    4     -1.17      0.00
   -9  -10    4     -0.27      0.00
   -8  -10    4      0.39      0.00
   -7  -10    4      1.33      0.00
   -6  -10    4      0.87      0.00
   -5  -10    4     -0.06      0.00
   -4  -10    4     -1.21      0.00
   -3  -10    4     -0.28      0.00
   -2  -10    4      1.70      0.00
   -1  -10    4      2.23      0.00
    0  -10    4      0.70      0.00
    1  -10    4     -0.62      0.00
    2  -10    4      1.78      0.00
    3  -10    4      4.10      0.00
    4  -10    4      1.10      0.00
    5  -10    4     -1.89      0.00
    6  -10    4     -0.99      0.00
    7  -10    4      0.55      0.00
    8  -10    4      1.24      0.00
    9  -10    4      0.10      0.00
   10  -10    4     -0.09      0.00
   11  -10    4      0.61      0.00
  -12   -9    4      0.29      0.00
  -11   -9    4     -0.47      0.00
  -10   -9    4     -0.43      0.00
   -9   -9    4     -0.64      0.00
   -8   -9    4      0.76      0.00
   -7   -9    4      1.18      0.00
   -6   -9    4      0.88      0.00
   -5   -9    4     -1.31      0.00
   -4   -9    4     -1.48      0.00
   -3   -9    4     -0.79      0.00
   -2   -9    4      2.84      0.00
   -1   -9    4      4.82      0.00
    0   -9    4      0.64      0.00
    1   -9    4     -0.87      0.00
    2   -9    4      2.48      0.00
    3   -9    4      3.87      0.00
    4   -9    4      0.36      0.00
    5   -9    4     -2.51      0.00
    6   -9    4     -1.55      0.00
    7   -9    4      1.58      0.00
    8   -9    4      1.29      0.00
    9   -9    4      0.75      0.00
   10   -9    4      0.61      0.00
   11   -9    4      0.17      0.00
   12   -9    4      0.02      0.00
  -12   -8    4     -0.12      0.00
  -11   -8    4      0.32      0.00
  -10   -8    4      0.01      0.00
   -9   -8    4      0.19      0.00
   -8   -8    4      0.37      0.00
   -7   -8    4      1.46      0.00
   -6   -8    4      0.02      0.00
   -5   -8    4     -1.59      0.00
   -4   -8    4     -3.01      0.00
   -3   -8    4      1.87      0.00
   -2   -8    4      5.91      0.00
   -1   -8    4      4.95      0.00
    0   -8    4      0.54      0.00
    1   -8    4     -3.61      0.00
    2   -8    4      1.24      0.00
    3   -8    4      4.33      0.00
    4   -8    4      0.34      0.00
    5   -8    4     -3.41      0.00
    6   -8    4      0.25      0.00
    7   -8    4      1.97      0.00
    8   -8    4      1.73      0.00
    9   -8    4      0.03      0.00
   10   -8    4      0.01      0.00
   11   -8    4      1.04      0.00
   12   -8    4      0.00      0.00
  -12   -7    4      0.73      0.00
  -11   -7    4     -0.28      0.00
  -10   -7    4     -0.81      0.00
   -9   -7    4      0.48      0.00
   -8   -7    4      1.93      0.00
   -7   -7    4      0.22      0.00
   -6   -7    4     -1.30      0.00
   -5   -7    4     -1.62      0.00
   -4   -7    4      0.58      0.00
   -3   -7    4      2.02      0.00
   -2   -7    4      7.74      0.00
   -1   -7    4      6.57      0.00
    0   -7    4     -4.31      0.00
    1   -7    4     -5.61      0.00
    2   -7    4      0.90      0.00
    3   -7    4      4.79      0.00
    4   -7    4      0.65      0.00
    5   -7    4     -0.24      0.00
    6   -7    4      0.00      0.00
    7   -7    4      2.70      0.00
    8   -7    4      1.71      0.00
    9   -7    4     -0.64      0.00
   10   -7    4     -0.94      0.00
   11   -7    4     -0.42      0.00
   12   -7    4      0.70      0.00
  -12   -6    4      0.67      0.00
  -11   -6    4     -0.15      0.00
  -10   -6    4     -0.88      0.00
   -9   -6    4      0.03      0.00
   -8   -6    4      0.41      0.00
   -7   -6    4      0.18      0.00
   -6   -6    4     -0.38      0.00
   -5   -6    4     -1.65      0.00
   -4   -6    4      0.11      0.00
   -3   -6    4      7.40      0.00
   -2   -6    4      8.08      0.00
   -1   -6    4      2.09      0.00
    0   -6    4     -5.49      0.00
    1   -6    4     -7.36      0.00
    2   -6    4      4.06      0.00
    3   -6    4      8.84      0.00
    4   -6    4      2.22      0.00
    5   -6    4     -3.34      0.00
    6   -6    4      2.22      0.00
    7   -6    4      3.43      0.00
    8   -6    4      0.55      0.00
    9   -6    4     -1.17      0.00
   10   -6    4     -0.81      0.00
   11   -6    4      0.68      0.00
   12   -6    4     -0.18      0.00
   13   -6    4     -0.15      0.00
  -12   -5    4      0.25      0.00
  -11   -5    4     -0.55      0.00
  -10   -5    4     -0.30      0.00
   -9   -5    4      0.22      0.00
   -8   -5    4     -0.43      0.00
   -7   -5    4     -0.14      0.00
   -6   -5    4      0.63      0.00
   -5   -5    4      1.72      0.00
   -4   -5    4      1.46      0.00
   -3   -5    4      3.58      0.00
   -2   -5    4      8.53      0.00
   -1   -5    4      2.61      0.00
    0   -5    4    -10.56      0.00
    1   -5    4     -5.63      0.00
    2   -5    4     10.19      0.00
    3   -5    4     11.95      0.00
    4   -5    4      1.36      0.00
    5   -5    4     -1.64      0.00
    6   -5    4     -0.67      0.00
    7   -5    4      1.72      0.00
    8   -5    4      0.72      0.00
    9   -5    4     -1.72      0.00
   10   -5    4     -0.61      0.00
   11   -5    4      0.80      0.00
   12   -5    4      1.29      0.00
   13   -5    4      0.25      0.00
  -13   -4    4     -0.05      0.00
  -12   -4    4      0.52      0.00
  -11   -4    4     -0.07      0.00
  -10   -4    4      0.17      0.00
   -9   -4    4      0.33      0.00
   -8   -4    4      0.47      0.00
   -7   -4    4      0.81      0.00
   -6   -4    4      1.31      0.00
   -5   -4    4      1.14      0.00
   -4   -4    4      4.34      0.00
   -3   -4    4      4.89      0.00
   -2   -4    4      3.01      0.00
   -1   -4    4     -1.63      0.00
    0   -4    4     -5.15      0.00
    1   -4    4     -1.23      0.00
    2   -4    4     10.21      0.00
    3   -4    4     10.70      0.00
    4   -4    4     -1.05      0.00
    5   -4    4     -5.80      0.00
    6   -4    4      0.82      0.00
    7   -4    4      1.76      0.00
    8   -4    4     -0.54      0.00
    9   -4    4     -1.36      0.00
   10   -4    4     -0.64      0.00
   11   -4    4      0.66      0.00
   12   -4    4      0.10      0.00
   13   -4    4      0.13      0.00
  -13   -3    4      0.40      0.00
  -12   -3    4     -0.16      0.00
  -11   -3    4     -0.29      0.00
  -10   -3    4     -0.43      0.00
   -9   -3    4      0.36      0.00
   -8   -3    4      1.22      0.00
   -7   -3    4      2.21      0.00
   -6   -3    4      2.02      0.00
   -5   -3    4      0.83      0.00
   -4   -3    4     -1.33      0.00
   -3   -3    4      4.08      0.00
   -2   -3    4      7.70      0.00
   -1   -3    4     -1.66      0.00
    0   -3    4    -17.69      0.00
    1   -3    4     -2.47      0.00
    2   -3    4     20.44      0.00
    3   -3    4     11.30      0.00
    4   -3    4     -8.23      0.00
    5   -3    4     -7.14      0.00
    6   -3    4     -1.71      0.00
    7   -3    4      1.97      0.00
    8   -3    4      0.11      0.00
    9   -3    4     -1.00      0.00
   10   -3    4      0.49      0.00
   11   -3    4      0.83      0.00
   12   -3    4      0.00      0.00
   13   -3    4     -0.23      0.00
  -13   -2    4      0.72      0.00
  -12   -2    4      0.46      0.00
  -11   -2    4     -0.57      0.00
  -10   -2    4      0.43      0.00
   -9   -2    4      1.00      0.00
   -8   -2    4      1.25      0.00
   -7   -2    4      2.03      0.00
   -6   -2    4      1.21      0.00
   -5   -2    4     -0.11      0.00
   -4   -2    4      0.01      0.00
   -3   -2    4     -0.23      0.00
   -2   -2    4      4.05      0.00
   -1   -2    4     -3.76      0.00
    0   -2    4     -8.25      0.00
    1   -2    4     -2.07      0.00
    2   -2    4     10.50      0.00
    3   -2    4      4.77      0.00
    4   -2    4     -6.23      0.00
    5   -2    4     -9.34      0.00
    6   -2    4      1.24      0.00
    7   -2    4      2.07      0.00
    8   -2    4      0.43      0.00
    9   -2    4     -0.47      0.00
   10   -2    4      0.36      0.00
   11   -2    4      0.66      0.00
   12   -2    4      0.44      0.00
   13   -2    4      0.15      0.00
   14   -2    4     -0.11      0.00
  -13   -1    4     -0.44      0.00
  -12   -1    4     -0.18      0.00
  -11   -1    4      0.22      0.00
  -10   -1    4      0.46      0.00
   -9   -1    4      1.26      0.00
   -8   -1    4      2.13      0.00
   -7   -1    4      0.84      0.00
   -6   -1    4     -1.10      0.00
   -5   -1    4     -2.60      0.00
   -4   -1    4     -2.02      0.00
   -3   -1    4      5.22      0.00
   -2   -1    4      5.71      0.00
   -1   -1    4     -3.29      0.00
    0   -1    4    -13.05      0.00
    1   -1    4      7.68      0.00
    2   -1    4     16.78      0.00
    3   -1    4      0.59      0.00
    4   -1    4    -18.05      0.00
    5   -1    4     -4.85      0.00
    6   -1    4      2.54      0.00
    7   -1    4      3.96      0.00
    8   -1    4      0.00      0.00
    9   -1    4     -0.76      0.00
   10   -1    4     -0.57      0.00
   11   -1    4     -0.03      0.00
   12   -1    4      0.18      0.00
   13   -1    4      0.17      0.00
   14   -1    4     -0.04      0.00
  -13    0    4      0.40      0.00
  -12    0    4     -0.48      0.00
  -11    0    4     -0.05      0.00
  -10    0    4      0.79      0.00
   -9    0    4      0.87      0.00
   -8    0    4      0.77      0.00
   -7    0    4      0.52      0.00
   -6    0    4     -1.34      0.00
   -5    0    4     -1.87      0.00
   -4    0    4     -1.22      0.00
   -3    0    4      2.66      0.00
   -2    0    4      9.21      0.00
   -1    0    4     -4.38      0.00
    0    0    4    -11.41      0.00
    1    0    4      4.86      0.00
    2    0    4     21.31      0.00
    3    0    4     -4.44      0.00
    4    0    4    -14.17      0.00
    5    0    4     -7.85      0.00
    6    0    4      5.73      0.00
    7    0    4      3.41      0.00
    8    0    4      0.58      0.00
    9    0    4     -2.05      0.00
   10    0    4     -1.84      0.00
   11    0    4     -0.46      0.00
   12    0    4      0.47      0.00
   13    0    4      0.29      0.00
   14    0    4      0.09      0.00
  -13    1    4     -1.14      0.00
  -12    1    4     -0.18      0.00
  -11    1    4      0.31      0.00
  -10    1    4      0.97      0.00
   -9    1    4      0.87      0.00
   -8    1    4     -0.07      0.00
   -7    1    4     -1.35      0.00
   -6    1    4     -0.23      0.00
   -5    1    4     -0.07      0.00
   -4    1    4      0.41      0.00
   -3    1    4      7.15      0.00
   -2    1    4      3.68      0.00
   -1    1    4     -9.28      0.00
    0    1    4     -7.32      0.00
    1    1    4     10.68      0.00
    2    1    4      0.68      0.00
    3    1    4     -9.93      0.00
    4    1    4    -14.65      0.00
    5    1    4     -0.32      0.00
    6    1    4      1.72      0.00
    7    1    4      1.46      0.00
    8    1    4     -2.42      0.00
    9    1    4     -2.26      0.00
   10    1    4     -1.28      0.00
   11    1    4     -0.89      0.00
   12    1    4     -0.10      0.00
   13    1    4      0.57      0.00
   14    1    4      0.11      0.00
  -12    2    4     -0.51      0.00
  -11    2    4     -0.15      0.00
  -10    2    4      0.23      0.00
   -9    2    4      0.07      0.00
   -8    2    4      0.14      0.00
   -7    2    4      0.09      0.00
   -6    2    4     -1.40      0.00
   -5    2    4     -0.45      0.00
   -4    2    4      3.30      0.00
   -3    2    4      4.78      0.00
   -2    2    4      0.31      0.00
   -1    2    4    -12.61      0.00
    0    2    4    -13.28      0.00
    1    2    4      1.31      0.00
    2    2    4      4.93      0.00
    3    2    4    -17.81      0.00
    4    2    4    -15.15      0.00
    5    2    4     -2.41      0.00
    6    2    4      5.32      0.00
    7    2    4     -2.77      0.00
    8    2    4     -5.24      0.00
    9    2    4     -3.99      0.00
   10    2    4     -1.95      0.00
   11    2    4      0.58      0.00
   12    2    4      1.21      0.00
   13    2    4      0.09      0.00
   14    2    4      0.17      0.00
  -12    3    4      0.16      0.00
  -11    3    4      0.09      0.00
  -10    3    4     -0.65      0.00
   -9    3    4     -0.28      0.00
   -8    3    4      0.90      0.00
   -7    3    4      0.54      0.00
   -6    3    4      1.14      0.00
   -5    3    4      0.67      0.00
   -4    3    4     -1.29      0.00
   -3    3    4      1.83      0.00
   -2    3    4     -3.23      0.00
   -1    3    4    -15.77      0.00
    0    3    4    -14.36      0.00
    1    3    4     -2.36      0.00
    2    3    4     -5.38      0.00
    3    3    4    -11.80      0.00
    4    3    4    -12.29      0.00
    5    3    4     -2.99      0.00
    6    3    4     -2.56      0.00
    7    3    4     -0.87      0.00
    8    3    4     -2.68      0.00
    9    3    4     -3.62      0.00
   10    3    4     -1.83      0.00
   11    3    4     -0.24      0.00
   12    3    4      0.88      0.00
   13    3    4      0.85      0.00
   14    3    4      0.22      0.00
  -12    4    4     -0.35      0.00
  -11    4    4     -0.18      0.00
  -10    4    4      0.27      0.00
   -9    4    4     -0.34      0.00
   -8    4    4     -0.30      0.00
   -7    4    4      1.00      0.00
   -6    4    4      0.81      0.00
   -5    4    4     -0.78      0.00
   -4    4    4     -0.84      0.00
   -3    4    4     -4.46      0.00
   -2    4    4     -9.65      0.00
   -1    4    4    -14.44      0.00
    0    4    4     -6.73      0.00
    1    4    4      1.77      0.00
    2    4    4     -6.67      0.00
    3    4    4    -16.96      0.00
    4    4    4     -9.28      0.00
    5    4    4     -1.07      0.00
    6    4    4      1.21      0.00
    7    4    4     -4.72      0.00
    8    4    4     -4.63      0.00
    9    4    4     -1.01      0.00
   10    4    4     -0.24      0.00
   11    4    4      0.38      0.00
   12    4    4      0.06      0.00
   13    4    4     -0.01      0.00
   14    4    4     -0.17      0.00
  -12    5    4      0.14      0.00
  -11    5    4      0.04      0.00
  -10    5    4     -0.60      0.00
   -9    5    4      0.23      0.00
   -8    5    4      1.36      0.00
   -7    5    4     -0.16      0.00
   -6    5    4     -1.86      0.00
   -5    5    4     -2.17      0.00
   -4    5    4     -4.72      0.00
   -3    5    4     -3.23      0.00
   -2    5    4     -9.26      0.00
   -1    5    4    -13.31      0.00
    0    5    4     -6.12      0.00
    1    5    4      2.41      0.00
    2    5    4     -2.80      0.00
    3    5    4    -11.31      0.00
    4    5    4    -11.14      0.00
    5    5    4     -1.87      0.00
    6    5    4      0.08      0.00
    7    5    4     -1.56      0.00
    8    5    4     -2.87      0.00
    9    5    4     -2.20      0.00
   10    5    4      0.26      0.00
   11    5    4      0.44      0.00
   12    5    4      0.63      0.00
   13    5    4     -0.56      0.00
   14    5    4     -0.83      0.00
  -12    6    4     -0.10      0.00
  -11    6    4     -0.26      0.00
  -10    6    4     -0.03      0.00
   -9    6    4      0.34      0.00
   -8    6    4      0.41      0.00
   -7    6    4     -0.35      0.00
   -6    6    4     -1.77      0.00
   -5    6    4     -4.72      0.00
   -4    6    4     -2.96      0.00
   -3    6    4     -4.24      0.00
   -2    6    4     -5.02      0.00
   -1    6    4     -6.80      0.00
    0    6    4     -3.04      0.00
    1    6    4     -1.39      0.00
    2    6    4     -5.15      0.00
    3    6    4    -10.24      0.00
    4    6    4     -4.92      0.00
    5    6    4     -1.50      0.00
    6    6    4     -1.59      0.00
    7    6    4     -2.74      0.00
    8    6    4     -1.59      0.00
    9    6    4      0.15      0.00
   10    6    4     -0.93      0.00
   11    6    4     -0.07      0.00
   12    6    4     -0.41      0.00
   13    6    4     -0.29      0.00
   14    6    4     -0.11      0.00
  -11    7    4     -0.17      0.00
  -10    7    4     -0.19      0.00
   -9    7    4     -0.31      0.00
   -8    7    4     -0.03      0.00
   -7    7    4     -0.89      0.00
   -6    7    4     -2.82      0.00
   -5    7    4     -1.99      0.00
   -4    7    4     -2.36      0.00
   -3    7    4     -0.40      0.00
   -2    7    4     -3.20      0.00
   -1    7    4     -3.69      0.00
    0    7    4     -1.27      0.00
    1    7    4     -0.73      0.00
    2    7    4     -8.04      0.00
    3    7    4     -9.10      0.00
    4    7    4     -4.95      0.00
    5    7    4      2.80      0.00
    6    7    4      0.93      0.00
    7    7    4     -2.91      0.00
    8    7    4     -1.30      0.00
    9    7    4     -0.47      0.00
   10    7    4      0.23      0.00
   11    7    4     -0.36      0.00
   12    7    4     -0.26      0.00
   13    7    4     -0.40      0.00
   14    7    4     -0.10      0.00
  -11    8    4     -0.49      0.00
  -10    8    4     -0.66      0.00
   -9    8    4     -0.41      0.00
   -8    8    4     -0.42      0.00
   -7    8    4     -1.32      0.00
   -6    8    4     -1.86      0.00
   -5    8    4     -1.27      0.00
   -4    8    4      1.27      0.00
   -3    8    4      0.41      0.00
   -2    8    4     -1.45      0.00
   -1    8    4     -3.73      0.00
    0    8    4     -2.19      0.00
    1    8    4     -1.97      0.00
    2    8    4     -4.80      0.00
    3    8    4     -6.90      0.00
    4    8    4     -0.68      0.00
    5    8    4      0.13      0.00
    6    8    4      0.34      0.00
    7    8    4     -0.02      0.00
    8    8    4     -1.67      0.00
    9    8    4     -1.12      0.00
   10    8    4     -0.15      0.00
   11    8    4      0.91      0.00
   12    8    4      0.08      0.00
   13    8    4     -0.54      0.00
  -11    9    4     -0.20      0.00
  -10    9    4     -0.73      0.00
   -9    9    4     -0.69      0.00
   -8    9    4      0.16      0.00
   -7    9    4     -0.55      0.00
   -6    9    4     -0.71      0.00
   -5    9    4     -0.05      0.00
   -4    9    4      1.31      0.00
   -3    9    4      1.07      0.00
   -2    9    4     -2.83      0.00
   -1    9    4     -3.69      0.00
    0    9    4     -1.68      0.00
    1    9    4     -2.62      0.00
    2    9    4     -3.77      0.00
    3    9    4     -2.15      0.00
    4    9    4     -0.17      0.00
    5    9    4      3.19      0.00
    6    9    4     -0.61      0.00
    7    9    4     -2.32      0.00
    8    9    4     -0.89      0.00
    9    9    4     -0.46      0.00
   10    9    4      0.50      0.00
   11    9    4      0.31      0.00
   12    9    4     -0.66      0.00
   13    9    4      0.16      0.00
  -10   10    4     -0.37      0.00
   -9   10    4     -0.11      0.00
   -8   10    4     -0.26      0.00
   -7   10    4      0.09      0.00
   -6   10    4     -0.56      0.00
   -5   10    4      0.83      0.00
   -4   10    4      0.71      0.00
   -3   10    4     -1.30      0.00
   -2   10    4     -2.27      0.00
   -1   10    4     -2.24      0.00
    0   10    4     -2.16      0.00
    1   10    4     -0.19      0.00
    2   10    4     -1.73      0.00
    3   10    4     -1.34      0.00
    4   10    4      1.91      0.00
    5   10    4      0.62      0.00
    6   10    4     -0.36      0.00
    7   10    4     -2.12      0.00
    8   10    4     -1.65      0.00
    9   10    4      0.27      0.00
   10   10    4      1.06      0.00
   11   10    4      0.13      0.00
   12   10    4      0.08      0.00
   13   10    4     -0.38      0.00
  -10   11    4      0.79      0.00
   -9   11    4      0.06      0.00
   -8   11    4      0.37      0.00
   -7   11    4     -0.32      0.00
   -6   11    4     -0.38      0.00
   -5   11    4     -0.46      0.00
   -4   11    4      0.28      0.00
   -3   11    4     -0.99      0.00
   -2   11    4     -3.19      0.00
   -1   11    4     -2.81      0.00
    0   11    4      0.48      0.00
    1   11    4     -0.04      0.00
    2   11    4      0.08      0.00
    3   11    4      0.65      0.00
    4   11    4      1.11      0.00
    5   11    4      0.44      0.00
    6   11    4     -2.01      0.00
    7   11    4     -1.48      0.00
    8   11    4     -0.97      0.00
    9   11    4      0.38      0.00
   10   11    4      1.05      0.00
   11   11    4      0.52      0.00
   12   11    4     -0.84      0.00
   13   11    4     -0.07      0.00
   -9   12    4      1.09      0.00
   -8   12    4      0.86      0.00
   -7   12    4     -0.43      0.00
   -6   12    4     -0.85      0.00
   -5   12    4     -0.15      0.00
   -4   12    4     -0.49      0.00
   -3   12    4     -1.04      0.00
   -2   12    4     -1.26      0.00
   -1   12    4     -0.71      0.00
    0   12    4     -0.29      0.00
    1   12    4      0.69      0.00
    2   12    4     -0.44      0.00
    3   12    4     -0.34      0.00
    4   12    4      0.29      0.00
    5   12    4     -0.65      0.00
    6   12    4     -1.33      0.00
    7   12    4     -0.98      0.00
    8   12    4      0.76      0.00
    9   12    4      1.19      0.00
   10   12    4      0.93      0.00
   11   12    4     -0.57      0.00
   12   12    4     -0.35      0.00
   -9   13    4     -0.31      0.00
   -8   13    4     -0.08      0.00
   -7   13    4      0.66      0.00
   -6   13    4     -0.39      0.00
   -5   13    4     -0.84      0.00
   -4   13    4     -0.41      0.00
   -3   13    4     -0.59      0.00
   -2   13    4     -1.00      0.00
   -1   13    4      0.15      0.00
    0   13    4      1.61      0.00
    1   13    4     -0.03      0.00
    2   13    4     -1.54      0.00
    3   13    4     -0.47      0.00
    4   13    4      0.24      0.00
    5   13    4     -0.70      0.00
    6   13    4     -0.59      0.00
    7   13    4      0.21      0.00
    8   13    4      0.26      0.00
    9   13    4      0.98      0.00
   10   13    4      0.42      0.00
   11   13    4      0.15      0.00
   12   13    4     -0.32      0.00
   -8   14    4      0.13      0.00
   -7   14    4     -0.40      0.00
   -6   14    4      0.11      0.00
   -5   14    4     -0.13      0.00
   -4   14    4      0.17      0.00
   -3   14    4     -0.28      0.00
   -2   14    4     -0.52      0.00
   -1   14    4      0.31      0.00
    0   14    4      0.58      0.00
    1   14    4     -0.30      0.00
    2   14    4     -0.89      0.00
    3   14    4     -0.72      0.00
    4   14    4      0.04      0.00
    5   14    4      0.50      0.00
    6   14    4      0.40      0.00
    7   14    4      0.30      0.00
    8   14    4      0.52      0.00
    9   14    4      0.15      0.00
   10   14    4      0.32      0.00
   11   14    4     -0.30      0.00
   -7   15    4     -0.01      0.00
   -6   15    4     -0.43      0.00
   -5   15    4      0.39      0.00
   -4   15    4      0.51      0.00
   -3   15    4      0.73      0.00
   -2   15    4      0.21      0.00
   -1   15    4     -0.21      0.00
    0   15    4     -0.08      0.00
    1   15    4     -0.49      0.00
    2   15    4     -0.27      0.00
    3   15    4      1.00      0.00
    4   15    4      0.42      0.00
    5   15    4     -0.28      0.00
    6   15    4      0.47      0.00
    7   15    4      0.73      0.00
    8   15    4      0.16      0.00
    9   15    4      0.67      0.00
   10   15    4     -0.32      0.00
   11   15    4     -0.54      0.00
   -7   16    4      0.13      0.00
   -6   16    4      0.03      0.00
   -5   16    4     -0.39      0.00
   -4   16    4      1.08      0.00
   -3   16    4      0.96      0.00
   -2   16    4     -0.04      0.00
   -1   16    4      0.16      0.00
    0   16    4      0.25      0.00
    1   16    4     -0.12      0.00
    2   16    4     -0.01      0.00
    3   16    4      0.18      0.00
    4   16    4      0.47      0.00
    5   16    4      0.29      0.00
    6   16    4      0.11      0.00
    7   16    4      0.30      0.00
    8   16    4      0.97      0.00
    9   16    4      0.13      0.00
   10   16    4      0.28      0.00
   -6   17    4      0.20      0.00
   -5   17    4      0.52      0.00
   -4   17    4      0.63      0.00
   -3   17    4      0.68      0.00
   -2   17    4     -0.01      0.00
   -1   17    4     -0.05      0.00
    0   17    4      0.53      0.00
    1   17    4      0.39      0.00
    2   17    4      0.38      0.00
    3   17    4      0.54      0.00
    4   17    4     -0.19      0.00
    5   17    4     -0.17      0.00
    6   17    4      0.26      0.00
    7   17    4      0.33      0.00
    8   17    4     -0.10      0.00
    9   17    4      0.49      0.00
   -5   18    4      0.10      0.00
   -4   18    4      0.96      0.00
   -3   18    4      0.38      0.00
   -2   18    4     -0.24      0.00
   -1   18    4      0.25      0.00
    0   18    4      0.37      0.00
    1   18    4      0.21      0.00
    2   18    4      0.12      0.00
    3   18    4     -0.11      0.00
    4   18    4     -0.05      0.00
    5   18    4      0.12      0.00
    6   18    4      0.42      0.00
    7   18    4      0.32      0.00
    8   18    4      0.61      0.00
   -3   19    4      0.05      0.00
   -2   19    4     -0.26      0.00
   -1   19    4      0.05      0.00
    0   19    4      0.48      0.00
    1   19    4      0.16      0.00
    2   19    4     -0.01      0.00
    3   19    4     -0.49      0.00
    4   19    4     -0.65      0.00
    5   19    4      0.07      0.00
    6   19    4      0.29      0.00
    7   19    4      0.32      0.00
   -1   20    4      0.34      0.00
    0   20    4      0.01      0.00
    1   20    4      0.16      0.00
    2   20    4     -0.27      0.00
    3   20    4     -0.14      0.00
    4   20    4      0.11      0.00
    5   20    4     -0.07      0.00
    6   20    4     -0.24      0.00
   -3  -19    5      0.36      0.00
   -2  -19    5     -0.24      0.00
   -1  -19    5      0.00      0.00
    0  -19    5      0.01      0.00
    1  -19    5      0.59      0.00
    2  -19    5     -0.05      0.00
   -5  -18    5      0.56      0.00
   -4  -18    5      0.27      0.00
   -3  -18    5     -0.10      0.00
   -2  -18    5     -0.05      0.00
   -1  -18    5     -0.73      0.00
    0  -18    5      0.00      0.00
    1  -18    5      0.55      0.00
    2  -18    5      0.20      0.00
    3  -18    5     -0.44      0.00
    4  -18    5      0.38      0.00
   -7  -17    5      0.58      0.00
   -6  -17    5      0.00      0.00
   -5  -17    5     -0.22      0.00
   -4  -17    5     -0.06      0.00
   -3  -17    5      0.45      0.00
   -2  -17    5      0.18      0.00
   -1  -17    5     -0.23      0.00
    0  -17    5     -0.20      0.00
    1  -17    5     -0.06      0.00
    2  -17    5     -0.11      0.00
    3  -17    5      0.36      0.00
    4  -17    5      0.37      0.00
    5  -17    5      0.07      0.00
    6  -17    5      0.02      0.00
   -8  -16    5      0.01      0.00
   -7  -16    5     -0.42      0.00
   -6  -16    5     -0.25      0.00
   -5  -16    5     -0.41      0.00
   -4  -16    5      0.32      0.00
   -3  -16    5      0.37      0.00
   -2  -16    5     -0.60      0.00
   -1  -16    5     -0.68      0.00
    0  -16    5      0.21      0.00
    1  -16    5      0.78      0.00
    2  -16    5      0.08      0.00
    3  -16    5      0.23      0.00
    4  -16    5      0.37      0.00
    5  -16    5     -0.44      0.00
    6  -16    5     -0.18      0.00
    7  -16    5      0.32      0.00
   -8  -15    5      0.35      0.00
   -7  -15    5      0.33      0.00
   -6  -15    5     -0.46      0.00
   -5  -15    5     -0.10      0.00
   -4  -15    5     -0.08      0.00
   -3  -15    5     -0.22      0.00
   -2  -15    5      0.00      0.00
   -1  -15    5     -0.36      0.00
    0  -15    5     -0.03      0.00
    1  -15    5     -0.34      0.00
    2  -15    5      0.11      0.00
    3  -15    5      0.66      0.00
    4  -15    5      0.27      0.00
    5  -15    5      0.32      0.00
    6  -15    5     -0.34      0.00
    7  -15    5     -0.08      0.00
    8  -15    5      0.02      0.00
   -9  -14    5      0.21      0.00
   -8  -14    5     -0.11      0.00
   -7  -14    5     -0.55      0.00
   -6  -14    5     -0.58      0.00
   -5  -14    5      0.19      0.00
   -4  -14    5      0.73      0.00
   -3  -14    5      0.28      0.00
   -2  -14    5     -0.59      0.00
   -1  -14    5      0.30      0.00
    0  -14    5      0.79      0.00
    1  -14    5      0.60      0.00
    2  -14    5     -0.49      0.00
    3  -14    5     -0.37      0.00
    4  -14    5      1.03      0.00
    5  -14    5      0.12      0.00
    6  -14    5      0.63      0.00
    7  -14    5     -0.23      0.00
    8  -14    5     -0.19      0.00
    9  -14    5      0.40      0.00
  -10  -13    5      0.51      0.00
   -9  -13    5      0.01      0.00
   -8  -13    5      0.19      0.00
   -7  -13    5     -0.65      0.00
   -6  -13    5     -0.37      0.00
   -5  -13    5      0.32      0.00
   -4  -13    5      0.25      0.00
   -3  -13    5     -0.29      0.00
   -2  -13    5      0.18      0.00
   -1  -13    5      0.62      0.00
    0  -13    5      1.18      0.00
    1  -13    5      0.46      0.00
    2  -13    5      0.12      0.00
    3  -13    5      0.48      0.00
    4  -13    5     -0.07      0.00
    5  -13    5      1.07      0.00
    6  -13    5      0.01      0.00
    7  -13    5      0.53      0.00
    8  -13    5      0.70      0.00
    9  -13    5      0.41      0.00
  -10  -12    5     -0.21      0.00
   -9  -12    5      0.10      0.00
   -8  -12    5     -0.67      0.00
   -7  -12    5     -0.11      0.00
   -6  -12    5      0.36      0.00
   -5  -12    5      0.61      0.00
   -4  -12    5      0.40      0.00
   -3  -12    5      0.28      0.00
   -2  -12    5      0.27      0.00
   -1  -12    5      0.88      0.00
    0  -12    5      1.15      0.00
    1  -12    5      0.22      0.00
    2  -12    5     -1.10      0.00
    3  -12    5     -0.02      0.00
    4  -12    5      2.16      0.00
    5  -12    5      0.86      0.00
    6  -12    5     -0.03      0.00
    7  -12    5     -0.29      0.00
    8  -12    5      0.67      0.00
    9  -12    5     -0.30      0.00
   10  -12    5     -0.34      0.00
  -11  -11    5      0.52      0.00
  -10  -11    5      0.12      0.00
   -9  -11    5     -0.71      0.00
   -8  -11    5     -0.18      0.00
   -7  -11    5     -0.43      0.00
   -6  -11    5      0.51      0.00
   -5  -11    5      1.45      0.00
   -4  -11    5      0.99      0.00
   -3  -11    5      0.15      0.00
   -2  -11    5      0.09      0.00
   -1  -11    5      0.86      0.00
    0  -11    5      0.97      0.00
    1  -11    5      0.00      0.00
    2  -11    5     -0.40      0.00
    3  -11    5      0.74      0.00
    4  -11    5      2.19      0.00
    5  -11    5      1.02      0.00
    6  -11    5     -0.70      0.00
    7  -11    5     -0.28      0.00
    8  -11    5     -0.28      0.00
    9  -11    5      0.20      0.00
   10  -11    5     -0.79      0.00
   11  -11    5     -0.50      0.00
  -11  -10    5     -0.02      0.00
  -10  -10    5     -0.08      0.00
   -9  -10    5     -0.36      0.00
   -8  -10    5     -0.91      0.00
   -7  -10    5      0.03      0.00
   -6  -10    5      1.08      0.00
   -5  -10    5      1.49      0.00
   -4  -10    5      1.21      0.00
   -3  -10    5     -0.17      0.00
   -2  -10    5     -0.92      0.00
   -1  -10    5      0.37      0.00
    0  -10    5      1.91      0.00
    1  -10    5      0.25      0.00
    2  -10    5     -0.78      0.00
    3  -10    5      1.93      0.00
    4  -10    5      2.77      0.00
    5  -10    5      1.11      0.00
    6  -10    5     -0.98      0.00
    7  -10    5     -0.91      0.00
    8  -10    5      0.31      0.00
    9  -10    5     -0.58      0.00
   10  -10    5      0.22      0.00
   11  -10    5      0.49      0.00
  -11   -9    5     -0.13      0.00
  -10   -9    5     -0.19      0.00
   -9   -9    5     -0.39      0.00
   -8   -9    5     -0.49      0.00
   -7   -9    5      0.52      0.00
   -6   -9    5      1.66      0.00
   -5   -9    5      1.85      0.00
   -4   -9    5     -0.07      0.00
   -3   -9    5     -1.96      0.00
   -2   -9    5     -1.16      0.00
   -1   -9    5      1.44      0.00
    0   -9    5      2.84      0.00
    1   -9    5      1.48      0.00
    2   -9    5     -0.89      0.00
    3   -9    5      1.13      0.00
    4   -9    5      2.90      0.00
    5   -9    5     -0.08      0.00
    6   -9    5     -1.63      0.00
    7   -9    5     -0.23      0.00
    8   -9    5      0.29      0.00
    9   -9    5      0.84      0.00
   10   -9    5     -0.31      0.00
   11   -9    5      0.41      0.00
   12   -9    5      1.03      0.00
  -12   -8    5      0.21      0.00
  -11   -8    5      0.87      0.00
  -10   -8    5      0.00      0.00
   -9   -8    5     -1.08      0.00
   -8   -8    5      0.28      0.00
   -7   -8    5      1.33      0.00
   -6   -8    5      1.15      0.00
   -5   -8    5      0.27      0.00
   -4   -8    5     -0.26      0.00
   -3   -8    5     -2.27      0.00
   -2   -8    5     -2.05      0.00
   -1   -8    5      3.89      0.00
    0   -8    5      5.96      0.00
    1   -8    5      0.27      0.00
    2   -8    5     -1.47      0.00
    3   -8    5      0.13      0.00
    4   -8    5      1.37      0.00
    5   -8    5     -0.78      0.00
    6   -8    5     -1.44      0.00
    7   -8    5     -0.66      0.00
    8   -8    5      1.33      0.00
    9   -8    5      0.93      0.00
   10   -8    5      0.64      0.00
   11   -8    5     -0.44      0.00
   12   -8    5     -0.80      0.00
  -12   -7    5      0.29      0.00
  -11   -7    5      0.88      0.00
  -10   -7    5      0.59      0.00
   -9   -7    5     -0.44      0.00
   -8   -7    5     -0.32      0.00
   -7   -7    5      0.75      0.00
   -6   -7    5      1.10      0.00
   -5   -7    5      1.23      0.00
   -4   -7    5     -2.80      0.00
   -3   -7    5     -4.01      0.00
   -2   -7    5      1.38      0.00
   -1   -7    5      6.02      0.00
    0   -7    5      5.98      0.00
    1   -7    5     -0.10      0.00
    2   -7    5     -5.48      0.00
    3   -7    5      0.87      0.00
    4   -7    5      2.43      0.00
    5   -7    5     -0.95      0.00
    6   -7    5     -2.89      0.00
    7   -7    5      0.87      0.00
    8   -7    5      1.53      0.00
    9   -7    5      0.81      0.00
   10   -7    5     -0.67      0.00
   11   -7    5     -0.45      0.00
   12   -7    5      0.50      0.00
  -12   -6    5      0.40      0.00
  -11   -6    5      0.39      0.00
  -10   -6    5     -0.53      0.00
   -9   -6    5     -0.20      0.00
   -8   -6    5      0.56      0.00
   -7   -6    5     -0.07      0.00
   -6   -6    5      0.00      0.00
   -5   -6    5     -0.05      0.00
   -4   -6    5     -0.04      0.00
   -3   -6    5     -2.57      0.00
   -2   -6    5      0.81      0.00
   -1   -6    5      9.27      0.00
    0   -6    5      5.70      0.00
    1   -6    5     -6.08      0.00
    2   -6    5     -5.89      0.00
    3   -6    5      0.90      0.00
    4   -6    5      4.34      0.00
    5   -6    5     -0.43      0.00
    6   -6    5     -0.29      0.00
    7   -6    5     -0.46      0.00
    8   -6    5      1.14      0.00
    9   -6    5      0.64      0.00
   10   -6    5     -1.11      0.00
   11   -6    5     -0.98      0.00
   12   -6    5      0.10      0.00
   13   -6    5      0.75      0.00
  -12   -5    5      0.05      0.00
  -11   -5    5      0.32      0.00
  -10   -5    5     -0.25      0.00
   -9   -5    5     -0.83      0.00
   -8   -5    5     -0.11      0.00
   -7   -5    5      0.22      0.00
   -6   -5    5      0.44      0.00
   -5   -5    5      0.67      0.00
   -4   -5    5     -2.10      0.00
   -3   -5    5      0.52      0.00
   -2   -5    5      5.74      0.00
   -1   -5    5      7.85      0.00
    0   -5    5      3.19      0.00
    1   -5    5     -6.59      0.00
    2   -5    5     -6.63      0.00
    3   -5    5      4.32      0.00
    4   -5    5      4.58      0.00
    5   -5    5      0.01      0.00
    6   -5    5     -2.66      0.00
    7   -5    5      1.19      0.00
    8   -5    5      1.41      0.00
    9   -5    5      0.03      0.00
   10   -5    5     -0.94      0.00
   11   -5    5     -0.64      0.00
   12   -5    5      0.23      0.00
   13   -5    5      0.04      0.00
  -12   -4    5      0.55      0.00
  -11   -4    5      0.55      0.00
  -10   -4    5     -0.48      0.00
   -9   -4    5     -0.73      0.00
   -8   -4    5     -0.51      0.00
   -7   -4    5     -0.42      0.00
   -6   -4    5      1.19      0.00
   -5   -4    5      1.93      0.00
   -4   -4    5      0.02      0.00
   -3   -4    5     -1.97      0.00
   -2   -4    5      6.00      0.00
   -1   -4    5     12.44      0.00
    0   -4    5      0.71      0.00
    1   -4    5    -14.42      0.00
    2   -4    5     -6.93      0.00
    3   -4    5      8.12      0.00
    4   -4    5      8.06      0.00
    5   -4    5     -2.06      0.00
    6   -4    5     -1.89      0.00
    7   -4    5     -0.46      0.00
    8   -4    5      0.82      0.00
    9   -4    5     -0.34      0.00
   10   -4    5     -1.19      0.00
   11   -4    5     -0.08      0.00
   12   -4    5      0.95      0.00
   13   -4    5      0.28      0.00
  -12   -3    5      0.89      0.00
  -11   -3    5      0.66      0.00
  -10   -3    5     -0.28      0.00
   -9   -3    5      0.09      0.00
   -8   -3    5     -0.01      0.00
   -7   -3    5      0.21      0.00
   -6   -3    5      2.20      0.00
   -5   -3    5      2.19      0.00
   -4   -3    5     -0.29      0.00
   -3   -3    5     -0.13      0.00
   -2   -3    5      3.74      0.00
   -1   -3    5      6.47      0.00
    0   -3    5     -2.99      0.00
    1   -3    5    -12.60      0.00
    2   -3    5     -6.77      0.00
    3   -3    5      7.37      0.00
    4   -3    5      4.21      0.00
    5   -3    5     -2.89      0.00
    6   -3    5     -4.07      0.00
    7   -3    5      0.37      0.00
    8   -3    5      0.32      0.00
    9   -3    5     -0.80      0.00
   10   -3    5     -1.30      0.00
   11   -3    5     -0.03      0.00
   12   -3    5      0.13      0.00
   13   -3    5      0.27      0.00
  -12   -2    5     -0.07      0.00
  -11   -2    5      0.28      0.00
  -10   -2    5      0.13      0.00
   -9   -2    5     -0.30      0.00
   -8   -2    5      0.55      0.00
   -7   -2    5      2.09      0.00
   -6   -2    5      2.80      0.00
   -5   -2    5      1.06      0.00
   -4   -2    5     -3.84      0.00
   -3   -2    5     -3.22      0.00
   -2   -2    5      4.98      0.00
   -1   -2    5      6.81      0.00
    0   -2    5     -7.99      0.00
    1   -2    5    -20.82      0.00
    2   -2    5     -0.95      0.00
    3   -2    5     11.44      0.00
    4   -2    5      2.85      0.00
    5   -2    5     -9.27      0.00
    6   -2    5     -4.97      0.00
    7   -2    5     -0.58      0.00
    8   -2    5      0.51      0.00
    9   -2    5     -0.38      0.00
   10   -2    5     -0.58      0.00
   11   -2    5     -1.02      0.00
   12   -2    5      0.24      0.00
   13   -2    5     -0.28      0.00
   14   -2    5     -0.37      0.00
  -12   -1    5      0.88      0.00
  -11   -1    5     -0.12      0.00
  -10   -1    5     -0.32      0.00
   -9   -1    5      0.58      0.00
   -8   -1    5      0.75      0.00
   -7   -1    5      1.19      0.00
   -6   -1    5      2.07      0.00
   -5   -1    5     -0.34      0.00
   -4   -1    5     -3.12      0.00
   -3   -1    5     -4.74      0.00
   -2   -1    5      3.19      0.00
   -1   -1    5      6.26      0.00
    0   -1    5    -11.80      0.00
    1   -1    5    -17.19      0.00
    2   -1    5     -2.51      0.00
    3   -1    5     14.96      0.00
    4   -1    5     -0.42      0.00
    5   -1    5     -9.85      0.00
    6   -1    5     -6.53      0.00
    7   -1    5     -0.76      0.00
    8   -1    5      0.74      0.00
    9   -1    5      0.27      0.00
   10   -1    5     -1.29      0.00
   11   -1    5     -0.23      0.00
   12   -1    5     -0.62      0.00
   13   -1    5      0.06      0.00
   14   -1    5      0.29      0.00
  -12    0    5     -0.31      0.00
  -11    0    5      0.01      0.00
  -10    0    5     -0.20      0.00
   -9    0    5      0.75      0.00
   -8    0    5      1.28      0.00
   -7    0    5      0.69      0.00
   -6    0    5     -0.48      0.00
   -5    0    5     -1.92      0.00
   -4    0    5     -6.42      0.00
   -3    0    5     -1.31      0.00
   -2    0    5      8.38      0.00
   -1    0    5      3.49      0.00
    0    0    5    -13.32      0.00
    1    0    5    -15.91      0.00
    2    0    5      9.22      0.00
    3    0    5      6.16      0.00
    4    0    5     -4.98      0.00
    5    0    5    -11.44      0.00
    6    0    5     -4.95      0.00
    7    0    5      0.52      0.00
    8    0    5      0.28      0.00
    9    0    5     -1.49      0.00
   10    0    5     -0.71      0.00
   11    0    5     -1.14      0.00
   12    0    5     -0.06      0.00
   13    0    5     -0.06      0.00
   14    0    5     -0.29      0.00
  -12    1    5      0.19      0.00
  -11    1    5     -0.44      0.00
  -10    1    5      0.36      0.00
   -9    1    5      0.19      0.00
   -8    1    5     -0.12      0.00
   -7    1    5      0.44      0.00
   -6    1    5     -0.35      0.00
   -5    1    5     -4.97      0.00
   -4    1    5     -5.08      0.00
   -3    1    5     -1.01      0.00
   -2    1    5      8.19      0.00
   -1    1    5      4.29      0.00
    0    1    5    -15.39      0.00
    1    1    5    -13.19      0.00
    2    1    5      1.45      0.00
    3    1    5      8.83      0.00
    4    1    5    -11.63      0.00
    5    1    5    -14.18      0.00
    6    1    5     -2.47      0.00
    7    1    5      1.88      0.00
    8    1    5     -0.22      0.00
    9    1    5     -1.68      0.00
   10    1    5     -3.38      0.00
   11    1    5     -1.59      0.00
   12    1    5      0.37      0.00
   13    1    5      0.76      0.00
   14    1    5     -0.09      0.00
  -12    2    5     -0.59      0.00
  -11    2    5      0.40      0.00
  -10    2    5     -0.19      0.00
   -9    2    5     -0.25      0.00
   -8    2    5     -0.10      0.00
   -7    2    5     -0.42      0.00
   -6    2    5     -1.01      0.00
   -5    2    5     -0.83      0.00
   -4    2    5     -4.16      0.00
   -3    2    5      0.51      0.00
   -2    2    5      6.74      0.00
   -1    2    5     -1.46      0.00
    0    2    5    -16.23      0.00
    1    2    5    -15.95      0.00
    2    2    5      2.33      0.00
    3    2    5     -2.89      0.00
    4    2    5    -10.89      0.00
    5    2    5    -11.07      0.00
    6    2    5     -6.42      0.00
    7    2    5     -1.33      0.00
    8    2    5      0.62      0.00
    9    2    5     -1.65      0.00
   10    2    5     -2.33      0.00
   11    2    5     -1.89      0.00
   12    2    5     -0.72      0.00
   13    2    5      0.39      0.00
   14    2    5      0.64      0.00
  -12    3    5      0.19      0.00
  -11    3    5     -0.68      0.00
  -10    3    5     -0.06      0.00
   -9    3    5     -0.04      0.00
   -8    3    5     -0.84      0.00
   -7    3    5     -0.46      0.00
   -6    3    5     -0.09      0.00
   -5    3    5     -2.45      0.00
   -4    3    5     -0.23      0.00
   -3    3    5      2.75      0.00
   -2    3    5      3.44      0.00
   -1    3    5     -8.77      0.00
    0    3    5    -22.16      0.00
    1    3    5     -8.79      0.00
    2    3    5      2.10      0.00
    3    3    5     -2.88      0.00
    4    3    5    -14.71      0.00
    5    3    5    -12.38      0.00
    6    3    5     -1.78      0.00
    7    3    5      0.59      0.00
    8    3    5     -2.71      0.00
    9    3    5     -2.92      0.00
   10    3    5     -2.02      0.00
   11    3    5     -0.82      0.00
   12    3    5      0.80      0.00
   13    3    5      0.41      0.00
   14    3    5      0.27      0.00
  -12    4    5     -0.06      0.00
  -11    4    5      0.65      0.00
  -10    4    5     -0.41      0.00
   -9    4    5     -1.43      0.00
   -8    4    5     -0.01      0.00
   -7    4    5      0.76      0.00
   -6    4    5     -0.70      0.00
   -5    4    5     -0.63      0.00
   -4    4    5     -2.92      0.00
   -3    4    5      0.93      0.00
   -2    4    5      2.00      0.00
   -1    4    5    -10.55      0.00
    0    4    5    -18.72      0.00
    1    4    5    -13.43      0.00
    2    4    5      3.01      0.00
    3    4    5      0.17      0.00
    4    4    5    -10.03      0.00
    5    4    5    -10.28      0.00
    6    4    5     -4.32      0.00
    7    4    5      0.78      0.00
    8    4    5      0.30      0.00
    9    4    5     -2.45      0.00
   10    4    5     -2.58      0.00
   11    4    5     -0.32      0.00
   12    4    5      0.78      0.00
   13    4    5      1.70      0.00
   14    4    5      0.43      0.00
  -12    5    5      0.51      0.00
  -11    5    5     -0.10      0.00
  -10    5    5     -0.73      0.00
   -9    5    5     -0.25      0.00
   -8    5    5     -0.07      0.00
   -7    5    5      0.16      0.00
   -6    5    5      0.67      0.00
   -5    5    5     -2.42      0.00
   -4    5    5     -2.21      0.00
   -3    5    5     -1.54      0.00
   -2    5    5     -3.58      0.00
   -1    5    5     -9.17      0.00
    0    5    5    -14.69      0.00
    1    5    5     -2.18      0.00
    2    5    5      0.98      0.00
    3    5    5     -2.52      0.00
    4    5    5     -8.48      0.00
    5    5    5     -7.08      0.00
    6    5    5     -1.01      0.00
    7    5    5     -0.53      0.00
    8    5    5     -1.64      0.00
    9    5    5     -1.09      0.00
   10    5    5     -0.50      0.00
   11    5    5     -0.71      0.00
   12    5    5      0.94      0.00
   13    5    5      0.35      0.00
   14    5    5      0.22      0.00
  -11    6    5     -0.40      0.00
  -10    6    5     -0.40      0.00
   -9    6    5     -0.51      0.00
   -8    6    5      0.46      0.00
   -7    6    5      1.00      0.00
   -6    6    5     -1.16      0.00
   -5    6    5     -1.86      0.00
   -4    6    5     -3.73      0.00
   -3    6    5     -1.76      0.00
   -2    6    5     -1.78      0.00
   -1    6    5    -10.58      0.00
    0    6    5     -7.43      0.00
    1    6    5     -1.46      0.00
    2    6    5      7.43      0.00
    3    6    5     -3.11      0.00
    4    6    5    -11.18      0.00
    5    6    5     -7.11      0.00
    6    6    5      0.31      0.00
    7    6    5      1.83      0.00
    8    6    5     -1.04      0.00
    9    6    5     -1.43      0.00
   10    6    5     -0.98      0.00
   11    6    5      0.58      0.00
   12    6    5      0.81      0.00
   13    6    5      0.44      0.00
   14    6    5     -0.71      0.00
  -11    7    5     -0.05      0.00
  -10    7    5     -0.75      0.00
   -9    7    5     -0.40      0.00
   -8    7    5      0.46      0.00
   -7    7    5      0.34      0.00
   -6    7    5     -0.27      0.00
   -5    7    5     -3.29      0.00
   -4    7    5     -2.27      0.00
   -3    7    5      0.08      0.00
   -2    7    5     -1.24      0.00
   -1    7    5     -3.18      0.00
    0    7    5     -7.30      0.00
    1    7    5      3.41      0.00
    2    7    5      1.95      0.00
    3    7    5     -2.34      0.00
    4    7    5     -7.66      0.00
    5    7    5     -5.55      0.00
    6    7    5     -1.05      0.00
    7    7    5      0.86      0.00
    8    7    5      0.70      0.00
    9    7    5     -0.86      0.00
   10    7    5     -1.41      0.00
   11    7    5     -0.28      0.00
   12    7    5      0.87      0.00
   13    7    5     -0.10      0.00
   14    7    5     -0.36      0.00
  -11    8    5      0.16      0.00
  -10    8    5     -0.30      0.00
   -9    8    5     -0.60      0.00
   -8    8    5      0.07      0.00
   -7    8    5      0.24      0.00
   -6    8    5     -1.30      0.00
   -5    8    5     -1.26      0.00
   -4    8    5     -1.04      0.00
   -3    8    5      2.07      0.00
   -2    8    5      1.73      0.00
   -1    8    5     -5.09      0.00
    0    8    5     -0.36      0.00
    1    8    5      0.31      0.00
    2    8    5      2.06      0.00
    3    8    5     -4.83      0.00
    4    8    5     -7.43      0.00
    5    8    5     -2.55      0.00
    6    8    5      2.41      0.00
    7    8    5      0.80      0.00
    8    8    5     -0.49      0.00
    9    8    5     -0.72      0.00
   10    8    5     -0.60      0.00
   11    8    5      0.11      0.00
   12    8    5      0.38      0.00
   13    8    5     -0.38      0.00
  -10    9    5     -0.12      0.00
   -9    9    5      0.17      0.00
   -8    9    5      0.02      0.00
   -7    9    5     -0.43      0.00
   -6    9    5     -0.64      0.00
   -5    9    5     -1.44      0.00
   -4    9    5      1.43      0.00
   -3    9    5      2.55      0.00
   -2    9    5     -0.09      0.00
   -1    9    5     -1.06      0.00
    0    9    5     -3.60      0.00
    1    9    5      1.53      0.00
    2    9    5     -0.12      0.00
    3    9    5     -4.15      0.00
    4    9    5     -5.04      0.00
    5    9    5     -0.99      0.00
    6    9    5      2.06      0.00
    7    9    5      2.41      0.00
    8    9    5     -0.61      0.00
    9    9    5     -1.62      0.00
   10    9    5     -1.03      0.00
   11    9    5      0.80      0.00
   12    9    5      0.41      0.00
   13    9    5     -0.10      0.00
  -10   10    5     -0.23      0.00
   -9   10    5      0.11      0.00
   -8   10    5      0.75      0.00
   -7   10    5      0.48      0.00
   -6   10    5     -0.79      0.00
   -5   10    5     -0.31      0.00
   -4   10    5      0.57      0.00
   -3   10    5      2.62      0.00
   -2   10    5      0.76      0.00
   -1   10    5     -4.23      0.00
    0   10    5     -2.07      0.00
    1   10    5     -0.63      0.00
    2   10    5     -0.54      0.00
    3   10    5     -2.55      0.00
    4   10    5     -1.86      0.00
    5   10    5      1.76      0.00
    6   10    5      2.78      0.00
    7   10    5      0.51      0.00
    8   10    5     -0.45      0.00
    9   10    5     -1.72      0.00
   10   10    5     -0.23      0.00
   11   10    5      0.74      0.00
   12   10    5      0.49      0.00
   13   10    5     -0.77      0.00
  -10   11    5     -0.23      0.00
   -9   11    5     -0.25      0.00
   -8   11    5      0.58      0.00
   -7   11    5      0.44      0.00
   -6   11    5      0.02      0.00
   -5   11    5     -0.33      0.00
   -4   11    5      0.85      0.00
   -3   11    5      0.50      0.00
   -2   11    5     -1.11      0.00
   -1   11    5     -1.85      0.00
    0   11    5     -2.01      0.00
    1   11    5      0.48      0.00
    2   11    5      0.28      0.00
    3   11    5     -1.43      0.00
    4   11    5     -0.71      0.00
    5   11    5      1.60      0.00
    6   11    5      1.89      0.00
    7   11    5     -0.02      0.00
    8   11    5     -1.27      0.00
    9   11    5     -0.50      0.00
   10   11    5      0.36      0.00
   11   11    5      1.12      0.00
   12   11    5     -0.12      0.00
   13   11    5      0.23      0.00
   -9   12    5      0.70      0.00
   -8   12    5     -0.12      0.00
   -7   12    5     -0.23      0.00
   -6   12    5      0.01      0.00
   -5   12    5     -0.09      0.00
   -4   12    5     -0.09      0.00
   -3   12    5      0.40      0.00
   -2   12    5     -1.47      0.00
   -1   12    5     -3.35      0.00
    0   12    5     -0.26      0.00
    1   12    5      2.08      0.00
    2   12    5      1.32      0.00
    3   12    5     -0.87      0.00
    4   12    5     -0.33      0.00
    5   12    5      1.08      0.00
    6   12    5      0.64      0.00
    7   12    5      0.15      0.00
    8   12    5     -1.14      0.00
    9   12    5     -0.98      0.00
   10   12    5      0.38      0.00
   11   12    5      0.31      0.00
   12   12    5      0.53      0.00
   -9   13    5      0.68      0.00
   -8   13    5      1.11      0.00
   -7   13    5      0.41      0.00
   -6   13    5     -0.31      0.00
   -5   13    5     -0.30      0.00
   -4   13    5      0.23      0.00
   -3   13    5      0.23      0.00
   -2   13    5     -1.21      0.00
   -1   13    5     -1.29      0.00
    0   13    5     -0.39      0.00
    1   13    5      1.67      0.00
    2   13    5      1.06      0.00
    3   13    5     -0.40      0.00
    4   13    5     -0.88      0.00
    5   13    5      0.01      0.00
    6   13    5      0.74      0.00
    7   13    5     -0.22      0.00
    8   13    5     -0.29      0.00
    9   13    5     -0.32      0.00
   10   13    5      0.26      0.00
   11   13    5      0.75      0.00
   12   13    5      0.22      0.00
   -8   14    5      0.56      0.00
   -7   14    5      0.48      0.00
   -6   14    5      0.15      0.00
   -5   14    5     -0.38      0.00
   -4   14    5      0.08      0.00
   -3   14    5      0.22      0.00
   -2   14    5      0.24      0.00
   -1   14    5     -0.51      0.00
    0   14    5      0.68      0.00
    1   14    5      0.97      0.00
    2   14    5      0.02      0.00
    3   14    5     -0.94      0.00
    4   14    5     -0.01      0.00
    5   14    5      0.62      0.00
    6   14    5      0.23      0.00
    7   14    5      0.05      0.00
    8   14    5     -0.72      0.00
    9   14    5     -0.06      0.00
   10   14    5      1.29      0.00
   11   14    5      0.85      0.00
   -7   15    5      0.19      0.00
   -6   15    5      0.17      0.00
   -5   15    5     -0.01      0.00
   -4   15    5     -0.28      0.00
   -3   15    5      0.86      0.00
   -2   15    5      0.29      0.00
   -1   15    5     -0.03      0.00
    0   15    5      0.71      0.00
    1   15    5      1.24      0.00
    2   15    5     -0.15      0.00
    3   15    5     -0.95      0.00
    4   15    5     -0.34      0.00
    5   15    5      0.76      0.00
    6   15    5      0.63      0.00
    7   15    5     -0.19      0.00
    8   15    5     -0.04      0.00
    9   15    5      0.91      0.00
   10   15    5      0.32      0.00
   11   15    5      0.13      0.00
   -6   16    5     -0.16      0.00
   -5   16    5     -0.15      0.00
   -4   16    5      0.76      0.00
   -3   16    5      1.08      0.00
   -2   16    5      0.62      0.00
   -1   16    5      0.07      0.00
    0   16    5      0.35      0.00
    1   16    5      0.50      0.00
    2   16    5      0.21      0.00
    3   16    5     -0.13      0.00
    4   16    5      0.37      0.00
    5   16    5      0.36      0.00
    6   16    5      0.59      0.00
    7   16    5      0.46      0.00
    8   16    5      0.28      0.00
    9   16    5     -0.03      0.00
   10   16    5      0.55      0.00
   -5   17    5     -0.23      0.00
   -4   17    5      0.40      0.00
   -3   17    5      1.12      0.00
   -2   17    5      0.90      0.00
   -1   17    5      0.06      0.00
    0   17    5      0.14      0.00
    1   17    5      0.50      0.00
    2   17    5     -0.06      0.00
    3   17    5      0.11      0.00
    4   17    5     -0.03      0.00
    5   17    5      0.25      0.00
    6   17    5      0.26      0.00
    7   17    5      0.52      0.00
    8   17    5      0.55      0.00
    9   17    5      0.88      0.00
   -4   18    5      0.21      0.00
   -3   18    5      1.06      0.00
   -2   18    5      0.52      0.00
   -1   18    5     -0.10      0.00
    0   18    5      0.06      0.00
    1   18    5      0.07      0.00
    2   18    5      0.63      0.00
    3   18    5      0.17      0.00
    4   18    5     -0.19      0.00
    5   18    5     -0.45      0.00
    6   18    5      0.31      0.00
    7   18    5      0.39      0.00
    8   18    5      0.07      0.00
   -3   19    5      0.24      0.00
   -2   19    5      0.16      0.00
   -1   19    5     -0.05      0.00
    0   19    5     -0.13      0.00
    1   19    5      0.44      0.00
    2   19    5      0.05      0.00
    3   19    5     -0.10      0.00
    4   19    5     -0.21      0.00
    5   19    5      0.41      0.00
    6   19    5      0.19      0.00
    7   19    5     -0.34      0.00
   -1   20    5     -0.42      0.00
    0   20    5      0.00      0.00
    1   20    5      0.23      0.00
    2   20    5      0.22      0.00
    3   20    5     -0.21      0.00
    4   20    5     -0.28      0.00
    5   20    5     -0.14      0.00
   -2  -19    6     -0.02      0.00
   -1  -19    6     -0.06      0.00
    0  -19    6     -0.35      0.00
    1  -19    6     -0.12      0.00
   -5  -18    6     -0.12      0.00
   -4  -18    6     -0.57      0.00
   -3  -18    6     -0.35      0.00
   -2  -18    6      0.41      0.00
   -1  -18    6      0.31      0.00
    0  -18    6     -0.01      0.00
    1  -18    6      0.16      0.00
    2  -18    6      0.18      0.00
    3  -18    6      0.02      0.00
    4  -18    6      0.33      0.00
   -6  -17    6     -0.24      0.00
   -5  -17    6     -0.15      0.00
   -4  -17    6     -0.88      0.00
   -3  -17    6      0.20      0.00
   -2  -17    6      0.23      0.00
   -1  -17    6     -0.28      0.00
    0  -17    6     -0.16      0.00
    1  -17    6      0.09      0.00
    2  -17    6      0.68      0.00
    3  -17    6      0.28      0.00
    4  -17    6      0.54      0.00
    5  -17    6      0.36      0.00
   -7  -16    6      0.35      0.00
   -6  -16    6      0.57      0.00
   -5  -16    6     -1.10      0.00
   -4  -16    6     -0.32      0.00
   -3  -16    6     -0.29      0.00
   -2  -16    6     -0.02      0.00
   -1  -16    6      0.21      0.00
    0  -16    6     -0.09      0.00
    1  -16    6     -0.16      0.00
    2  -16    6     -0.77      0.00
    3  -16    6      0.34      0.00
    4  -16    6      0.36      0.00
    5  -16    6      0.57      0.00
    6  -16    6      0.09      0.00
    7  -16    6     -0.21      0.00
   -8  -15    6      0.07      0.00
   -7  -15    6     -0.03      0.00
   -6  -15    6     -0.62      0.00
   -5  -15    6     -1.01      0.00
   -4  -15    6     -1.32      0.00
   -3  -15    6      0.46      0.00
   -2  -15    6      0.59      0.00
   -1  -15    6     -0.44      0.00
    0  -15    6     -0.42      0.00
    1  -15    6     -0.27      0.00
    2  -15    6      0.36      0.00
    3  -15    6     -0.35      0.00
    4  -15    6      0.33      0.00
    5  -15    6     -0.04      0.00
    6  -15    6     -0.32      0.00
    7  -15    6      0.36      0.00
    8  -15    6     -0.27      0.00
   -9  -14    6     -0.19      0.00
   -8  -14    6     -0.32      0.00
   -7  -14    6      0.55      0.00
   -6  -14    6     -0.05      0.00
   -5  -14    6     -1.10      0.00
   -4  -14    6     -0.16      0.00
   -3  -14    6      0.20      0.00
   -2  -14    6     -0.21      0.00
   -1  -14    6     -0.25      0.00
    0  -14    6     -0.53      0.00
    1  -14    6     -0.50      0.00
    2  -14    6     -0.14      0.00
    3  -14    6      1.06      0.00
    4  -14    6      0.39      0.00
    5  -14    6     -0.35      0.00
    6  -14    6      0.02      0.00
    7  -14    6     -0.50      0.00
    8  -14    6      0.75      0.00
    9  -14    6      0.70      0.00
   -9  -13    6     -0.11      0.00
   -8  -13    6      0.08      0.00
   -7  -13    6     -0.29      0.00
   -6  -13    6     -0.14      0.00
   -5  -13    6     -0.25      0.00
   -4  -13    6     -0.02      0.00
   -3  -13    6      0.36      0.00
   -2  -13    6      0.44      0.00
   -1  -13    6      0.15      0.00
    0  -13    6      0.18      0.00
    1  -13    6      0.24      0.00
    2  -13    6     -0.05      0.00
    3  -13    6     -0.48      0.00
    4  -13    6      0.24      0.00
    5  -13    6      1.02      0.00
    6  -13    6      0.04      0.00
    7  -13    6      0.39      0.00
    8  -13    6      0.02      0.00
    9  -13    6      0.69      0.00
  -10  -12    6      0.67      0.00
   -9  -12    6      0.14      0.00
   -8  -12    6      0.22      0.00
   -7  -12    6      0.76      0.00
   -6  -12    6     -0.76      0.00
   -5  -12    6     -0.89      0.00
   -4  -12    6      0.36      0.00
   -3  -12    6      0.90      0.00
   -2  -12    6      0.38      0.00
   -1  -12    6      0.33      0.00
    0  -12    6      0.31      0.00
    1  -12    6     -0.04      0.00
    2  -12    6      0.35      0.00
    3  -12    6      0.52      0.00
    4  -12    6      0.40      0.00
    5  -12    6      0.41      0.00
    6  -12    6      0.59      0.00
    7  -12    6      0.13      0.00
    8  -12    6      0.68      0.00
    9  -12    6      0.08      0.00
   10  -12    6      0.33      0.00
  -10  -11    6      0.26      0.00
   -9  -11    6      0.83      0.00
   -8  -11    6      0.39      0.00
   -7  -11    6     -0.47      0.00
   -6  -11    6     -0.08      0.00
   -5  -11    6     -0.22      0.00
   -4  -11    6      0.52      0.00
   -3  -11    6      1.43      0.00
   -2  -11    6      1.06      0.00
   -1  -11    6      0.11      0.00
    0  -11    6     -0.36      0.00
    1  -11    6      0.31      0.00
    2  -11    6     -0.08      0.00
    3  -11    6     -0.18      0.00
    4  -11    6      0.89      0.00
    5  -11    6      0.90      0.00
    6  -11    6      0.62      0.00
    7  -11    6      0.28      0.00
    8  -11    6      0.08      0.00
    9  -11    6      0.31      0.00
   10  -11    6     -0.98      0.00
   11  -11    6      0.04      0.00
  -11  -10    6      0.50      0.00
  -10  -10    6      0.31      0.00
   -9  -10    6     -0.17      0.00
   -8  -10    6     -0.27      0.00
   -7  -10    6     -0.34      0.00
   -6  -10    6     -0.35      0.00
   -5  -10    6      0.97      0.00
   -4  -10    6      1.73      0.00
   -3  -10    6      1.26      0.00
   -2  -10    6      0.71      0.00
   -1  -10    6     -0.30      0.00
    0  -10    6     -0.34      0.00
    1  -10    6     -0.06      0.00
    2  -10    6      0.74      0.00
    3  -10    6      0.47      0.00
    4  -10    6      0.40      0.00
    5  -10    6      1.33      0.00
    6  -10    6      0.13      0.00
    7  -10    6     -0.17      0.00
    8  -10    6     -0.03      0.00
    9  -10    6     -0.50      0.00
   10  -10    6     -0.02      0.00
   11  -10    6     -0.78      0.00
  -11   -9    6      0.03      0.00
  -10   -9    6      0.61      0.00
   -9   -9    6      0.02      0.00
   -8   -9    6     -0.69      0.00
   -7   -9    6     -0.14      0.00
   -6   -9    6      0.37      0.00
   -5   -9    6      0.13      0.00
   -4   -9    6      1.50      0.00
   -3   -9    6      2.33      0.00
   -2   -9    6     -0.58      0.00
   -1   -9    6     -1.95      0.00
    0   -9    6     -0.67      0.00
    1   -9    6      1.62      0.00
    2   -9    6      0.94      0.00
    3   -9    6      0.86      0.00
    4   -9    6      1.18      0.00
    5   -9    6      0.31      0.00
    6   -9    6     -0.35      0.00
    7   -9    6     -0.86      0.00
    8   -9    6     -0.53      0.00
    9   -9    6      0.11      0.00
   10   -9    6      0.17      0.00
   11   -9    6      1.26      0.00
   12   -9    6     -0.28      0.00
  -11   -8    6      0.35      0.00
  -10   -8    6      0.27      0.00
   -9   -8    6      0.89      0.00
   -8   -8    6      0.05      0.00
   -7   -8    6     -0.34      0.00
   -6   -8    6      0.12      0.00
   -5   -8    6      1.69      0.00
   -4   -8    6      2.31      0.00
   -3   -8    6     -0.25      0.00
   -2   -8    6     -2.14      0.00
   -1   -8    6     -2.70      0.00
    0   -8    6      0.19      0.00
    1   -8    6      2.03      0.00
    2   -8    6      1.71      0.00
    3   -8    6     -0.60      0.00
    4   -8    6      0.86      0.00
    5   -8    6      0.25      0.00
    6   -8    6     -1.49      0.00
    7   -8    6     -1.28      0.00
    8   -8    6     -0.12      0.00
    9   -8    6      0.19      0.00
   10   -8    6      0.77      0.00
   11   -8    6     -0.31      0.00
   12   -8    6      0.43      0.00
  -11   -7    6      0.08      0.00
  -10   -7    6      0.64      0.00
   -9   -7    6     -0.08      0.00
   -8   -7    6      0.35      0.00
   -7   -7    6      0.70      0.00
   -6   -7    6      0.43      0.00
   -5   -7    6     -0.20      0.00
   -4   -7    6      1.36      0.00
   -3   -7    6      1.34      0.00
   -2   -7    6     -3.53      0.00
   -1   -7    6     -2.67      0.00
    0   -7    6      1.89      0.00
    1   -7    6      3.60      0.00
    2   -7    6     -0.66      0.00
    3   -7    6     -0.95      0.00
    4   -7    6     -1.28      0.00
    5   -7    6     -0.77      0.00
    6   -7    6     -1.32      0.00
    7   -7    6     -0.46      0.00
    8   -7    6     -0.65      0.00
    9   -7    6      0.43      0.00
   10   -7    6      0.29      0.00
   11   -7    6      0.04      0.00
   12   -7    6     -0.78      0.00
  -12   -6    6     -0.29      0.00
  -11   -6    6      0.09      0.00
  -10   -6    6      0.45      0.00
   -9   -6    6      0.49      0.00
   -8   -6    6     -0.65      0.00
   -7   -6    6      0.03      0.00
   -6   -6    6     -0.10      0.00
   -5   -6    6      1.45      0.00
   -4   -6    6      0.95      0.00
   -3   -6    6     -2.89      0.00
   -2   -6    6     -2.98      0.00
   -1   -6    6     -0.50      0.00
    0   -6    6      4.44      0.00
    1   -6    6      3.31      0.00
    2   -6    6     -0.87      0.00
    3   -6    6     -3.25      0.00
    4   -6    6     -0.37      0.00
    5   -6    6     -1.17      0.00
    6   -6    6     -1.22      0.00
    7   -6    6     -1.56      0.00
    8   -6    6      0.12      0.00
    9   -6    6      0.00      0.00
   10   -6    6      0.38      0.00
   11   -6    6     -0.40      0.00
   12   -6    6     -0.69      0.00
   13   -6    6     -0.28      0.00
  -12   -5    6     -0.15      0.00
  -11   -5    6      0.29      0.00
  -10   -5    6      0.78      0.00
   -9   -5    6     -0.11      0.00
   -8   -5    6      0.06      0.00
   -7   -5    6     -0.60      0.00
   -6   -5    6     -0.76      0.00
   -5   -5    6     -0.27      0.00
   -4   -5    6      1.92      0.00
   -3   -5    6     -0.92      0.00
   -2   -5    6     -5.09      0.00
   -1   -5    6      1.82      0.00
    0   -5    6      7.20      0.00
    1   -5    6      3.42      0.00
    2   -5    6     -4.63      0.00
    3   -5    6     -4.27      0.00
    4   -5    6     -0.42      0.00
    5   -5    6      0.40      0.00
    6   -5    6     -1.75      0.00
    7   -5    6      0.14      0.00
    8   -5    6     -0.35      0.00
    9   -5    6      0.38      0.00
   10   -5    6     -0.46      0.00
   11   -5    6     -1.12      0.00
   12   -5    6     -0.57      0.00
   13   -5    6      0.19      0.00
  -12   -4    6      0.13      0.00
  -11   -4    6      0.38      0.00
  -10   -4    6      0.36      0.00
   -9   -4    6      0.07      0.00
   -8   -4    6     -0.30      0.00
   -7   -4    6     -0.56      0.00
   -6   -4    6     -1.16      0.00
   -5   -4    6      1.88      0.00
   -4   -4    6      1.41      0.00
   -3   -4    6     -1.62      0.00
   -2   -4    6     -1.36      0.00
   -1   -4    6      1.82      0.00
    0   -4    6      6.58      0.00
    1   -4    6      1.21      0.00
    2   -4    6     -6.00      0.00
    3   -4    6     -4.14      0.00
    4   -4    6      0.36      0.00
    5   -4    6     -0.60      0.00
    6   -4    6     -0.75      0.00
    7   -4    6     -1.10      0.00
    8   -4    6      0.56      0.00
    9   -4    6     -0.12      0.00
   10   -4    6     -0.29      0.00
   11   -4    6     -0.86      0.00
   12   -4    6     -0.69      0.00
   13   -4    6      0.00      0.00
  -12   -3    6      0.01      0.00
  -11   -3    6      0.29      0.00
  -10   -3    6      0.62      0.00
   -9   -3    6      0.07      0.00
   -8   -3    6     -0.70      0.00
   -7   -3    6     -1.08      0.00
   -6   -3    6      0.44      0.00
   -5   -3    6      1.91      0.00
   -4   -3    6      2.11      0.00
   -3   -3    6     -2.89      0.00
   -2   -3    6     -3.91      0.00
   -1   -3    6      4.60      0.00
    0   -3    6      5.83      0.00
    1   -3    6     -3.92      0.00
    2   -3    6    -10.80      0.00
    3   -3    6     -3.61      0.00
    4   -3    6      2.31      0.00
    5   -3    6      0.56      0.00
    6   -3    6     -2.43      0.00
    7   -3    6     -0.68      0.00
    8   -3    6     -1.11      0.00
    9   -3    6     -0.12      0.00
   10   -3    6     -0.02      0.00
   11   -3    6     -0.56      0.00
   12   -3    6     -0.47      0.00
   13   -3    6      0.30      0.00
  -12   -2    6      0.82      0.00
  -11   -2    6      0.95      0.00
  -10   -2    6      0.35      0.00
   -9   -2    6     -0.35      0.00
   -8   -2    6      0.07      0.00
   -7   -2    6     -0.12      0.00
   -6   -2    6     -0.12      0.00
   -5   -2    6      2.54      0.00
   -4   -2    6      1.29      0.00
   -3   -2    6     -3.07      0.00
   -2   -2    6     -3.99      0.00
   -1   -2    6      1.39      0.00
    0   -2    6      3.67      0.00
    1   -2    6     -7.43      0.00
    2   -2    6    -12.61      0.00
    3   -2    6     -5.69      0.00
    4   -2    6      3.07      0.00
    5   -2    6     -0.04      0.00
    6   -2    6     -1.84      0.00
    7   -2    6     -2.60      0.00
    8   -2    6     -1.44      0.00
    9   -2    6     -0.88      0.00
   10   -2    6     -0.79      0.00
   11   -2    6     -0.50      0.00
   12   -2    6      0.06      0.00
   13   -2    6     -0.49      0.00
   14   -2    6     -0.02      0.00
  -12   -1    6      0.22      0.00
  -11   -1    6      0.54      0.00
  -10   -1    6     -0.10      0.00
   -9   -1    6     -0.32      0.00
   -8   -1    6      0.02      0.00
   -7   -1    6      0.33      0.00
   -6   -1    6      1.49      0.00
   -5   -1    6      2.15      0.00
   -4   -1    6     -0.79      0.00
   -3   -1    6     -6.89      0.00
   -2   -1    6     -4.35      0.00
   -1   -1    6      5.51      0.00
    0   -1    6      2.08      0.00
    1   -1    6    -11.09      0.00
    2   -1    6    -13.85      0.00
    3   -1    6      0.12      0.00
    4   -1    6      1.15      0.00
    5   -1    6     -1.73      0.00
    6   -1    6     -4.99      0.00
    7   -1    6     -2.44      0.00
    8   -1    6     -1.00      0.00
    9   -1    6     -1.38      0.00
   10   -1    6     -0.85      0.00
   11   -1    6     -0.81      0.00
   12   -1    6     -0.77      0.00
   13   -1    6      0.33      0.00
   14   -1    6     -0.25      0.00
  -12    0    6      0.60      0.00
  -11    0    6     -0.01      0.00
  -10    0    6      0.19      0.00
   -9    0    6      0.29      0.00
   -8    0    6     -0.02      0.00
   -7    0    6     -0.18      0.00
   -6    0    6      0.86      0.00
   -5    0    6      1.21      0.00
   -4    0    6     -3.13      0.00
   -3    0    6     -7.75      0.00
   -2    0    6     -4.32      0.00
   -1    0    6      4.18      0.00
    0    0    6      3.12      0.00
    1    0    6    -10.37      0.00
    2    0    6    -11.11      0.00
    3    0    6     -3.06      0.00
    4    0    6      3.48      0.00
    5    0    6     -6.00      0.00
    6    0    6     -5.95      0.00
    7    0    6     -2.87      0.00
    8    0    6     -1.49      0.00
    9    0    6      0.19      0.00
   10    0    6     -0.81      0.00
   11    0    6     -1.69      0.00
   12    0    6     -0.85      0.00
   13    0    6     -0.17      0.00
   14    0    6      0.09      0.00
  -12    1    6      0.16      0.00
  -11    1    6      0.45      0.00
  -10    1    6      0.11      0.00
   -9    1    6      0.07      0.00
   -8    1    6      0.31      0.00
   -7    1    6     -0.17      0.00
   -6    1    6     -0.45      0.00
   -5    1    6     -0.41      0.00
   -4    1    6     -3.46      0.00
   -3    1    6     -7.24      0.00
   -2    1    6     -2.18      0.00
   -1    1    6      6.04      0.00
    0    1    6     -0.74      0.00
    1    1    6    -12.87      0.00
    2    1    6    -11.87      0.00
    3    1    6     -0.07      0.00
    4    1    6     -3.09      0.00
    5    1    6     -3.69      0.00
    6    1    6     -6.61      0.00
    7    1    6     -5.68      0.00
    8    1    6     -1.95      0.00
    9    1    6     -0.85      0.00
   10    1    6     -0.47      0.00
   11    1    6     -0.95      0.00
   12    1    6     -0.84      0.00
   13    1    6     -0.55      0.00
   14    1    6     -0.57      0.00
  -12    2    6     -0.07      0.00
  -11    2    6     -0.41      0.00
  -10    2    6     -0.17      0.00
   -9    2    6      0.28      0.00
   -8    2    6     -0.23      0.00
   -7    2    6     -0.58      0.00
   -6    2    6      0.05      0.00
   -5    2    6     -1.52      0.00
   -4    2    6     -5.14      0.00
   -3    2    6     -5.20      0.00
   -2    2    6      2.05      0.00
   -1    2    6      6.42      0.00
    0    2    6     -5.13      0.00
    1    2    6    -17.47      0.00
    2    2    6    -10.88      0.00
    3    2    6     -2.29      0.00
    4    2    6     -0.63      0.00
    5    2    6     -9.24      0.00
    6    2    6     -7.61      0.00
    7    2    6     -2.79      0.00
    8    2    6     -1.41      0.00
    9    2    6     -1.11      0.00
   10    2    6     -1.92      0.00
   11    2    6     -1.39      0.00
   12    2    6     -0.46      0.00
   13    2    6      0.30      0.00
   14    2    6     -0.06      0.00
  -12    3    6     -0.57      0.00
  -11    3    6      0.01      0.00
  -10    3    6      0.56      0.00
   -9    3    6     -0.56      0.00
   -8    3    6     -1.25      0.00
   -7    3    6     -0.34      0.00
   -6    3    6     -0.27      0.00
   -5    3    6     -0.79      0.00
   -4    3    6     -3.43      0.00
   -3    3    6     -4.50      0.00
   -2    3    6      2.33      0.00
   -1    3    6      5.34      0.00
    0    3    6     -4.63      0.00
    1    3    6    -16.55      0.00
    2    3    6    -14.26      0.00
    3    3    6     -2.23      0.00
    4    3    6     -2.39      0.00
    5    3    6     -5.07      0.00
    6    3    6     -8.02      0.00
    7    3    6     -4.75      0.00
    8    3    6      0.12      0.00
    9    3    6     -0.03      0.00
   10    3    6     -1.30      0.00
   11    3    6     -1.99      0.00
   12    3    6     -0.77      0.00
   13    3    6      0.16      0.00
   14    3    6      0.64      0.00
  -11    4    6      0.38      0.00
  -10    4    6     -0.05      0.00
   -9    4    6     -0.96      0.00
   -8    4    6     -0.96      0.00
   -7    4    6     -0.76      0.00
   -6    4    6     -0.05      0.00
   -5    4    6     -1.03      0.00
   -4    4    6     -2.73      0.00
   -3    4    6     -1.33      0.00
   -2    4    6      1.89      0.00
   -1    4    6      1.29      0.00
    0    4    6     -9.31      0.00
    1    4    6    -13.60      0.00
    2    4    6     -5.61      0.00
    3    4    6     -2.27      0.00
    4    4    6     -1.41      0.00
    5    4    6     -6.09      0.00
    6    4    6     -4.79      0.00
    7    4    6     -1.70      0.00
    8    4    6     -0.99      0.00
    9    4    6     -0.15      0.00
   10    4    6     -0.47      0.00
   11    4    6     -0.51      0.00
   12    4    6     -0.57      0.00
   13    4    6      0.32      0.00
   14    4    6      0.22      0.00
  -11    5    6      0.74      0.00
  -10    5    6      0.20      0.00
   -9    5    6     -0.74      0.00
   -8    5    6     -1.13      0.00
   -7    5    6      0.18      0.00
   -6    5    6      0.01      0.00
   -5    5    6     -0.88      0.00
   -4    5    6     -2.22      0.00
   -3    5    6     -2.58      0.00
   -2    5    6      2.14      0.00
   -1    5    6     -0.49      0.00
    0    5    6     -9.95      0.00
    1    5    6    -13.03      0.00
    2    5    6     -5.08      0.00
    3    5    6      6.41      0.00
    4    5    6      0.00      0.00
    5    5    6     -5.67      0.00
    6    5    6     -6.16      0.00
    7    5    6     -1.15      0.00
    8    5    6      1.88      0.00
    9    5    6     -0.02      0.00
   10    5    6     -0.65      0.00
   11    5    6     -0.85      0.00
   12    5    6      0.74      0.00
   13    5    6      1.51      0.00
   14    5    6      0.78      0.00
  -11    6    6      0.34      0.00
  -10    6    6      0.52      0.00
   -9    6    6     -0.84      0.00
   -8    6    6     -0.38      0.00
   -7    6    6      0.43      0.00
   -6    6    6      0.66      0.00
   -5    6    6     -0.45      0.00
   -4    6    6     -2.68      0.00
   -3    6    6     -1.62      0.00
   -2    6    6     -0.21      0.00
   -1    6    6     -0.79      0.00
    0    6    6     -7.07      0.00
    1    6    6     -8.64      0.00
    2    6    6      0.69      0.00
    3    6    6      1.93      0.00
    4    6    6      2.92      0.00
    5    6    6     -3.37      0.00
    6    6    6     -4.37      0.00
    7    6    6     -1.88      0.00
    8    6    6     -0.03      0.00
    9    6    6      1.49      0.00
   10    6    6      0.10      0.00
   11    6    6     -0.48      0.00
   12    6    6      0.06      0.00
   13    6    6      0.64      0.00
   14    6    6      0.58      0.00
  -11    7    6      0.02      0.00
  -10    7    6     -0.25      0.00
   -9    7    6     -0.61      0.00
   -8    7    6     -0.13      0.00
   -7    7    6      0.88      0.00
   -6    7    6      0.17      0.00
   -5    7    6     -1.00      0.00
   -4    7    6     -1.70      0.00
   -3    7    6     -1.68      0.00
   -2    7    6      2.37      0.00
   -1    7    6     -0.94      0.00
    0    7    6     -6.16      0.00
    1    7    6     -2.44      0.00
    2    7    6      1.64      0.00
    3    7    6      6.79      0.00
    4    7    6     -1.09      0.00
    5    7    6     -4.67      0.00
    6    7    6     -3.20      0.00
    7    7    6      0.19      0.00
    8    7    6      1.13      0.00
    9    7    6      0.50      0.00
   10    7    6      0.40      0.00
   11    7    6     -0.28      0.00
   12    7    6      0.24      0.00
   13    7    6      0.93      0.00
   14    7    6     -0.04      0.00
  -10    8    6     -0.43      0.00
   -9    8    6     -0.62      0.00
   -8    8    6      0.32      0.00
   -7    8    6      0.78      0.00
   -6    8    6      0.34      0.00
   -5    8    6     -1.07      0.00
   -4    8    6     -2.15      0.00
   -3    8    6      0.75      0.00
   -2    8    6      1.85      0.00
   -1    8    6      1.25      0.00
    0    8    6     -1.73      0.00
    1    8    6     -2.36      0.00
    2    8    6      4.37      0.00
    3    8    6      3.04      0.00
    4    8    6      0.05      0.00
    5    8    6     -5.26      0.00
    6    8    6     -3.67      0.00
    7    8    6      0.68      0.00
    8    8    6      2.49      0.00
    9    8    6      1.32      0.00
   10    8    6     -0.80      0.00
   11    8    6     -1.02      0.00
   12    8    6      0.55      0.00
   13    8    6      0.16      0.00
  -10    9    6      0.42      0.00
   -9    9    6     -0.67      0.00
   -8    9    6     -0.21      0.00
   -7    9    6      0.99      0.00
   -6    9    6      0.21      0.00
   -5    9    6     -0.81      0.00
   -4    9    6     -0.78      0.00
   -3    9    6      0.49      0.00
   -2    9    6      4.03      0.00
   -1    9    6      1.73      0.00
    0    9    6     -1.49      0.00
    1    9    6      0.15      0.00
    2    9    6      1.50      0.00
    3    9    6      1.82      0.00
    4    9    6     -3.31      0.00
    5    9    6     -3.40      0.00
    6    9    6     -0.60      0.00
    7    9    6      1.47      0.00
    8    9    6      1.79      0.00
    9    9    6      0.82      0.00
   10    9    6     -0.70      0.00
   11    9    6     -0.35      0.00
   12    9    6      0.13      0.00
   13    9    6      0.22      0.00
  -10   10    6      0.65      0.00
   -9   10    6      0.01      0.00
   -8   10    6      0.14      0.00
   -7   10    6      0.19      0.00
   -6   10    6     -0.22      0.00
   -5   10    6     -0.56      0.00
   -4   10    6      0.13      0.00
   -3   10    6      1.95      0.00
   -2   10    6      1.99      0.00
   -1   10    6      0.86      0.00
    0   10    6     -1.46      0.00
    1   10    6     -0.51      0.00
    2   10    6      1.80      0.00
    3   10    6      0.24      0.00
    4   10    6     -1.88      0.00
    5   10    6     -3.04      0.00
    6   10    6      0.29      0.00
    7   10    6      2.32      0.00
    8   10    6      1.07      0.00
    9   10    6     -0.03      0.00
   10   10    6     -0.46      0.00
   11   10    6     -0.15      0.00
   12   10    6      0.53      0.00
   13   10    6     -0.31      0.00
   -9   11    6      0.60      0.00
   -8   11    6      1.07      0.00
   -7   11    6      0.58      0.00
   -6   11    6     -0.62      0.00
   -5   11    6     -0.63      0.00
   -4   11    6     -0.06      0.00
   -3   11    6      1.52      0.00
   -2   11    6      2.61      0.00
   -1   11    6     -0.82      0.00
    0   11    6     -2.87      0.00
    1   11    6     -1.47      0.00
    2   11    6      1.17      0.00
    3   11    6      1.28      0.00
    4   11    6     -1.25      0.00
    5   11    6     -0.58      0.00
    6   11    6      0.70      0.00
    7   11    6      1.59      0.00
    8   11    6      1.74      0.00
    9   11    6     -0.10      0.00
   10   11    6     -0.41      0.00
   11   11    6     -0.38      0.00
   12   11    6     -0.65      0.00
   13   11    6      0.16      0.00
   -9   12    6     -0.51      0.00
   -8   12    6      0.41      0.00
   -7   12    6      1.03      0.00
   -6   12    6      0.43      0.00
   -5   12    6     -0.25      0.00
   -4   12    6      0.03      0.00
   -3   12    6      1.04      0.00
   -2   12    6      0.76      0.00
   -1   12    6     -0.44      0.00
    0   12    6     -1.84      0.00
    1   12    6     -1.15      0.00
    2   12    6      0.84      0.00
    3   12    6      1.05      0.00
    4   12    6      0.13      0.00
    5   12    6     -0.68      0.00
    6   12    6      0.67      0.00
    7   12    6      1.30      0.00
    8   12    6      0.50      0.00
    9   12    6      0.36      0.00
   10   12    6     -0.97      0.00
   11   12    6     -0.28      0.00
   12   12    6      0.54      0.00
   -8   13    6      0.25      0.00
   -7   13    6      0.28      0.00
   -6   13    6      0.04      0.00
   -5   13    6      0.02      0.00
   -4   13    6      0.28      0.00
   -3   13    6      0.25      0.00
   -2   13    6      0.31      0.00
   -1   13    6     -0.67      0.00
    0   13    6     -1.18      0.00
    1   13    6      0.62      0.00
    2   13    6      1.60      0.00
    3   13    6      0.92      0.00
    4   13    6     -0.68      0.00
    5   13    6     -0.33      0.00
    6   13    6      0.79      0.00
    7   13    6      1.25      0.00
    8   13    6      0.37      0.00
    9   13    6     -1.59      0.00
   10   13    6     -0.69      0.00
   11   13    6      0.25      0.00
   12   13    6      0.52      0.00
   -8   14    6      0.72      0.00
   -7   14    6      0.66      0.00
   -6   14    6      0.27      0.00
   -5   14    6      0.24      0.00
   -4   14    6     -0.27      0.00
   -3   14    6      0.22      0.00
   -2   14    6      0.44      0.00
   -1   14    6     -0.64      0.00
    0   14    6     -0.59      0.00
    1   14    6      0.77      0.00
    2   14    6      2.24      0.00
    3   14    6      0.94      0.00
    4   14    6     -0.82      0.00
    5   14    6     -0.70      0.00
    6   14    6      0.68      0.00
    7   14    6      0.62      0.00
    8   14    6     -0.39      0.00
    9   14    6     -0.18      0.00
   10   14    6      0.14      0.00
   11   14    6      0.04      0.00
   -7   15    6      0.69      0.00
   -6   15    6      0.07      0.00
   -5   15    6     -0.47      0.00
   -4   15    6     -0.07      0.00
   -3   15    6      0.71      0.00
   -2   15    6      0.63      0.00
   -1   15    6      0.11      0.00
    0   15    6      0.07      0.00
    1   15    6      0.72      0.00
    2   15    6      1.02      0.00
    3   15    6      0.62      0.00
    4   15    6     -0.50      0.00
    5   15    6     -0.34      0.00
    6   15    6      0.32      0.00
    7   15    6      0.81      0.00
    8   15    6      0.18      0.00
    9   15    6     -0.37      0.00
   10   15    6     -0.14      0.00
   11   15    6      0.53      0.00
   -6   16    6      0.12      0.00
   -5   16    6     -0.17      0.00
   -4   16    6     -0.09      0.00
   -3   16    6      0.19      0.00
   -2   16    6      0.71      0.00
   -1   16    6      0.77      0.00
    0   16    6      0.27      0.00
    1   16    6      0.64      0.00
    2   16    6      0.76      0.00
    3   16    6     -0.15      0.00
    4   16    6     -0.27      0.00
    5   16    6     -0.29      0.00
    6   16    6      0.43      0.00
    7   16    6      0.20      0.00
    8   16    6      0.23      0.00
    9   16    6      0.28      0.00
   10   16    6      0.36      0.00
   -5   17    6     -0.10      0.00
   -4   17    6      0.00      0.00
   -3   17    6      0.45      0.00
   -2   17    6      0.74      0.00
   -1   17    6      0.48      0.00
    0   17    6      0.50      0.00
    1   17    6      0.00      0.00
    2   17    6      0.02      0.00
    3   17    6      0.49      0.00
    4   17    6     -0.37      0.00
    5   17    6      0.04      0.00
    6   17    6      0.18      0.00
    7   17    6      0.86      0.00
    8   17    6      0.34      0.00
    9   17    6     -0.14      0.00
   -4   18    6     -0.04      0.00
   -3   18    6      0.38      0.00
   -2   18    6      0.50      0.00
   -1   18    6      0.47      0.00
    0   18    6     -0.22      0.00
    1   18    6     -0.19      0.00
    2   18    6      0.26      0.00
    3   18    6     -0.35      0.00
    4   18    6     -0.13      0.00
    5   18    6     -0.40      0.00
    6   18    6      0.72      0.00
    7   18    6      0.32      0.00
    8   18    6      0.01      0.00
   -3   19    6      0.01      0.00
   -2   19    6      0.63      0.00
   -1   19    6      0.35      0.00
    0   19    6     -0.32      0.00
    1   19    6     -0.36      0.00
    2   19    6     -0.03      0.00
    3   19    6      0.41      0.00
    4   19    6     -0.41      0.00
    5   19    6     -0.08      0.00
    6   19    6     -0.46      0.00
    7   19    6      0.34      0.00
   -1   20    6     -0.03      0.00
    0   20    6      0.03      0.00
    1   20    6      0.03      0.00
    2   20    6      0.03      0.00
    3   20    6     -0.22      0.00
    4   20    6      0.01      0.00
    5   20    6     -0.48      0.00
   -4  -18    7     -0.46      0.00
   -3  -18    7     -0.48      0.00
   -2  -18    7     -0.05      0.00
   -1  -18    7     -0.49      0.00
    0  -18    7     -0.45      0.00
    1  -18    7      0.17      0.00
    2  -18    7     -0.19      0.00
    3  -18    7      0.50      0.00
   -5  -17    7      0.32      0.00
   -4  -17    7     -0.56      0.00
   -3  -17    7     -0.36      0.00
   -2  -17    7     -0.53      0.00
   -1  -17    7     -0.15      0.00
    0  -17    7      0.48      0.00
    1  -17    7      0.34      0.00
    2  -17    7      0.11      0.00
    3  -17    7     -0.49      0.00
    4  -17    7      0.50      0.00
    5  -17    7      0.38      0.00
   -6  -16    7      0.19      0.00
   -5  -16    7      0.14      0.00
   -4  -16    7     -1.27      0.00
   -3  -16    7     -2.12      0.00
   -2  -16    7     -0.06      0.00
   -1  -16    7      0.74      0.00
    0  -16    7      0.33      0.00
    1  -16    7     -0.12      0.00
    2  -16    7     -0.34      0.00
    3  -16    7      0.51      0.00
    4  -16    7      0.20      0.00
    5  -16    7      0.97      0.00
    6  -16    7     -0.11      0.00
   -7  -15    7     -0.37      0.00
   -6  -15    7      0.62      0.00
   -5  -15    7     -0.36      0.00
   -4  -15    7     -1.54      0.00
   -3  -15    7     -0.37      0.00
   -2  -15    7     -0.24      0.00
   -1  -15    7     -0.24      0.00
    0  -15    7      0.15      0.00
    1  -15    7     -0.42      0.00
    2  -15    7     -1.15      0.00
    3  -15    7     -0.45      0.00
    4  -15    7      1.11      0.00
    5  -15    7      0.37      0.00
    6  -15    7      0.46      0.00
    7  -15    7     -0.53      0.00
   -8  -14    7     -0.26      0.00
   -7  -14    7     -0.08      0.00
   -6  -14    7     -0.25      0.00
   -5  -14    7     -0.49      0.00
   -4  -14    7     -0.82      0.00
   -3  -14    7     -0.88      0.00
   -2  -14    7      0.03      0.00
   -1  -14    7      0.49      0.00
    0  -14    7      0.14      0.00
    1  -14    7     -0.11      0.00
    2  -14    7     -0.06      0.00
    3  -14    7     -0.59      0.00
    4  -14    7     -0.38      0.00
    5  -14    7      0.36      0.00
    6  -14    7     -0.02      0.00
    7  -14    7     -0.06      0.00
    8  -14    7      0.02      0.00
   -9  -13    7      0.12      0.00
   -8  -13    7     -0.45      0.00
   -7  -13    7      0.21      0.00
   -6  -13    7      1.07      0.00
   -5  -13    7     -0.33      0.00
   -4  -13    7     -1.45      0.00
   -3  -13    7     -0.42      0.00
   -2  -13    7      0.31      0.00
   -1  -13    7      0.20      0.00
    0  -13    7      0.59      0.00
    1  -13    7     -0.17      0.00
    2  -13    7     -1.09      0.00
    3  -13    7      0.42      0.00
    4  -13    7      0.63      0.00
    5  -13    7      0.44      0.00
    6  -13    7     -0.35      0.00
    7  -13    7     -0.20      0.00
    8  -13    7      0.11      0.00
    9  -13    7      0.48      0.00
   -9  -12    7      0.01      0.00
   -8  -12    7      0.67      0.00
   -7  -12    7      0.42      0.00
   -6  -12    7      0.21      0.00
   -5  -12    7      0.20      0.00
   -4  -12    7     -0.69      0.00
   -3  -12    7     -0.69      0.00
   -2  -12    7      0.44      0.00
   -1  -12    7      1.39      0.00
    0  -12    7      0.52      0.00
    1  -12    7     -0.37      0.00
    2  -12    7     -0.36      0.00
    3  -12    7     -0.78      0.00
    4  -12    7      0.54      0.00
    5  -12    7      0.08      0.00
    6  -12    7     -0.10      0.00
    7  -12    7     -0.15      0.00
    8  -12    7      0.40      0.00
    9  -12    7      0.59      0.00
   10  -12    7      0.42      0.00
  -10  -11    7      0.53      0.00
   -9  -11    7      0.59      0.00
   -8  -11    7     -0.11      0.00
   -7  -11    7      0.49      0.00
   -6  -11    7      0.49      0.00
   -5  -11    7     -0.75      0.00
   -4  -11    7     -0.37      0.00
   -3  -11    7      0.32      0.00
   -2  -11    7      0.72      0.00
   -1  -11    7      1.05      0.00
    0  -11    7      0.96      0.00
    1  -11    7     -0.46      0.00
    2  -11    7     -1.16      0.00
    3  -11    7      0.34      0.00
    4  -11    7      0.29      0.00
    5  -11    7     -0.01      0.00
    6  -11    7     -0.24      0.00
    7  -11    7      0.25      0.00
    8  -11    7      0.66      0.00
    9  -11    7      0.37      0.00
   10  -11    7     -0.29      0.00
  -10  -10    7      0.50      0.00
   -9  -10    7      0.40      0.00
   -8  -10    7      0.17      0.00
   -7  -10    7      0.13      0.00
   -6  -10    7      0.21      0.00
   -5  -10    7     -0.33      0.00
   -4  -10    7     -1.25      0.00
   -3  -10    7      0.64      0.00
   -2  -10    7      2.26      0.00
   -1  -10    7      1.33      0.00
    0  -10    7     -0.45      0.00
    1  -10    7     -1.34      0.00
    2  -10    7     -1.06      0.00
    3  -10    7     -0.05      0.00
    4  -10    7      1.13      0.00
    5  -10    7      0.92      0.00
    6  -10    7     -0.22      0.00
    7  -10    7     -0.02      0.00
    8  -10    7      0.30      0.00
    9  -10    7     -0.13      0.00
   10  -10    7     -0.44      0.00
   11  -10    7      0.18      0.00
  -10   -9    7      0.33      0.00
   -9   -9    7     -0.43      0.00
   -8   -9    7      0.38      0.00
   -7   -9    7      0.15      0.00
   -6   -9    7     -0.48      0.00
   -5   -9    7     -0.56      0.00
   -4   -9    7      0.82      0.00
   -3   -9    7      1.20      0.00
   -2   -9    7      1.36      0.00
   -1   -9    7      0.90      0.00
    0   -9    7     -0.83      0.00
    1   -9    7     -1.98      0.00
    2   -9    7     -1.27      0.00
    3   -9    7      0.27      0.00
    4   -9    7      1.20      0.00
    5   -9    7      0.59      0.00
    6   -9    7     -0.13      0.00
    7   -9    7     -0.32      0.00
    8   -9    7     -0.11      0.00
    9   -9    7     -0.33      0.00
   10   -9    7     -0.10      0.00
   11   -9    7     -0.05      0.00
  -11   -8    7      0.63      0.00
  -10   -8    7     -0.06      0.00
   -9   -8    7      0.14      0.00
   -8   -8    7     -0.46      0.00
   -7   -8    7      0.35      0.00
   -6   -8    7      0.67      0.00
   -5   -8    7     -0.19      0.00
   -4   -8    7     -1.07      0.00
   -3   -8    7      1.40      0.00
   -2   -8    7      2.24      0.00
   -1   -8    7     -0.08      0.00
    0   -8    7     -1.97      0.00
    1   -8    7     -2.10      0.00
    2   -8    7     -1.04      0.00
    3   -8    7      0.65      0.00
    4   -8    7      1.63      0.00
    5   -8    7     -0.38      0.00
    6   -8    7     -1.54      0.00
    7   -8    7     -0.73      0.00
    8   -8    7     -0.22      0.00
    9   -8    7     -0.43      0.00
   10   -8    7     -0.24      0.00
   11   -8    7      0.57      0.00
   12   -8    7      0.70      0.00
  -11   -7    7      0.30      0.00
  -10   -7    7      0.03      0.00
   -9   -7    7     -0.21      0.00
   -8   -7    7      0.81      0.00
   -7   -7    7      0.39      0.00
   -6   -7    7      0.07      0.00
   -5   -7    7     -0.08      0.00
   -4   -7    7      1.28      0.00
   -3   -7    7      0.78      0.00
   -2   -7    7     -0.32      0.00
   -1   -7    7     -1.86      0.00
    0   -7    7     -2.47      0.00
    1   -7    7     -1.81      0.00
    2   -7    7     -0.59      0.00
    3   -7    7      1.58      0.00
    4   -7    7      0.64      0.00
    5   -7    7     -0.64      0.00
    6   -7    7     -2.21      0.00
    7   -7    7     -1.35      0.00
    8   -7    7     -0.59      0.00
    9   -7    7     -0.51      0.00
   10   -7    7     -0.36      0.00
   11   -7    7      0.46      0.00
   12   -7    7      0.63      0.00
  -11   -6    7     -0.45      0.00
  -10   -6    7     -0.41      0.00
   -9   -6    7      0.39      0.00
   -8   -6    7      0.56      0.00
   -7   -6    7      1.04      0.00
   -6   -6    7      0.54      0.00
   -5   -6    7     -0.92      0.00
   -4   -6    7     -1.09      0.00
   -3   -6    7      2.21      0.00
   -2   -6    7      0.28      0.00
   -1   -6    7     -3.16      0.00
    0   -6    7     -2.99      0.00
    1   -6    7     -0.94      0.00
    2   -6    7      0.73      0.00
    3   -6    7      0.30      0.00
    4   -6    7      1.10      0.00
    5   -6    7     -2.02      0.00
    6   -6    7     -3.09      0.00
    7   -6    7     -1.99      0.00
    8   -6    7      0.08      0.00
    9   -6    7     -0.18      0.00
   10   -6    7      0.08      0.00
   11   -6    7      0.13      0.00
   12   -6    7     -0.34      0.00
   13   -6    7     -0.47      0.00
  -11   -5    7      0.13      0.00
  -10   -5    7     -0.42      0.00
   -9   -5    7     -0.13      0.00
   -8   -5    7      0.53      0.00
   -7   -5    7      0.46      0.00
   -6   -5    7     -0.82      0.00
   -5   -5    7     -0.97      0.00
   -4   -5    7      1.18      0.00
   -3   -5    7      0.40      0.00
   -2   -5    7     -0.52      0.00
   -1   -5    7     -2.27      0.00
    0   -5    7     -1.31      0.00
    1   -5    7      0.55      0.00
    2   -5    7     -0.14      0.00
    3   -5    7      1.21      0.00
    4   -5    7     -0.48      0.00
    5   -5    7     -2.29      0.00
    6   -5    7     -3.58      0.00
    7   -5    7     -0.97      0.00
    8   -5    7     -0.46      0.00
    9   -5    7     -0.31      0.00
   10   -5    7     -0.36      0.00
   11   -5    7      0.30      0.00
   12   -5    7     -0.26      0.00
   13   -5    7     -0.87      0.00
  -11   -4    7     -0.55      0.00
  -10   -4    7      0.04      0.00
   -9   -4    7      0.47      0.00
   -8   -4    7      0.66      0.00
   -7   -4    7     -0.25      0.00
   -6   -4    7     -0.78      0.00
   -5   -4    7     -1.24      0.00
   -4   -4    7      0.17      0.00
   -3   -4    7      2.21      0.00
   -2   -4    7     -1.96      0.00
   -1   -4    7     -2.21      0.00
    0   -4    7      0.90      0.00
    1   -4    7      0.49      0.00
    2   -4    7     -0.71      0.00
    3   -4    7     -1.36      0.00
    4   -4    7     -0.20      0.00
    5   -4    7     -3.36      0.00
    6   -4    7     -2.72      0.00
    7   -4    7     -0.69      0.00
    8   -4    7      0.48      0.00
    9   -4    7     -1.19      0.00
   10   -4    7     -0.50      0.00
   11   -4    7     -0.15      0.00
   12   -4    7     -0.46      0.00
   13   -4    7     -0.69      0.00
  -12   -3    7     -0.26      0.00
  -11   -3    7      0.94      0.00
  -10   -3    7      0.55      0.00
   -9   -3    7      0.51      0.00
   -8   -3    7     -0.02      0.00
   -7   -3    7      0.34      0.00
   -6   -3    7     -1.04      0.00
   -5   -3    7     -1.02      0.00
   -4   -3    7      1.17      0.00
   -3   -3    7      0.47      0.00
   -2   -3    7     -0.80      0.00
   -1   -3    7     -2.52      0.00
    0   -3    7     -1.05      0.00
    1   -3    7     -0.18      0.00
    2   -3    7     -2.71      0.00
    3   -3    7     -1.77      0.00
    4   -3    7     -3.74      0.00
    5   -3    7     -3.19      0.00
    6   -3    7     -2.27      0.00
    7   -3    7      0.57      0.00
    8   -3    7     -0.01      0.00
    9   -3    7     -0.55      0.00
   10   -3    7     -1.34      0.00
   11   -3    7     -0.74      0.00
   12   -3    7     -0.65      0.00
   13   -3    7     -0.35      0.00
  -12   -2    7      0.35      0.00
  -11   -2    7      0.31      0.00
  -10   -2    7      0.89      0.00
   -9   -2    7      0.07      0.00
   -8   -2    7      0.12      0.00
   -7   -2    7     -0.81      0.00
   -6   -2    7     -0.94      0.00
   -5   -2    7      0.11      0.00
   -4   -2    7      1.93      0.00
   -3   -2    7      1.14      0.00
   -2   -2    7     -4.78      0.00
   -1   -2    7     -3.94      0.00
    0   -2    7      0.11      0.00
    1   -2    7     -2.61      0.00
    2   -2    7     -4.62      0.00
    3   -2    7     -4.84      0.00
    4   -2    7     -0.95      0.00
    5   -2    7     -3.69      0.00
    6   -2    7     -2.38      0.00
    7   -2    7     -0.79      0.00
    8   -2    7      0.17      0.00
    9   -2    7     -1.42      0.00
   10   -2    7     -0.85      0.00
   11   -2    7     -0.55      0.00
   12   -2    7     -0.64      0.00
   13   -2    7     -0.53      0.00
   14   -2    7      0.44      0.00
  -12   -1    7      0.69      0.00
  -11   -1    7      0.61      0.00
  -10   -1    7     -0.28      0.00
   -9   -1    7      0.36      0.00
   -8   -1    7      0.07      0.00
   -7   -1    7     -0.06      0.00
   -6   -1    7     -0.90      0.00
   -5   -1    7     -0.05      0.00
   -4   -1    7      2.02      0.00
   -3   -1    7     -1.09      0.00
   -2   -1    7     -4.34      0.00
   -1   -1    7     -4.84      0.00
    0   -1    7     -3.22      0.00
    1   -1    7     -1.84      0.00
    2   -1    7     -4.97      0.00
    3   -1    7     -1.89      0.00
    4   -1    7     -3.85      0.00
    5   -1    7     -2.70      0.00
    6   -1    7     -2.69      0.00
    7   -1    7     -0.63      0.00
    8   -1    7     -2.28      0.00
    9   -1    7     -1.80      0.00
   10   -1    7     -0.69      0.00
   11   -1    7     -0.11      0.00
   12   -1    7     -0.64      0.00
   13   -1    7     -0.14      0.00
   14   -1    7     -0.17      0.00
  -12    0    7     -0.35      0.00
  -11    0    7      0.60      0.00
  -10    0    7      0.59      0.00
   -9    0    7     -0.62      0.00
   -8    0    7     -0.08      0.00
   -7    0    7     -0.02      0.00
   -6    0    7     -0.50      0.00
   -5    0    7      0.30      0.00
   -4    0    7      0.57      0.00
   -3    0    7     -1.33      0.00
   -2    0    7     -6.17      0.00
   -1    0    7     -3.76      0.00
    0    0    7      0.65      0.00
    1    0    7     -4.54      0.00
    2    0    7     -4.19      0.00
    3    0    7     -4.33      0.00
    4    0    7     -2.40      0.00
    5    0    7     -4.31      0.00
    6    0    7     -0.89      0.00
    7    0    7     -1.82      0.00
    8    0    7     -2.35      0.00
    9    0    7     -2.81      0.00
   10    0    7     -1.26      0.00
   11    0    7     -0.69      0.00
   12    0    7      0.00      0.00
   13    0    7      0.08      0.00
   14    0    7     -0.13      0.00
  -12    1    7      1.26      0.00
  -11    1    7      0.20      0.00
  -10    1    7     -0.52      0.00
   -9    1    7      0.04      0.00
   -8    1    7      0.12      0.00
   -7    1    7     -0.39      0.00
   -6    1    7     -0.50      0.00
   -5    1    7      0.18      0.00
   -4    1    7      0.09      0.00
   -3    1    7     -5.09      0.00
   -2    1    7     -6.01      0.00
   -1    1    7     -1.37      0.00
    0    1    7      0.66      0.00
    1    1    7     -1.01      0.00
    2    1    7     -7.68      0.00
    3    1    7     -5.53      0.00
    4    1    7     -4.99      0.00
    5    1    7     -2.99      0.00
    6    1    7     -4.14      0.00
    7    1    7     -2.71      0.00
    8    1    7     -3.13      0.00
    9    1    7     -1.34      0.00
   10    1    7     -1.22      0.00
   11    1    7     -0.80      0.00
   12    1    7     -0.54      0.00
   13    1    7      0.05      0.00
   14    1    7      0.03      0.00
  -11    2    7      0.12      0.00
  -10    2    7      0.31      0.00
   -9    2    7      0.58      0.00
   -8    2    7      0.14      0.00
   -7    2    7     -0.45      0.00
   -6    2    7     -0.43      0.00
   -5    2    7      0.11      0.00
   -4    2    7     -1.32      0.00
   -3    2    7     -3.96      0.00
   -2    2    7     -6.23      0.00
   -1    2    7     -1.58      0.00
    0    2    7      2.62      0.00
    1    2    7     -2.81      0.00
    2    2    7     -5.70      0.00
    3    2    7     -7.99      0.00
    4    2    7     -6.23      0.00
    5    2    7     -4.98      0.00
    6    2    7     -2.98      0.00
    7    2    7     -5.00      0.00
    8    2    7     -3.02      0.00
    9    2    7     -1.83      0.00
   10    2    7     -0.36      0.00
   11    2    7     -0.73      0.00
   12    2    7     -0.64      0.00
   13    2    7     -0.09      0.00
   14    2    7     -0.15      0.00
  -11    3    7     -0.45      0.00
  -10    3    7      0.09      0.00
   -9    3    7      0.22      0.00
   -8    3    7     -0.50      0.00
   -7    3    7     -0.76      0.00
   -6    3    7     -0.41      0.00
   -5    3    7     -0.35      0.00
   -4    3    7     -1.32      0.00
   -3    3    7     -4.21      0.00
   -2    3    7     -2.36      0.00
   -1    3    7      1.69      0.00
    0    3    7      0.17      0.00
    1    3    7     -4.49      0.00
    2    3    7     -7.22      0.00
    3    3    7     -5.42      0.00
    4    3    7     -5.79      0.00
    5    3    7     -4.17      0.00
    6    3    7     -3.90      0.00
    7    3    7     -2.41      0.00
    8    3    7     -3.18      0.00
    9    3    7     -0.93      0.00
   10    3    7     -0.12      0.00
   11    3    7      0.04      0.00
   12    3    7      0.10      0.00
   13    3    7     -0.28      0.00
   14    3    7     -0.30      0.00
  -11    4    7      0.19      0.00
  -10    4    7      0.62      0.00
   -9    4    7      0.26      0.00
   -8    4    7     -0.72      0.00
   -7    4    7     -1.30      0.00
   -6    4    7     -0.58      0.00
   -5    4    7     -0.34      0.00
   -4    4    7     -1.80      0.00
   -3    4    7     -2.59      0.00
   -2    4    7     -1.48      0.00
   -1    4    7      2.71      0.00
    0    4    7      2.43      0.00
    1    4    7     -4.98      0.00
    2    4    7     -9.00      0.00
    3    4    7     -6.75      0.00
    4    4    7     -1.10      0.00
    5    4    7     -1.09      0.00
    6    4    7     -2.43      0.00
    7    4    7     -4.15      0.00
    8    4    7     -0.48      0.00
    9    4    7      0.48      0.00
   10    4    7     -0.16      0.00
   11    4    7     -0.37      0.00
   12    4    7     -0.54      0.00
   13    4    7      0.63      0.00
   14    4    7      0.71      0.00
  -11    5    7     -0.59      0.00
  -10    5    7      0.49      0.00
   -9    5    7      0.67      0.00
   -8    5    7     -1.25      0.00
   -7    5    7     -0.82      0.00
   -6    5    7      0.11      0.00
   -5    5    7     -0.63      0.00
   -4    5    7     -1.02      0.00
   -3    5    7     -1.85      0.00
   -2    5    7     -0.19      0.00
   -1    5    7      1.99      0.00
    0    5    7     -0.19      0.00
    1    5    7     -4.01      0.00
    2    5    7     -5.81      0.00
    3    5    7     -3.62      0.00
    4    5    7     -2.35      0.00
    5    5    7      1.34      0.00
    6    5    7      0.31      0.00
    7    5    7     -0.47      0.00
    8    5    7     -1.85      0.00
    9    5    7     -0.42      0.00
   10    5    7      1.06      0.00
   11    5    7      0.28      0.00
   12    5    7      0.38      0.00
   13    5    7     -0.18      0.00
   14    5    7     -0.35      0.00
  -11    6    7      0.34      0.00
  -10    6    7      0.87      0.00
   -9    6    7     -0.35      0.00
   -8    6    7     -0.85      0.00
   -7    6    7     -0.05      0.00
   -6    6    7      0.37      0.00
   -5    6    7      0.11      0.00
   -4    6    7     -1.16      0.00
   -3    6    7     -1.30      0.00
   -2    6    7      0.23      0.00
   -1    6    7      2.16      0.00
    0    6    7     -0.36      0.00
    1    6    7     -5.73      0.00
    2    6    7     -3.93      0.00
    3    6    7     -0.84      0.00
    4    6    7      3.22      0.00
    5    6    7      1.33      0.00
    6    6    7     -0.14      0.00
    7    6    7     -1.42      0.00
    8    6    7     -0.18      0.00
    9    6    7      0.23      0.00
   10    6    7      0.29      0.00
   11    6    7      0.90      0.00
   12    6    7     -0.02      0.00
   13    6    7      0.54      0.00
   14    6    7      1.10      0.00
  -10    7    7      0.35      0.00
   -9    7    7     -0.29      0.00
   -8    7    7     -0.92      0.00
   -7    7    7      0.03      0.00
   -6    7    7      1.45      0.00
   -5    7    7      0.46      0.00
   -4    7    7     -0.43      0.00
   -3    7    7     -1.03      0.00
   -2    7    7      0.07      0.00
   -1    7    7      1.34      0.00
    0    7    7     -0.20      0.00
    1    7    7     -1.21      0.00
    2    7    7     -2.50      0.00
    3    7    7      1.78      0.00
    4    7    7      3.75      0.00
    5    7    7      3.67      0.00
    6    7    7     -0.87      0.00
    7    7    7     -2.44      0.00
    8    7    7     -1.09      0.00
    9    7    7      1.35      0.00
   10    7    7      1.66      0.00
   11    7    7     -0.02      0.00
   12    7    7     -0.09      0.00
   13    7    7      0.49      0.00
   14    7    7      0.15      0.00
  -10    8    7      0.19      0.00
   -9    8    7      0.35      0.00
   -8    8    7     -0.90      0.00
   -7    8    7      0.24      0.00
   -6    8    7      0.62      0.00
   -5    8    7      0.29      0.00
   -4    8    7     -0.41      0.00
   -3    8    7     -0.63      0.00
   -2    8    7      0.48      0.00
   -1    8    7      1.80      0.00
    0    8    7      1.47      0.00
    1    8    7     -0.88      0.00
    2    8    7      1.71      0.00
    3    8    7      3.25      0.00
    4    8    7      3.41      0.00
    5    8    7      0.51      0.00
    6    8    7     -0.79      0.00
    7    8    7     -1.23      0.00
    8    8    7      0.14      0.00
    9    8    7      1.14      0.00
   10    8    7      1.36      0.00
   11    8    7      0.53      0.00
   12    8    7      0.22      0.00
   13    8    7      0.35      0.00
  -10    9    7      0.75      0.00
   -9    9    7     -0.05      0.00
   -8    9    7      0.20      0.00
   -7    9    7      0.62      0.00
   -6    9    7      0.80      0.00
   -5    9    7     -0.62      0.00
   -4    9    7     -0.93      0.00
   -3    9    7      0.16      0.00
   -2    9    7      1.43      0.00
   -1    9    7      2.62      0.00
    0    9    7      0.88      0.00
    1    9    7      0.38      0.00
    2    9    7      1.34      0.00
    3    9    7      3.07      0.00
    4    9    7      2.90      0.00
    5    9    7      0.41      0.00
    6    9    7     -2.32      0.00
    7    9    7     -0.37      0.00
    8    9    7      0.95      0.00
    9    9    7      0.95      0.00
   10    9    7      0.52      0.00
   11    9    7      0.60      0.00
   12    9    7      0.29      0.00
   13    9    7     -0.12      0.00
   -9   10    7      0.31      0.00
   -8   10    7      0.06      0.00
   -7   10    7      1.28      0.00
   -6   10    7      0.94      0.00
   -5   10    7     -0.36      0.00
   -4   10    7     -1.02      0.00
   -3   10    7     -0.51      0.00
   -2   10    7      2.09      0.00
   -1   10    7      3.08      0.00
    0   10    7      2.10      0.00
    1   10    7     -0.01      0.00
    2   10    7     -0.18      0.00
    3   10    7      1.64      0.00
    4   10    7      1.38      0.00
    5   10    7     -0.23      0.00
    6   10    7     -0.26      0.00
    7   10    7     -0.66      0.00
    8   10    7      0.57      0.00
    9   10    7      1.45      0.00
   10   10    7      1.53      0.00
   11   10    7      0.85      0.00
   12   10    7     -0.41      0.00
   13   10    7     -0.54      0.00
   -9   11    7      0.44      0.00
   -8   11    7     -0.50      0.00
   -7   11    7      0.15      0.00
   -6   11    7      0.49      0.00
   -5   11    7     -0.38      0.00
   -4   11    7     -0.29      0.00
   -3   11    7      0.72      0.00
   -2   11    7      1.24      0.00
   -1   11    7      1.96      0.00
    0   11    7      1.11      0.00
    1   11    7      0.21      0.00
    2   11    7      0.15      0.00
    3   11    7      0.30      0.00
    4   11    7      0.78      0.00
    5   11    7      0.05      0.00
    6   11    7     -0.80      0.00
    7   11    7      0.38      0.00
    8   11    7      0.67      0.00
    9   11    7      0.97      0.00
   10   11    7      1.24      0.00
   11   11    7     -0.24      0.00
   12   11    7     -0.14      0.00
   13   11    7      0.07      0.00
   -8   12    7      0.56      0.00
   -7   12    7      0.58      0.00
   -6   12    7     -0.18      0.00
   -5   12    7     -0.71      0.00
   -4   12    7     -0.23      0.00
   -3   12    7      0.82      0.00
   -2   12    7      1.45      0.00
   -1   12    7      0.99      0.00
    0   12    7      0.00      0.00
    1   12    7     -1.01      0.00
    2   12    7      0.11      0.00
    3   12    7      1.37      0.00
    4   12    7      0.81      0.00
    5   12    7     -0.42      0.00
    6   12    7     -0.62      0.00
    7   12    7      0.47      0.00
    8   12    7      1.30      0.00
    9   12    7      1.21      0.00
   10   12    7     -0.18      0.00
   11   12    7     -0.16      0.00
   12   12    7     -0.77      0.00
   -8   13    7     -0.47      0.00
   -7   13    7      0.56      0.00
   -6   13    7      0.80      0.00
   -5   13    7      0.17      0.00
   -4   13    7      0.18      0.00
   -3   13    7      0.10      0.00
   -2   13    7      0.88      0.00
   -1   13    7      0.93      0.00
    0   13    7     -0.67      0.00
    1   13    7     -0.83      0.00
    2   13    7     -0.03      0.00
    3   13    7      1.58      0.00
    4   13    7      1.47      0.00
    5   13    7     -0.26      0.00
    6   13    7     -0.20      0.00
    7   13    7      0.25      0.00
    8   13    7      0.56      0.00
    9   13    7     -0.12      0.00
   10   13    7      0.52      0.00
   11   13    7     -0.01      0.00
   12   13    7      0.00      0.00
   -7   14    7      0.72      0.00
   -6   14    7      0.55      0.00
   -5   14    7      0.03      0.00
   -4   14    7     -0.37      0.00
   -3   14    7      0.40      0.00
   -2   14    7      0.63      0.00
   -1   14    7      0.07      0.00
    0   14    7     -0.11      0.00
    1   14    7     -0.16      0.00
    2   14    7      0.52      0.00
    3   14    7      1.25      0.00
    4   14    7      1.11      0.00
    5   14    7      0.22      0.00
    6   14    7     -0.52      0.00
    7   14    7      0.52      0.00
    8   14    7      0.39      0.00
    9   14    7      0.40      0.00
   10   14    7     -0.37      0.00
   11   14    7     -0.14      0.00
   -6   15    7      0.47      0.00
   -5   15    7      0.09      0.00
   -4   15    7      0.02      0.00
   -3   15    7      0.03      0.00
   -2   15    7      0.13      0.00
   -1   15    7      0.13      0.00
    0   15    7      0.20      0.00
    1   15    7      0.25      0.00
    2   15    7      1.02      0.00
    3   15    7      1.30      0.00
    4   15    7      0.61      0.00
    5   15    7     -0.29      0.00
    6   15    7     -0.10      0.00
    7   15    7      0.00      0.00
    8   15    7      0.18      0.00
    9   15    7      0.11      0.00
   10   15    7      0.48      0.00
   11   15    7     -0.20      0.00
   -6   16    7      0.21      0.00
   -5   16    7     -0.38      0.00
   -4   16    7     -0.27      0.00
   -3   16    7      0.28      0.00
   -2   16    7      0.35      0.00
   -1   16    7      0.23      0.00
    0   16    7      0.35      0.00
    1   16    7      0.93      0.00
    2   16    7      0.42      0.00
    3   16    7      0.67      0.00
    4   16    7      0.42      0.00
    5   16    7     -0.70      0.00
    6   16    7     -0.26      0.00
    7   16    7      0.57      0.00
    8   16    7      0.73      0.00
    9   16    7      0.30      0.00
   10   16    7     -0.28      0.00
   -5   17    7     -0.02      0.00
   -4   17    7     -0.27      0.00
   -3   17    7     -0.17      0.00
   -2   17    7      0.33      0.00
   -1   17    7      0.46      0.00
    0   17    7      0.65      0.00
    1   17    7      0.15      0.00
    2   17    7      0.26      0.00
    3   17    7      0.29      0.00
    4   17    7     -0.44      0.00
    5   17    7     -0.33      0.00
    6   17    7     -0.27      0.00
    7   17    7      0.65      0.00
    8   17    7      0.44      0.00
    9   17    7      0.25      0.00
   -4   18    7     -0.27      0.00
   -3   18    7      0.17      0.00
   -2   18    7     -0.17      0.00
   -1   18    7      0.25      0.00
    0   18    7      0.68      0.00
    1   18    7     -0.09      0.00
    2   18    7     -0.43      0.00
    3   18    7     -0.18      0.00
    4   18    7      0.08      0.00
    5   18    7     -0.46      0.00
    6   18    7      0.28      0.00
    7   18    7     -0.10      0.00
    8   18    7      0.52      0.00
   -2   19    7      0.15      0.00
   -1   19    7      0.01      0.00
    0   19    7     -0.27      0.00
    1   19    7      0.06      0.00
    2   19    7     -0.31      0.00
    3   19    7     -0.21      0.00
    4   19    7     -0.22      0.00
    5   19    7     -0.21      0.00
    6   19    7     -0.89      0.00
    7   19    7      0.55      0.00
    0   20    7      0.45      0.00
    1   20    7     -0.52      0.00
    2   20    7     -0.43      0.00
    3   20    7      0.22      0.00
    4   20    7      0.01      0.00
    5   20    7     -0.68      0.00
   -2  -18    8     -0.19      0.00
   -1  -18    8     -0.52      0.00
    0  -18    8     -0.72      0.00
    1  -18    8      0.13      0.00
    2  -18    8      0.15      0.00
   -4  -17    8      0.94      0.00
   -3  -17    8     -0.74      0.00
   -2  -17    8     -1.39      0.00
   -1  -17    8     -0.72      0.00
    0  -17    8      0.30      0.00
    1  -17    8      0.32      0.00
    2  -17    8     -0.06      0.00
    3  -17    8     -0.51      0.00
    4  -17    8      0.28      0.00
   -6  -16    8      0.11      0.00
   -5  -16    8      0.69      0.00
   -4  -16    8     -0.67      0.00
   -3  -16    8     -0.67      0.00
   -2  -16    8     -0.06      0.00
   -1  -16    8     -0.38      0.00
    0  -16    8     -0.34      0.00
    1  -16    8      0.72      0.00
    2  -16    8     -0.11      0.00
    3  -16    8     -0.89      0.00
    4  -16    8     -0.53      0.00
    5  -16    8      0.87      0.00
    6  -16    8      0.49      0.00
   -7  -15    8     -0.02      0.00
   -6  -15    8      0.23      0.00
   -5  -15    8     -0.11      0.00
   -4  -15    8     -0.38      0.00
   -3  -15    8     -1.29      0.00
   -2  -15    8     -1.13      0.00
   -1  -15    8     -0.29      0.00
    0  -15    8      0.55      0.00
    1  -15    8      0.18      0.00
    2  -15    8     -0.05      0.00
    3  -15    8     -0.10      0.00
    4  -15    8     -0.08      0.00
    5  -15    8     -0.05      0.00
    6  -15    8      0.58      0.00
    7  -15    8     -0.03      0.00
   -7  -14    8     -0.29      0.00
   -6  -14    8      0.16      0.00
   -5  -14    8      0.83      0.00
   -4  -14    8     -0.44      0.00
   -3  -14    8     -0.97      0.00
   -2  -14    8     -0.77      0.00
   -1  -14    8     -0.43      0.00
    0  -14    8      0.06      0.00
    1  -14    8      0.65      0.00
    2  -14    8     -0.62      0.00
    3  -14    8     -1.11      0.00
    4  -14    8      0.18      0.00
    5  -14    8      0.69      0.00
    6  -14    8      0.66      0.00
    7  -14    8      0.03      0.00
    8  -14    8     -0.11      0.00
   -8  -13    8     -0.14      0.00
   -7  -13    8      0.11      0.00
   -6  -13    8      0.12      0.00
   -5  -13    8      0.11      0.00
   -4  -13    8      0.38      0.00
   -3  -13    8     -0.49      0.00
   -2  -13    8     -0.83      0.00
   -1  -13    8     -0.28      0.00
    0  -13    8      0.98      0.00
    1  -13    8      0.41      0.00
    2  -13    8      0.10      0.00
    3  -13    8     -0.16      0.00
    4  -13    8     -0.64      0.00
    5  -13    8      0.59      0.00
    6  -13    8     -0.03      0.00
    7  -13    8     -0.02      0.00
    8  -13    8     -0.51      0.00
    9  -13    8      0.13      0.00
   -9  -12    8      0.48      0.00
   -8  -12    8      0.25      0.00
   -7  -12    8     -0.55      0.00
   -6  -12    8      0.44      0.00
   -5  -12    8      0.94      0.00
   -4  -12    8     -0.56      0.00
   -3  -12    8     -0.52      0.00
   -2  -12    8     -0.59      0.00
   -1  -12    8     -0.18      0.00
    0  -12    8      0.43      0.00
    1  -12    8      1.43      0.00
    2  -12    8      0.11      0.00
    3  -12    8     -0.74      0.00
    4  -12    8      0.26      0.00
    5  -12    8      0.14      0.00
    6  -12    8      0.23      0.00
    7  -12    8     -1.20      0.00
    8  -12    8      0.23      0.00
    9  -12    8      0.54      0.00
   10  -12    8      0.29      0.00
   -9  -11    8      0.95      0.00
   -8  -11    8      0.18      0.00
   -7  -11    8      0.12      0.00
   -6  -11    8      0.71      0.00
   -5  -11    8      0.67      0.00
   -4  -11    8      0.06      0.00
   -3  -11    8     -1.73      0.00
   -2  -11    8     -0.67      0.00
   -1  -11    8      0.79      0.00
    0  -11    8      1.79      0.00
    1  -11    8      0.59      0.00
    2  -11    8     -0.50      0.00
    3  -11    8     -1.54      0.00
    4  -11    8     -0.91      0.00
    5  -11    8      0.72      0.00
    6  -11    8     -0.07      0.00
    7  -11    8     -0.53      0.00
    8  -11    8     -0.38      0.00
    9  -11    8      0.79      0.00
   10  -11    8     -0.10      0.00
  -10  -10    8      1.16      0.00
   -9  -10    8      0.47      0.00
   -8  -10    8     -0.34      0.00
   -7  -10    8      0.21      0.00
   -6  -10    8      0.41      0.00
   -5  -10    8      0.28      0.00
   -4  -10    8     -0.74      0.00
   -3  -10    8      0.00      0.00
   -2  -10    8     -0.47      0.00
   -1  -10    8      0.57      0.00
    0  -10    8      1.44      0.00
    1  -10    8      1.15      0.00
    2  -10    8     -0.99      0.00
    3  -10    8     -1.78      0.00
    4  -10    8     -0.94      0.00
    5  -10    8      0.59      0.00
    6  -10    8     -0.53      0.00
    7  -10    8     -0.65      0.00
    8  -10    8      0.71      0.00
    9  -10    8      0.19      0.00
   10  -10    8      0.20      0.00
   11  -10    8     -0.10      0.00
  -10   -9    8      0.88      0.00
   -9   -9    8      0.61      0.00
   -8   -9    8     -0.28      0.00
   -7   -9    8     -1.12      0.00
   -6   -9    8      0.62      0.00
   -5   -9    8      0.30      0.00
   -4   -9    8     -0.42      0.00
   -3   -9    8     -1.44      0.00
   -2   -9    8      0.12      0.00
   -1   -9    8      1.09      0.00
    0   -9    8      1.40      0.00
    1   -9    8      0.33      0.00
    2   -9    8     -1.80      0.00
    3   -9    8     -2.85      0.00
    4   -9    8      0.34      0.00
    5   -9    8      0.89      0.00
    6   -9    8     -0.10      0.00
    7   -9    8     -1.23      0.00
    8   -9    8      0.08      0.00
    9   -9    8      0.80      0.00
   10   -9    8     -0.48      0.00
   11   -9    8     -0.35      0.00
  -10   -8    8      1.47      0.00
   -9   -8    8      0.26      0.00
   -8   -8    8     -1.16      0.00
   -7   -8    8      0.30      0.00
   -6   -8    8      0.00      0.00
   -5   -8    8      0.12      0.00
   -4   -8    8     -0.16      0.00
   -3   -8    8      0.36      0.00
   -2   -8    8     -0.32      0.00
   -1   -8    8      0.21      0.00
    0   -8    8      0.86      0.00
    1   -8    8     -0.75      0.00
    2   -8    8     -3.39      0.00
    3   -8    8     -2.42      0.00
    4   -8    8      0.14      0.00
    5   -8    8      1.82      0.00
    6   -8    8     -0.76      0.00
    7   -8    8     -1.07      0.00
    8   -8    8     -0.47      0.00
    9   -8    8     -0.20      0.00
   10   -8    8     -0.22      0.00
   11   -8    8     -0.56      0.00
   12   -8    8      0.03      0.00
  -11   -7    8      0.73      0.00
  -10   -7    8      0.09      0.00
   -9   -7    8     -0.48      0.00
   -8   -7    8     -0.37      0.00
   -7   -7    8     -0.19      0.00
   -6   -7    8      1.47      0.00
   -5   -7    8      0.78      0.00
   -4   -7    8     -0.63      0.00
   -3   -7    8     -1.59      0.00
   -2   -7    8      0.13      0.00
   -1   -7    8      1.29      0.00
    0   -7    8     -0.01      0.00
    1   -7    8     -2.15      0.00
    2   -7    8     -3.61      0.00
    3   -7    8     -3.30      0.00
    4   -7    8      0.76      0.00
    5   -7    8      2.20      0.00
    6   -7    8     -0.47      0.00
    7   -7    8     -2.87      0.00
    8   -7    8     -1.15      0.00
    9   -7    8     -0.04      0.00
   10   -7    8     -0.45      0.00
   11   -7    8      0.13      0.00
   12   -7    8      0.43      0.00
  -11   -6    8      0.13      0.00
  -10   -6    8      0.78      0.00
   -9   -6    8     -0.66      0.00
   -8   -6    8     -1.01      0.00
   -7   -6    8      0.87      0.00
   -6   -6    8      0.79      0.00
   -5   -6    8     -0.14      0.00
   -4   -6    8     -0.45      0.00
   -3   -6    8     -0.43      0.00
   -2   -6    8     -0.90      0.00
   -1   -6    8     -0.49      0.00
    0   -6    8      0.14      0.00
    1   -6    8     -1.36      0.00
    2   -6    8     -4.48      0.00
    3   -6    8     -2.44      0.00
    4   -6    8      2.25      0.00
    5   -6    8      1.59      0.00
    6   -6    8     -2.18      0.00
    7   -6    8     -2.55      0.00
    8   -6    8     -0.77      0.00
    9   -6    8     -0.38      0.00
   10   -6    8     -0.44      0.00
   11   -6    8     -0.39      0.00
   12   -6    8      0.65      0.00
  -11   -5    8      0.09      0.00
  -10   -5    8     -0.91      0.00
   -9   -5    8     -0.73      0.00
   -8   -5    8     -0.28      0.00
   -7   -5    8      0.50      0.00
   -6   -5    8      0.98      0.00
   -5   -5    8      0.17      0.00
   -4   -5    8     -1.60      0.00
   -3   -5    8     -1.38      0.00
   -2   -5    8     -0.15      0.00
   -1   -5    8      0.08      0.00
    0   -5    8     -0.01      0.00
    1   -5    8     -1.59      0.00
    2   -5    8     -3.16      0.00
    3   -5    8     -1.82      0.00
    4   -5    8      2.43      0.00
    5   -5    8      1.97      0.00
    6   -5    8     -3.31      0.00
    7   -5    8     -3.32      0.00
    8   -5    8     -0.46      0.00
    9   -5    8      0.88      0.00
   10   -5    8     -0.65      0.00
   11   -5    8     -0.28      0.00
   12   -5    8      0.59      0.00
   13   -5    8      0.08      0.00
  -11   -4    8     -0.60      0.00
  -10   -4    8      0.51      0.00
   -9   -4    8     -0.43      0.00
   -8   -4    8     -0.26      0.00
   -7   -4    8      0.57      0.00
   -6   -4    8      0.41      0.00
   -5   -4    8     -0.79      0.00
   -4   -4    8     -0.79      0.00
   -3   -4    8     -1.22      0.00
   -2   -4    8     -0.38      0.00
   -1   -4    8      0.83      0.00
    0   -4    8      0.71      0.00
    1   -4    8     -1.32      0.00
    2   -4    8     -4.20      0.00
    3   -4    8     -0.55      0.00
    4   -4    8      3.08      0.00
    5   -4    8     -0.56      0.00
    6   -4    8     -3.85      0.00
    7   -4    8     -3.62      0.00
    8   -4    8      0.47      0.00
    9   -4    8      0.75      0.00
   10   -4    8      0.27      0.00
   11   -4    8     -0.34      0.00
   12   -4    8     -0.18      0.00
   13   -4    8     -0.23      0.00
  -11   -3    8      0.30      0.00
  -10   -3    8     -0.02      0.00
   -9   -3    8      0.34      0.00
   -8   -3    8      0.33      0.00
   -7   -3    8      0.58      0.00
   -6   -3    8     -0.41      0.00
   -5   -3    8     -1.19      0.00
   -4   -3    8     -1.57      0.00
   -3   -3    8      0.53      0.00
   -2   -3    8      0.58      0.00
   -1   -3    8     -0.35      0.00
    0   -3    8     -0.04      0.00
    1   -3    8     -2.14      0.00
    2   -3    8     -4.31      0.00
    3   -3    8     -2.71      0.00
    4   -3    8      1.53      0.00
    5   -3    8      0.54      0.00
    6   -3    8     -5.10      0.00
    7   -3    8     -2.47      0.00
    8   -3    8      0.18      0.00
    9   -3    8      0.86      0.00
   10   -3    8     -1.08      0.00
   11   -3    8     -0.43      0.00
   12   -3    8      0.13      0.00
   13   -3    8     -0.77      0.00
  -11   -2    8      0.76      0.00
  -10   -2    8      0.64      0.00
   -9   -2    8     -0.39      0.00
   -8   -2    8      0.30      0.00
   -7   -2    8      0.53      0.00
   -6   -2    8      0.35      0.00
   -5   -2    8     -0.96      0.00
   -4   -2    8     -0.78      0.00
   -3   -2    8     -0.79      0.00
   -2   -2    8     -0.17      0.00
   -1   -2    8      0.26      0.00
    0   -2    8     -1.07      0.00
    1   -2    8     -5.14      0.00
    2   -2    8     -7.78      0.00
    3   -2    8     -1.86      0.00
    4   -2    8      3.03      0.00
    5   -2    8     -2.52      0.00
    6   -2    8     -3.98      0.00
    7   -2    8     -1.85      0.00
    8   -2    8      1.27      0.00
    9   -2    8     -1.03      0.00
   10   -2    8     -1.47      0.00
   11   -2    8     -0.76      0.00
   12   -2    8     -0.28      0.00
   13   -2    8     -0.36      0.00
  -11   -1    8     -0.21      0.00
  -10   -1    8      0.79      0.00
   -9   -1    8      0.67      0.00
   -8   -1    8     -0.64      0.00
   -7   -1    8     -0.19      0.00
   -6   -1    8     -0.50      0.00
   -5   -1    8     -0.60      0.00
   -4   -1    8     -0.71      0.00
   -3   -1    8      0.48      0.00
   -2   -1    8     -0.13      0.00
   -1   -1    8     -1.44      0.00
    0   -1    8     -1.69      0.00
    1   -1    8     -5.78      0.00
    2   -1    8     -7.80      0.00
    3   -1    8     -1.35      0.00
    4   -1    8      1.15      0.00
    5   -1    8     -1.32      0.00
    6   -1    8     -4.75      0.00
    7   -1    8     -0.50      0.00
    8   -1    8      0.62      0.00
    9   -1    8     -0.21      0.00
   10   -1    8     -1.76      0.00
   11   -1    8     -1.19      0.00
   12   -1    8     -0.70      0.00
   13   -1    8      0.01      0.00
   14   -1    8      0.29      0.00
  -11    0    8      1.34      0.00
  -10    0    8      0.28      0.00
   -9    0    8     -0.78      0.00
   -8    0    8     -0.20      0.00
   -7    0    8     -0.38      0.00
   -6    0    8     -0.68      0.00
   -5    0    8     -1.18      0.00
   -4    0    8      0.03      0.00
   -3    0    8     -0.09      0.00
   -2    0    8     -1.79      0.00
   -1    0    8     -1.69      0.00
    0    0    8     -3.28      0.00
    1    0    8     -5.60      0.00
    2    0    8     -4.07      0.00
    3    0    8     -0.63      0.00
    4    0    8      1.87      0.00
    5    0    8     -3.42      0.00
    6    0    8     -3.08      0.00
    7    0    8     -1.42      0.00
    8    0    8     -0.51      0.00
    9    0    8     -1.54      0.00
   10    0    8     -0.95      0.00
   11    0    8     -0.73      0.00
   12    0    8     -0.07      0.00
   13    0    8     -0.16      0.00
   14    0    8      0.29      0.00
  -11    1    8     -0.41      0.00
  -10    1    8      0.29      0.00
   -9    1    8      0.11      0.00
   -8    1    8     -0.09      0.00
   -7    1    8      0.03      0.00
   -6    1    8     -0.22      0.00
   -5    1    8     -0.11      0.00
   -4    1    8     -0.43      0.00
   -3    1    8     -0.51      0.00
   -2    1    8     -1.80      0.00
   -1    1    8     -3.66      0.00
    0    1    8     -3.20      0.00
    1    1    8     -5.42      0.00
    2    1    8     -4.59      0.00
    3    1    8      2.68      0.00
    4    1    8      0.73      0.00
    5    1    8     -3.04      0.00
    6    1    8     -4.80      0.00
    7    1    8     -1.88      0.00
    8    1    8     -1.19      0.00
    9    1    8     -1.57      0.00
   10    1    8     -1.69      0.00
   11    1    8     -0.42      0.00
   12    1    8     -0.54      0.00
   13    1    8      0.43      0.00
   14    1    8      0.34      0.00
  -11    2    8      0.80      0.00
  -10    2    8     -0.24      0.00
   -9    2    8     -0.28      0.00
   -8    2    8     -0.08      0.00
   -7    2    8      0.21      0.00
   -6    2    8     -0.04      0.00
   -5    2    8     -0.38      0.00
   -4    2    8      0.28      0.00
   -3    2    8     -1.41      0.00
   -2    2    8     -2.95      0.00
   -1    2    8     -1.23      0.00
    0    2    8     -2.36      0.00
    1    2    8     -4.56      0.00
    2    2    8     -2.82      0.00
    3    2    8      0.19      0.00
    4    2    8      0.49      0.00
    5    2    8     -5.59      0.00
    6    2    8     -4.55      0.00
    7    2    8     -1.98      0.00
    8    2    8     -1.96      0.00
    9    2    8     -2.63      0.00
   10    2    8     -0.88      0.00
   11    2    8     -0.30      0.00
   12    2    8      0.67      0.00
   13    2    8      0.34      0.00
   14    2    8      0.13      0.00
  -11    3    8     -0.45      0.00
  -10    3    8      0.10      0.00
   -9    3    8      0.05      0.00
   -8    3    8      0.55      0.00
   -7    3    8     -0.14      0.00
   -6    3    8     -0.41      0.00
   -5    3    8      0.30      0.00
   -4    3    8     -1.04      0.00
   -3    3    8     -1.79      0.00
   -2    3    8     -2.04      0.00
   -1    3    8     -1.32      0.00
    0    3    8      0.01      0.00
    1    3    8     -1.29      0.00
    2    3    8     -1.01      0.00
    3    3    8      0.03      0.00
    4    3    8     -3.77      0.00
    5    3    8     -3.85      0.00
    6    3    8     -3.77      0.00
    7    3    8     -2.73      0.00
    8    3    8     -2.08      0.00
    9    3    8     -0.22      0.00
   10    3    8     -0.49      0.00
   11    3    8     -0.51      0.00
   12    3    8     -0.47      0.00
   13    3    8      0.50      0.00
   14    3    8      0.90      0.00
  -11    4    8     -0.03      0.00
  -10    4    8     -0.97      0.00
   -9    4    8      0.36      0.00
   -8    4    8      0.03      0.00
   -7    4    8     -1.00      0.00
   -6    4    8     -0.28      0.00
   -5    4    8     -0.55      0.00
   -4    4    8     -0.81      0.00
   -3    4    8     -2.01      0.00
   -2    4    8     -1.13      0.00
   -1    4    8      1.09      0.00
    0    4    8      0.58      0.00
    1    4    8     -0.73      0.00
    2    4    8     -0.08      0.00
    3    4    8      0.06      0.00
    4    4    8     -1.53      0.00
    5    4    8     -6.01      0.00
    6    4    8     -2.87      0.00
    7    4    8      0.37      0.00
    8    4    8      1.07      0.00
    9    4    8     -0.72      0.00
   10    4    8      0.07      0.00
   11    4    8      0.60      0.00
   12    4    8      0.66      0.00
   13    4    8      0.89      0.00
   14    4    8      0.01      0.00
  -11    5    8     -0.25      0.00
  -10    5    8      0.94      0.00
   -9    5    8      0.95      0.00
   -8    5    8     -0.22      0.00
   -7    5    8     -0.77      0.00
   -6    5    8     -0.84      0.00
   -5    5    8     -0.08      0.00
   -4    5    8     -1.20      0.00
   -3    5    8     -1.40      0.00
   -2    5    8     -0.21      0.00
   -1    5    8      1.58      0.00
    0    5    8      2.08      0.00
    1    5    8     -0.22      0.00
    2    5    8     -1.45      0.00
    3    5    8      0.33      0.00
    4    5    8     -2.57      0.00
    5    5    8     -1.70      0.00
    6    5    8     -0.64      0.00
    7    5    8      1.29      0.00
    8    5    8      0.79      0.00
    9    5    8      0.93      0.00
   10    5    8      0.00      0.00
   11    5    8      0.07      0.00
   12    5    8      1.00      0.00
   13    5    8      0.31      0.00
   14    5    8      0.57      0.00
  -10    6    8      0.07      0.00
   -9    6    8      0.93      0.00
   -8    6    8      0.10      0.00
   -7    6    8     -1.14      0.00
   -6    6    8      0.00      0.00
   -5    6    8      0.38      0.00
   -4    6    8     -0.24      0.00
   -3    6    8     -0.13      0.00
   -2    6    8      0.91      0.00
   -1    6    8      1.76      0.00
    0    6    8      0.21      0.00
    1    6    8     -0.34      0.00
    2    6    8      1.45      0.00
    3    6    8     -0.97      0.00
    4    6    8     -0.15      0.00
    5    6    8     -0.16      0.00
    6    6    8      2.89      0.00
    7    6    8      2.54      0.00
    8    6    8      0.42      0.00
    9    6    8     -0.93      0.00
   10    6    8      0.48      0.00
   11    6    8      0.91      0.00
   12    6    8     -0.13      0.00
   13    6    8      0.30      0.00
   14    6    8      0.03      0.00
  -10    7    8     -0.20      0.00
   -9    7    8      0.35      0.00
   -8    7    8      0.03      0.00
   -7    7    8     -0.58      0.00
   -6    7    8      0.39      0.00
   -5    7    8      0.38      0.00
   -4    7    8      0.04      0.00
   -3    7    8      0.17      0.00
   -2    7    8      1.47      0.00
   -1    7    8      1.24      0.00
    0    7    8      0.92      0.00
    1    7    8      0.15      0.00
    2    7    8     -0.52      0.00
    3    7    8      3.17      0.00
    4    7    8      1.36      0.00
    5    7    8      1.81      0.00
    6    7    8      2.28      0.00
    7    7    8      1.85      0.00
    8    7    8      0.28      0.00
    9    7    8     -0.01      0.00
   10    7    8     -0.15      0.00
   11    7    8      0.15      0.00
   12    7    8      0.46      0.00
   13    7    8      0.50      0.00
   14    7    8      0.33      0.00
  -10    8    8     -0.34      0.00
   -9    8    8      0.41      0.00
   -8    8    8     -1.02      0.00
   -7    8    8     -0.12      0.00
   -6    8    8      0.75      0.00
   -5    8    8      1.32      0.00
   -4    8    8     -0.26      0.00
   -3    8    8      0.15      0.00
   -2    8    8      0.99      0.00
   -1    8    8      2.03      0.00
    0    8    8      1.18      0.00
    1    8    8      0.39      0.00
    2    8    8      2.02      0.00
    3    8    8      1.11      0.00
    4    8    8      2.65      0.00
    5    8    8      2.78      0.00
    6    8    8      2.06      0.00
    7    8    8      0.75      0.00
    8    8    8      0.53      0.00
    9    8    8      0.11      0.00
   10    8    8     -0.31      0.00
   11    8    8     -0.26      0.00
   12    8    8      1.06      0.00
   13    8    8      0.26      0.00
   -9    9    8     -0.43      0.00
   -8    9    8      0.04      0.00
   -7    9    8     -0.77      0.00
   -6    9    8      1.17      0.00
   -5    9    8      0.91      0.00
   -4    9    8      0.31      0.00
   -3    9    8     -0.38      0.00
   -2    9    8      0.29      0.00
   -1    9    8      0.65      0.00
    0    9    8      1.69      0.00
    1    9    8      2.56      0.00
    2    9    8      2.08      0.00
    3    9    8      2.38      0.00
    4    9    8      1.26      0.00
    5    9    8      1.28      0.00
    6    9    8      1.88      0.00
    7    9    8      1.38      0.00
    8    9    8     -0.21      0.00
    9    9    8     -0.53      0.00
   10    9    8      0.18      0.00
   11    9    8      1.91      0.00
   12    9    8      0.95      0.00
   13    9    8      0.43      0.00
   -9   10    8      1.42      0.00
   -8   10    8      0.07      0.00
   -7   10    8      0.40      0.00
   -6   10    8      0.60      0.00
   -5   10    8      0.17      0.00
   -4   10    8     -1.03      0.00
   -3   10    8     -0.01      0.00
   -2   10    8      0.93      0.00
   -1   10    8      0.93      0.00
    0   10    8      0.60      0.00
    1   10    8      1.47      0.00
    2   10    8      2.53      0.00
    3   10    8      1.88      0.00
    4   10    8      1.29      0.00
    5   10    8      1.17      0.00
    6   10    8      0.83      0.00
    7   10    8      0.49      0.00
    8   10    8      0.55      0.00
    9   10    8     -0.04      0.00
   10   10    8      0.55      0.00
   11   10    8      1.11      0.00
   12   10    8      1.30      0.00
   13   10    8      0.01      0.00
   -8   11    8      0.44      0.00
   -7   11    8      0.83      0.00
   -6   11    8      0.87      0.00
   -5   11    8     -0.09      0.00
   -4   11    8     -1.05      0.00
   -3   11    8     -0.48      0.00
   -2   11    8      0.84      0.00
   -1   11    8      1.22      0.00
    0   11    8      1.73      0.00
    1   11    8      1.23      0.00
    2   11    8      0.52      0.00
    3   11    8      1.08      0.00
    4   11    8      1.27      0.00
    5   11    8      1.14      0.00
    6   11    8      0.46      0.00
    7   11    8      0.06      0.00
    8   11    8      0.06      0.00
    9   11    8      0.30      0.00
   10   11    8      1.17      0.00
   11   11    8      1.67      0.00
   12   11    8      0.41      0.00
   13   11    8     -0.78      0.00
   -8   12    8      0.33      0.00
   -7   12    8     -0.77      0.00
   -6   12    8      0.42      0.00
   -5   12    8      0.07      0.00
   -4   12    8     -0.17      0.00
   -3   12    8      0.29      0.00
   -2   12    8      0.43      0.00
   -1   12    8      1.20      0.00
    0   12    8      1.21      0.00
    1   12    8      0.79      0.00
    2   12    8      0.62      0.00
    3   12    8     -0.03      0.00
    4   12    8      0.89      0.00
    5   12    8      0.90      0.00
    6   12    8      0.48      0.00
    7   12    8      0.34      0.00
    8   12    8      0.05      0.00
    9   12    8      0.04      0.00
   10   12    8     -0.08      0.00
   11   12    8      0.90      0.00
   12   12    8      0.32      0.00
   -7   13    8      0.61      0.00
   -6   13    8      0.30      0.00
   -5   13    8      0.00      0.00
   -4   13    8     -0.33      0.00
   -3   13    8      0.22      0.00
   -2   13    8      1.25      0.00
   -1   13    8      0.87      0.00
    0   13    8      0.35      0.00
    1   13    8      0.48      0.00
    2   13    8     -0.09      0.00
    3   13    8      0.33      0.00
    4   13    8      0.40      0.00
    5   13    8      0.91      0.00
    6   13    8      0.34      0.00
    7   13    8      0.18      0.00
    8   13    8      0.33      0.00
    9   13    8     -0.35      0.00
   10   13    8      0.91      0.00
   11   13    8      0.28      0.00
   12   13    8     -0.03      0.00
   -7   14    8     -0.27      0.00
   -6   14    8      0.65      0.00
   -5   14    8      0.33      0.00
   -4   14    8     -0.04      0.00
   -3   14    8      0.32      0.00
   -2   14    8      0.55      0.00
   -1   14    8      0.31      0.00
    0   14    8      0.25      0.00
    1   14    8     -0.23      0.00
    2   14    8      0.11      0.00
    3   14    8      0.50      0.00
    4   14    8      1.24      0.00
    5   14    8      0.66      0.00
    6   14    8      0.53      0.00
    7   14    8      0.13      0.00
    8   14    8     -0.43      0.00
    9   14    8     -0.07      0.00
   10   14    8      0.04      0.00
   11   14    8      1.18      0.00
   -6   15    8      0.56      0.00
   -5   15    8      0.24      0.00
   -4   15    8     -0.30      0.00
   -3   15    8      0.09      0.00
   -2   15    8      0.20      0.00
   -1   15    8      0.12      0.00
    0   15    8     -0.58      0.00
    1   15    8      0.01      0.00
    2   15    8      0.62      0.00
    3   15    8      0.77      0.00
    4   15    8      1.00      0.00
    5   15    8      0.97      0.00
    6   15    8     -0.49      0.00
    7   15    8     -0.01      0.00
    8   15    8      0.16      0.00
    9   15    8     -0.05      0.00
   10   15    8      0.61      0.00
   11   15    8      0.06      0.00
   -5   16    8      0.03      0.00
   -4   16    8      0.36      0.00
   -3   16    8     -0.13      0.00
   -2   16    8      0.13      0.00
   -1   16    8     -0.23      0.00
    0   16    8     -0.01      0.00
    1   16    8      0.38      0.00
    2   16    8      0.45      0.00
    3   16    8      0.74      0.00
    4   16    8      0.89      0.00
    5   16    8     -0.26      0.00
    6   16    8      0.17      0.00
    7   16    8     -0.31      0.00
    8   16    8      0.09      0.00
    9   16    8      0.44      0.00
   10   16    8      0.49      0.00
   -4   17    8     -0.47      0.00
   -3   17    8      0.29      0.00
   -2   17    8      0.18      0.00
   -1   17    8     -0.30      0.00
    0   17    8      0.12      0.00
    1   17    8      0.77      0.00
    2   17    8      0.38      0.00
    3   17    8      0.27      0.00
    4   17    8     -0.20      0.00
    5   17    8      0.18      0.00
    6   17    8     -0.48      0.00
    7   17    8      0.57      0.00
    8   17    8      0.31      0.00
    9   17    8      0.37      0.00
   -3   18    8     -0.28      0.00
   -2   18    8     -0.16      0.00
   -1   18    8      0.26      0.00
    0   18    8      0.14      0.00
    1   18    8      0.16      0.00
    2   18    8      0.55      0.00
    3   18    8     -0.52      0.00
    4   18    8      0.11      0.00
    5   18    8     -0.27      0.00
    6   18    8     -0.05      0.00
    7   18    8     -0.54      0.00
    8   18    8      0.41      0.00
   -1   19    8     -0.41      0.00
    0   19    8      0.24      0.00
    1   19    8      0.61      0.00
    2   19    8     -0.88      0.00
    3   19    8      0.14      0.00
    4   19    8     -0.04      0.00
    5   19    8     -0.27      0.00
    6   19    8     -0.39      0.00
    7   19    8      0.46      0.00
    1   20    8     -0.75      0.00
    2   20    8      0.31      0.00
    3   20    8     -0.02      0.00
    4   20    8     -0.19      0.00
   -3  -17    9     -0.62      0.00
   -2  -17    9      0.23      0.00
   -1  -17    9      0.57      0.00
    0  -17    9     -0.27      0.00
    1  -17    9     -0.71      0.00
    2  -17    9      0.66      0.00
    3  -17    9     -0.37      0.00
   -5  -16    9      0.13      0.00
   -4  -16    9      0.09      0.00
   -3  -16    9      0.13      0.00
   -2  -16    9     -0.71      0.00
   -1  -16    9     -0.46      0.00
    0  -16    9     -0.48      0.00
    1  -16    9      0.69      0.00
    2  -16    9     -0.04      0.00
    3  -16    9     -0.12      0.00
    4  -16    9     -0.58      0.00
    5  -16    9      0.14      0.00
   -6  -15    9     -0.35      0.00
   -5  -15    9      0.08      0.00
   -4  -15    9      0.31      0.00
   -3  -15    9     -0.53      0.00
   -2  -15    9      0.19      0.00
   -1  -15    9     -0.72      0.00
    0  -15    9     -0.22      0.00
    1  -15    9      0.24      0.00
    2  -15    9      0.61      0.00
    3  -15    9     -1.22      0.00
    4  -15    9     -0.76      0.00
    5  -15    9     -0.49      0.00
    6  -15    9      0.58      0.00
    7  -15    9      0.14      0.00
   -7  -14    9     -0.17      0.00
   -6  -14    9     -0.03      0.00
   -5  -14    9      0.04      0.00
   -4  -14    9     -0.26      0.00
   -3  -14    9      0.11      0.00
   -2  -14    9     -0.45      0.00
   -1  -14    9      0.28      0.00
    0  -14    9     -0.27      0.00
    1  -14    9      0.55      0.00
    2  -14    9     -0.33      0.00
    3  -14    9     -0.18      0.00
    4  -14    9     -0.39      0.00
    5  -14    9      0.08      0.00
    6  -14    9     -0.06      0.00
    7  -14    9      0.48      0.00
    8  -14    9      0.07      0.00
   -7  -13    9      0.21      0.00
   -6  -13    9     -0.45      0.00
   -5  -13    9      0.38      0.00
   -4  -13    9      0.46      0.00
   -3  -13    9     -0.33      0.00
   -2  -13    9      0.51      0.00
   -1  -13    9     -0.70      0.00
    0  -13    9     -0.27      0.00
    1  -13    9     -0.21      0.00
    2  -13    9      0.57      0.00
    3  -13    9     -0.12      0.00
    4  -13    9     -0.13      0.00
    5  -13    9     -0.03      0.00
    6  -13    9      0.93      0.00
    7  -13    9      0.51      0.00
    8  -13    9     -0.60      0.00
   -8  -12    9      0.61      0.00
   -7  -12    9     -0.14      0.00
   -6  -12    9      0.15      0.00
   -5  -12    9      0.28      0.00
   -4  -12    9      0.74      0.00
   -3  -12    9      0.69      0.00
   -2  -12    9     -1.01      0.00
   -1  -12    9     -0.72      0.00
    0  -12    9     -0.48      0.00
    1  -12    9      1.13      0.00
    2  -12    9      0.56      0.00
    3  -12    9      0.33      0.00
    4  -12    9     -0.59      0.00
    5  -12    9     -0.39      0.00
    6  -12    9      0.46      0.00
    7  -12    9      0.25      0.00
    8  -12    9     -0.08      0.00
    9  -12    9     -0.34      0.00
   -9  -11    9      0.98      0.00
   -8  -11    9      0.50      0.00
   -7  -11    9     -0.18      0.00
   -6  -11    9     -0.62      0.00
   -5  -11    9      0.57      0.00
   -4  -11    9      0.51      0.00
   -3  -11    9     -0.15      0.00
   -2  -11    9      0.09      0.00
   -1  -11    9     -1.20      0.00
    0  -11    9     -0.41      0.00
    1  -11    9      0.12      0.00
    2  -11    9      1.48      0.00
    3  -11    9      0.53      0.00
    4  -11    9     -0.68      0.00
    5  -11    9     -0.49      0.00
    6  -11    9      0.35      0.00
    7  -11    9     -0.84      0.00
    8  -11    9     -0.79      0.00
    9  -11    9      0.80      0.00
   10  -11    9      0.11      0.00
   -9  -10    9      0.97      0.00
   -8  -10    9      1.30      0.00
   -7  -10    9     -0.58      0.00
   -6  -10    9     -0.71      0.00
   -5  -10    9      0.54      0.00
   -4  -10    9      0.42      0.00
   -3  -10    9     -0.28      0.00
   -2  -10    9     -0.99      0.00
   -1  -10    9     -0.58      0.00
    0  -10    9     -0.58      0.00
    1  -10    9      1.41      0.00
    2  -10    9      1.20      0.00
    3  -10    9     -0.65      0.00
    4  -10    9     -1.96      0.00
    5  -10    9     -0.21      0.00
    6  -10    9      0.14      0.00
    7  -10    9     -0.51      0.00
    8  -10    9     -1.16      0.00
    9  -10    9      0.30      0.00
   10  -10    9      1.21      0.00
   -9   -9    9      1.92      0.00
   -8   -9    9      0.37      0.00
   -7   -9    9     -0.68      0.00
   -6   -9    9     -0.20      0.00
   -5   -9    9     -0.07      0.00
   -4   -9    9      0.01      0.00
   -3   -9    9      0.06      0.00
   -2   -9    9     -0.01      0.00
   -1   -9    9     -1.28      0.00
    0   -9    9      0.02      0.00
    1   -9    9      1.31      0.00
    2   -9    9      0.87      0.00
    3   -9    9     -1.61      0.00
    4   -9    9     -2.31      0.00
    5   -9    9     -0.73      0.00
    6   -9    9      0.93      0.00
    7   -9    9     -1.04      0.00
    8   -9    9     -0.26      0.00
    9   -9    9      0.26      0.00
   10   -9    9     -0.03      0.00
   11   -9    9      0.34      0.00
  -10   -8    9      1.40      0.00
   -9   -8    9      0.57      0.00
   -8   -8    9      0.43      0.00
   -7   -8    9     -1.06      0.00
   -6   -8    9     -0.66      0.00
   -5   -8    9      0.87      0.00
   -4   -8    9      0.36      0.00
   -3   -8    9      0.07      0.00
   -2   -8    9     -1.08      0.00
   -1   -8    9     -0.97      0.00
    0   -8    9      0.03      0.00
    1   -8    9      1.07      0.00
    2   -8    9      0.40      0.00
    3   -8    9     -2.31      0.00
    4   -8    9     -3.31      0.00
    5   -8    9     -0.26      0.00
    6   -8    9      0.78      0.00
    7   -8    9     -0.11      0.00
    8   -8    9     -1.55      0.00
    9   -8    9      0.20      0.00
   10   -8    9      0.12      0.00
   11   -8    9     -0.40      0.00
  -10   -7    9      0.47      0.00
   -9   -7    9      2.10      0.00
   -8   -7    9     -0.06      0.00
   -7   -7    9     -0.80      0.00
   -6   -7    9      0.14      0.00
   -5   -7    9      0.32      0.00
   -4   -7    9      0.41      0.00
   -3   -7    9      0.31      0.00
   -2   -7    9     -0.24      0.00
   -1   -7    9     -2.30      0.00
    0   -7    9     -1.26      0.00
    1   -7    9      1.60      0.00
    2   -7    9     -0.25      0.00
    3   -7    9     -4.00      0.00
    4   -7    9     -2.89      0.00
    5   -7    9      1.12      0.00
    6   -7    9      0.95      0.00
    7   -7    9     -1.83      0.00
    8   -7    9     -0.72      0.00
    9   -7    9     -0.53      0.00
   10   -7    9     -0.07      0.00
   11   -7    9     -0.34      0.00
   12   -7    9     -0.84      0.00
  -10   -6    9      0.56      0.00
   -9   -6    9     -0.06      0.00
   -8   -6    9     -0.07      0.00
   -7   -6    9     -1.16      0.00
   -6   -6    9      0.06      0.00
   -5   -6    9      1.16      0.00
   -4   -6    9      0.92      0.00
   -3   -6    9      0.12      0.00
   -2   -6    9     -2.37      0.00
   -1   -6    9     -2.31      0.00
    0   -6    9     -0.02      0.00
    1   -6    9      0.44      0.00
    2   -6    9     -1.21      0.00
    3   -6    9     -3.97      0.00
    4   -6    9     -2.45      0.00
    5   -6    9      1.29      0.00
    6   -6    9      1.60      0.00
    7   -6    9     -1.25      0.00
    8   -6    9     -2.52      0.00
    9   -6    9     -0.06      0.00
   10   -6    9      0.33      0.00
   11   -6    9     -0.57      0.00
   12   -6    9     -0.03      0.00
  -10   -5    9     -0.37      0.00
   -9   -5    9      0.68      0.00
   -8   -5    9     -0.99      0.00
   -7   -5    9     -0.50      0.00
   -6   -5    9      0.42      0.00
   -5   -5    9      0.30      0.00
   -4   -5    9      0.27      0.00
   -3   -5    9     -0.39      0.00
   -2   -5    9     -2.11      0.00
   -1   -5    9     -2.81      0.00
    0   -5    9     -0.14      0.00
    1   -5    9      2.39      0.00
    2   -5    9     -1.35      0.00
    3   -5    9     -4.43      0.00
    4   -5    9     -1.42      0.00
    5   -5    9      2.91      0.00
    6   -5    9      1.05      0.00
    7   -5    9     -2.60      0.00
    8   -5    9     -2.42      0.00
    9   -5    9     -0.44      0.00
   10   -5    9      0.36      0.00
   11   -5    9      0.59      0.00
   12   -5    9      0.04      0.00
   13   -5    9      0.67      0.00
  -11   -4    9     -0.56      0.00
  -10   -4    9     -0.07      0.00
   -9   -4    9     -0.49      0.00
   -8   -4    9     -0.49      0.00
   -7   -4    9     -0.50      0.00
   -6   -4    9      0.40      0.00
   -5   -4    9      0.16      0.00
   -4   -4    9     -0.73      0.00
   -3   -4    9     -1.32      0.00
   -2   -4    9     -2.09      0.00
   -1   -4    9     -1.54      0.00
    0   -4    9      1.22      0.00
    1   -4    9      1.75      0.00
    2   -4    9     -0.38      0.00
    3   -4    9     -3.74      0.00
    4   -4    9     -1.34      0.00
    5   -4    9      2.70      0.00
    6   -4    9      0.70      0.00
    7   -4    9     -3.19      0.00
    8   -4    9     -1.76      0.00
    9   -4    9      0.45      0.00
   10   -4    9      0.94      0.00
   11   -4    9     -0.71      0.00
   12   -4    9      0.57      0.00
   13   -4    9      0.72      0.00
  -11   -3    9      0.14      0.00
  -10   -3    9      0.43      0.00
   -9   -3    9      0.31      0.00
   -8   -3    9     -0.93      0.00
   -7   -3    9     -0.37      0.00
   -6   -3    9      0.41      0.00
   -5   -3    9      0.31      0.00
   -4   -3    9      0.20      0.00
   -3   -3    9     -1.30      0.00
   -2   -3    9     -3.32      0.00
   -1   -3    9     -1.70      0.00
    0   -3    9      2.20      0.00
    1   -3    9      3.96      0.00
    2   -3    9     -2.91      0.00
    3   -3    9     -6.04      0.00
    4   -3    9     -0.45      0.00
    5   -3    9      2.92      0.00
    6   -3    9     -1.11      0.00
    7   -3    9     -3.31      0.00
    8   -3    9     -1.25      0.00
    9   -3    9      1.74      0.00
   10   -3    9      0.16      0.00
   11   -3    9      0.18      0.00
   12   -3    9     -0.13      0.00
   13   -3    9      0.27      0.00
  -11   -2    9     -0.11      0.00
  -10   -2    9     -0.19      0.00
   -9   -2    9      0.58      0.00
   -8   -2    9      0.57      0.00
   -7   -2    9      0.14      0.00
   -6   -2    9     -0.07      0.00
   -5   -2    9     -0.33      0.00
   -4   -2    9     -0.60      0.00
   -3   -2    9     -1.12      0.00
   -2   -2    9     -1.84      0.00
   -1   -2    9     -0.95      0.00
    0   -2    9      2.97      0.00
    1   -2    9      1.57      0.00
    2   -2    9     -3.51      0.00
    3   -2    9     -6.54      0.00
    4   -2    9     -1.39      0.00
    5   -2    9      1.73      0.00
    6   -2    9     -1.22      0.00
    7   -2    9     -3.62      0.00
    8   -2    9     -0.48      0.00
    9   -2    9      0.91      0.00
   10   -2    9      1.25      0.00
   11   -2    9     -0.51      0.00
   12   -2    9     -0.06      0.00
   13   -2    9     -0.35      0.00
  -11   -1    9      0.44      0.00
  -10   -1    9      1.18      0.00
   -9   -1    9      0.18      0.00
   -8   -1    9     -0.41      0.00
   -7   -1    9      0.07      0.00
   -6   -1    9      0.02      0.00
   -5   -1    9     -0.43      0.00
   -4   -1    9     -0.54      0.00
   -3   -1    9     -1.44      0.00
   -2   -1    9     -2.04      0.00
   -1   -1    9      0.11      0.00
    0   -1    9      2.26      0.00
    1   -1    9      0.71      0.00
    2   -1    9     -6.70      0.00
    3   -1    9     -6.09      0.00
    4   -1    9     -0.11      0.00
    5   -1    9      2.57      0.00
    6   -1    9     -1.50      0.00
    7   -1    9     -2.22      0.00
    8   -1    9     -0.64      0.00
    9   -1    9      0.75      0.00
   10   -1    9     -0.53      0.00
   11   -1    9     -0.17      0.00
   12   -1    9     -0.26      0.00
   13   -1    9      0.02      0.00
  -11    0    9      0.34      0.00
  -10    0    9     -0.39      0.00
   -9    0    9      0.20      0.00
   -8    0    9     -0.14      0.00
   -7    0    9     -0.62      0.00
   -6    0    9     -0.44      0.00
   -5    0    9      0.10      0.00
   -4    0    9     -0.28      0.00
   -3    0    9     -0.74      0.00
   -2    0    9     -1.25      0.00
   -1    0    9     -0.07      0.00
    0    0    9      2.41      0.00
    1    0    9     -1.54      0.00
    2    0    9     -7.81      0.00
    3    0    9     -7.63      0.00
    4    0    9      2.17      0.00
    5    0    9      3.90      0.00
    6    0    9     -0.15      0.00
    7    0    9     -2.89      0.00
    8    0    9     -0.20      0.00
    9    0    9      0.70      0.00
   10    0    9      0.03      0.00
   11    0    9     -0.69      0.00
   12    0    9     -0.29      0.00
   13    0    9     -0.34      0.00
   14    0    9      0.50      0.00
  -11    1    9      0.42      0.00
  -10    1    9      1.07      0.00
   -9    1    9      0.14      0.00
   -8    1    9     -0.81      0.00
   -7    1    9     -0.74      0.00
   -6    1    9     -0.13      0.00
   -5    1    9     -0.49      0.00
   -4    1    9      0.07      0.00
   -3    1    9     -0.86      0.00
   -2    1    9     -1.56      0.00
   -1    1    9      0.47      0.00
    0    1    9      1.80      0.00
    1    1    9     -2.23      0.00
    2    1    9     -8.59      0.00
    3    1    9     -4.34      0.00
    4    1    9      2.61      0.00
    5    1    9      3.83      0.00
    6    1    9     -2.00      0.00
    7    1    9     -1.66      0.00
    8    1    9     -0.40      0.00
    9    1    9     -0.43      0.00
   10    1    9     -0.81      0.00
   11    1    9     -0.29      0.00
   12    1    9      0.14      0.00
   13    1    9      0.80      0.00
   14    1    9      0.20      0.00
  -11    2    9      0.06      0.00
  -10    2    9      0.09      0.00
   -9    2    9     -0.02      0.00
   -8    2    9      0.01      0.00
   -7    2    9      0.22      0.00
   -6    2    9     -0.20      0.00
   -5    2    9      1.07      0.00
   -4    2    9      0.31      0.00
   -3    2    9     -0.95      0.00
   -2    2    9     -2.00      0.00
   -1    2    9     -0.60      0.00
    0    2    9      1.34      0.00
    1    2    9     -3.06      0.00
    2    2    9     -6.03      0.00
    3    2    9     -1.68      0.00
    4    2    9      4.28      0.00
    5    2    9      1.60      0.00
    6    2    9     -1.20      0.00
    7    2    9     -3.55      0.00
    8    2    9     -1.54      0.00
    9    2    9     -0.21      0.00
   10    2    9      0.45      0.00
   11    2    9     -0.06      0.00
   12    2    9     -0.75      0.00
   13    2    9     -0.57      0.00
   14    2    9      0.76      0.00
  -10    3    9     -0.18      0.00
   -9    3    9     -0.50      0.00
   -8    3    9     -0.19      0.00
   -7    3    9     -0.47      0.00
   -6    3    9      0.51      0.00
   -5    3    9      0.30      0.00
   -4    3    9      0.70      0.00
   -3    3    9     -1.15      0.00
   -2    3    9     -2.08      0.00
   -1    3    9      0.62      0.00
    0    3    9      1.17      0.00
    1    3    9     -1.39      0.00
    2    3    9     -4.00      0.00
    3    3    9     -0.15      0.00
    4    3    9      4.47      0.00
    5    3    9      2.95      0.00
    6    3    9     -4.45      0.00
    7    3    9     -3.65      0.00
    8    3    9     -1.18      0.00
    9    3    9      0.78      0.00
   10    3    9      0.10      0.00
   11    3    9      0.03      0.00
   12    3    9      0.31      0.00
   13    3    9      0.48      0.00
   14    3    9      0.25      0.00
  -10    4    9      0.01      0.00
   -9    4    9      0.32      0.00
   -8    4    9      0.13      0.00
   -7    4    9      0.10      0.00
   -6    4    9     -0.52      0.00
   -5    4    9      0.57      0.00
   -4    4    9     -0.40      0.00
   -3    4    9     -1.76      0.00
   -2    4    9     -1.35      0.00
   -1    4    9      0.82      0.00
    0    4    9      3.18      0.00
    1    4    9     -0.58      0.00
    2    4    9     -2.48      0.00
    3    4    9      1.70      0.00
    4    4    9      4.76      0.00
    5    4    9     -0.06      0.00
    6    4    9     -2.79      0.00
    7    4    9     -3.03      0.00
    8    4    9      0.69      0.00
    9    4    9      1.01      0.00
   10    4    9      1.07      0.00
   11    4    9     -0.06      0.00
   12    4    9     -0.19      0.00
   13    4    9      0.96      0.00
   14    4    9      0.92      0.00
  -10    5    9     -0.59      0.00
   -9    5    9     -0.01      0.00
   -8    5    9      0.58      0.00
   -7    5    9     -0.47      0.00
   -6    5    9     -0.23      0.00
   -5    5    9     -0.19      0.00
   -4    5    9     -0.28      0.00
   -3    5    9     -1.56      0.00
   -2    5    9     -0.92      0.00
   -1    5    9      3.20      0.00
    0    5    9      2.56      0.00
    1    5    9     -0.65      0.00
    2    5    9     -1.03      0.00
    3    5    9      2.40      0.00
    4    5    9      2.80      0.00
    5    5    9      0.50      0.00
    6    5    9     -2.81      0.00
    7    5    9      0.51      0.00
    8    5    9      2.34      0.00
    9    5    9      2.27      0.00
   10    5    9      0.51      0.00
   11    5    9      0.87      0.00
   12    5    9      0.84      0.00
   13    5    9      0.10      0.00
   14    5    9      0.79      0.00
  -10    6    9      0.27      0.00
   -9    6    9      0.33      0.00
   -8    6    9      0.31      0.00
   -7    6    9      0.14      0.00
   -6    6    9     -0.40      0.00
   -5    6    9      0.56      0.00
   -4    6    9     -0.40      0.00
   -3    6    9     -1.18      0.00
   -2    6    9      0.57      0.00
   -1    6    9      2.32      0.00
    0    6    9      2.93      0.00
    1    6    9      0.39      0.00
    2    6    9     -1.02      0.00
    3    6    9      1.42      0.00
    4    6    9      4.25      0.00
    5    6    9      0.88      0.00
    6    6    9     -0.21      0.00
    7    6    9      0.95      0.00
    8    6    9      2.63      0.00
    9    6    9      1.83      0.00
   10    6    9      1.44      0.00
   11    6    9      0.05      0.00
   12    6    9     -0.26      0.00
   13    6    9      0.85      0.00
   14    6    9      0.56      0.00
  -10    7    9     -0.82      0.00
   -9    7    9      0.49      0.00
   -8    7    9      0.59      0.00
   -7    7    9     -0.98      0.00
   -6    7    9     -0.02      0.00
   -5    7    9      0.23      0.00
   -4    7    9      0.65      0.00
   -3    7    9     -0.24      0.00
   -2    7    9      0.52      0.00
   -1    7    9      3.19      0.00
    0    7    9      2.49      0.00
    1    7    9      0.08      0.00
    2    7    9      0.74      0.00
    3    7    9      3.15      0.00
    4    7    9      2.91      0.00
    5    7    9      1.99      0.00
    6    7    9      0.78      0.00
    7    7    9      1.84      0.00
    8    7    9      2.53      0.00
    9    7    9      2.22      0.00
   10    7    9      0.55      0.00
   11    7    9     -0.73      0.00
   12    7    9     -0.61      0.00
   13    7    9      0.11      0.00
   -9    8    9      0.11      0.00
   -8    8    9     -0.46      0.00
   -7    8    9     -0.29      0.00
   -6    8    9     -1.15      0.00
   -5    8    9      0.93      0.00
   -4    8    9      0.51      0.00
   -3    8    9      0.43      0.00
   -2    8    9      1.42      0.00
   -1    8    9      1.76      0.00
    0    8    9      0.93      0.00
    1    8    9      0.31      0.00
    2    8    9      1.13      0.00
    3    8    9      3.87      0.00
    4    8    9      4.18      0.00
    5    8    9      0.99      0.00
    6    8    9      0.26      0.00
    7    8    9      2.12      0.00
    8    8    9      2.45      0.00
    9    8    9      0.92      0.00
   10    8    9     -0.57      0.00
   11    8    9     -0.81      0.00
   12    8    9      0.07      0.00
   13    8    9      0.05      0.00
   -9    9    9     -0.12      0.00
   -8    9    9      0.64      0.00
   -7    9    9     -0.87      0.00
   -6    9    9      0.95      0.00
   -5    9    9      0.85      0.00
   -4    9    9      0.49      0.00
   -3    9    9     -0.63      0.00
   -2    9    9      0.87      0.00
   -1    9    9      2.75      0.00
    0    9    9      1.05      0.00
    1    9    9     -0.99      0.00
    2    9    9      0.96      0.00
    3    9    9      2.78      0.00
    4    9    9      2.90      0.00
    5    9    9      1.36      0.00
    6    9    9      0.48      0.00
    7    9    9      0.84      0.00
    8    9    9      1.52      0.00
    9    9    9      1.02      0.00
   10    9    9     -0.36      0.00
   11    9    9     -1.01      0.00
   12    9    9      0.09      0.00
   13    9    9      1.43      0.00
   -8   10    9     -0.45      0.00
   -7   10    9      0.56      0.00
   -6   10    9      0.35      0.00
   -5   10    9      1.28      0.00
   -4   10    9      0.08      0.00
   -3   10    9     -0.62      0.00
   -2   10    9      0.42      0.00
   -1   10    9      0.57      0.00
    0   10    9      0.48      0.00
    1   10    9      0.97      0.00
    2   10    9      0.88      0.00
    3   10    9      1.94      0.00
    4   10    9      1.64      0.00
    5   10    9      0.64      0.00
    6   10    9      0.67      0.00
    7   10    9      1.11      0.00
    8   10    9      1.04      0.00
    9   10    9      0.40      0.00
   10   10    9     -0.63      0.00
   11   10    9      0.52      0.00
   12   10    9      1.91      0.00
   13   10    9      0.60      0.00
   -8   11    9      1.14      0.00
   -7   11    9      0.22      0.00
   -6   11    9      0.40      0.00
   -5   11    9      0.43      0.00
   -4   11    9     -0.52      0.00
   -3   11    9     -0.47      0.00
   -2   11    9      0.23      0.00
   -1   11    9      0.83      0.00
    0   11    9     -0.24      0.00
    1   11    9     -0.37      0.00
    2   11    9      1.41      0.00
    3   11    9      1.73      0.00
    4   11    9      0.91      0.00
    5   11    9      0.40      0.00
    6   11    9      0.18      0.00
    7   11    9      0.93      0.00
    8   11    9      1.30      0.00
    9   11    9      0.46      0.00
   10   11    9      0.01      0.00
   11   11    9      0.05      0.00
   12   11    9      1.09      0.00
   -8   12    9     -0.25      0.00
   -7   12    9     -0.27      0.00
   -6   12    9      0.79      0.00
   -5   12    9      0.21      0.00
   -4   12    9     -0.62      0.00
   -3   12    9     -1.00      0.00
   -2   12    9      0.84      0.00
   -1   12    9      0.94      0.00
    0   12    9      0.52      0.00
    1   12    9      0.49      0.00
    2   12    9      0.91      0.00
    3   12    9      0.95      0.00
    4   12    9      0.64      0.00
    5   12    9     -0.07      0.00
    6   12    9      0.22      0.00
    7   12    9      0.38      0.00
    8   12    9      0.81      0.00
    9   12    9      0.27      0.00
   10   12    9     -0.52      0.00
   11   12    9      1.32      0.00
   12   12    9      0.82      0.00
   -7   13    9     -0.01      0.00
   -6   13    9     -0.62      0.00
   -5   13    9      0.21      0.00
   -4   13    9     -0.46      0.00
   -3   13    9     -0.10      0.00
   -2   13    9      0.33      0.00
   -1   13    9      0.90      0.00
    0   13    9      0.24      0.00
    1   13    9      0.62      0.00
    2   13    9      0.49      0.00
    3   13    9      0.57      0.00
    4   13    9      0.51      0.00
    5   13    9      0.45      0.00
    6   13    9      0.28      0.00
    7   13    9      0.93      0.00
    8   13    9      0.49      0.00
    9   13    9     -0.38      0.00
   10   13    9     -0.34      0.00
   11   13    9     -0.30      0.00
   12   13    9      0.86      0.00
   -6   14    9      0.49      0.00
   -5   14    9      0.16      0.00
   -4   14    9     -0.22      0.00
   -3   14    9     -0.23      0.00
   -2   14    9      0.90      0.00
   -1   14    9      0.42      0.00
    0   14    9      0.18      0.00
    1   14    9     -0.70      0.00
    2   14    9     -0.19      0.00
    3   14    9      0.26      0.00
    4   14    9      0.40      0.00
    5   14    9      0.78      0.00
    6   14    9      0.74      0.00
    7   14    9      0.24      0.00
    8   14    9      0.68      0.00
    9   14    9     -0.24      0.00
   10   14    9     -0.55      0.00
   11   14    9      0.70      0.00
   -6   15    9      0.49      0.00
   -5   15    9      0.24      0.00
   -4   15    9     -0.37      0.00
   -3   15    9      0.23      0.00
   -2   15    9      0.47      0.00
   -1   15    9      0.72      0.00
    0   15    9     -0.40      0.00
    1   15    9     -0.32      0.00
    2   15    9     -0.23      0.00
    3   15    9      0.01      0.00
    4   15    9      0.79      0.00
    5   15    9      0.48      0.00
    6   15    9      0.06      0.00
    7   15    9      0.69      0.00
    8   15    9     -0.30      0.00
    9   15    9     -0.52      0.00
   10   15    9      0.06      0.00
   -5   16    9      0.22      0.00
   -4   16    9     -0.11      0.00
   -3   16    9     -0.20      0.00
   -2   16    9      0.80      0.00
   -1   16    9      0.00      0.00
    0   16    9     -0.57      0.00
    1   16    9     -0.37      0.00
    2   16    9      0.22      0.00
    3   16    9      0.76      0.00
    4   16    9      0.41      0.00
    5   16    9      0.02      0.00
    6   16    9      0.26      0.00
    7   16    9     -0.18      0.00
    8   16    9      0.36      0.00
    9   16    9     -0.27      0.00
   10   16    9     -0.01      0.00
   -4   17    9      0.09      0.00
   -3   17    9      0.68      0.00
   -2   17    9      0.06      0.00
   -1   17    9     -0.18      0.00
    0   17    9     -0.34      0.00
    1   17    9     -0.40      0.00
    2   17    9      0.60      0.00
    3   17    9      0.68      0.00
    4   17    9     -0.05      0.00
    5   17    9      0.26      0.00
    6   17    9     -0.14      0.00
    7   17    9      0.32      0.00
    8   17    9     -0.26      0.00
    9   17    9      0.20      0.00
   -2   18    9      0.24      0.00
   -1   18    9     -0.09      0.00
    0   18    9     -0.37      0.00
    1   18    9      0.69      0.00
    2   18    9      0.17      0.00
    3   18    9     -0.42      0.00
    4   18    9      0.53      0.00
    5   18    9     -0.44      0.00
    6   18    9     -0.22      0.00
    7   18    9      0.16      0.00
    8   18    9      0.78      0.00
   -1   19    9     -0.02      0.00
    0   19    9      0.66      0.00
    1   19    9     -0.06      0.00
    2   19    9     -0.09      0.00
    3   19    9      0.46      0.00
    4   19    9     -0.34      0.00
    5   19    9      0.16      0.00
    6   19    9     -0.23      0.00
   -1  -17   10      0.13      0.00
    0  -17   10     -0.26      0.00
    1  -17   10     -0.23      0.00
    2  -17   10      0.24      0.00
   -3  -16   10     -0.36      0.00
   -2  -16   10     -0.10      0.00
   -1  -16   10      0.51      0.00
    0  -16   10     -0.11      0.00
    1  -16   10     -0.10      0.00
    2  -16   10      0.54      0.00
    3  -16   10      0.26      0.00
    4  -16   10     -1.16      0.00
   -5  -15   10     -0.32      0.00
   -4  -15   10     -0.34      0.00
   -3  -15   10     -0.49      0.00
   -2  -15   10     -0.73      0.00
   -1  -15   10     -0.14      0.00
    0  -15   10      0.76      0.00
    1  -15   10      0.34      0.00
    2  -15   10      0.49      0.00
    3  -15   10     -0.28      0.00
    4  -15   10     -0.56      0.00
    5  -15   10     -0.69      0.00
    6  -15   10      0.05      0.00
   -6  -14   10     -0.03      0.00
   -5  -14   10     -0.36      0.00
   -4  -14   10      0.08      0.00
   -3  -14   10     -0.51      0.00
   -2  -14   10      0.00      0.00
   -1  -14   10      0.63      0.00
    0  -14   10     -0.29      0.00
    1  -14   10      0.37      0.00
    2  -14   10      0.26      0.00
    3  -14   10     -0.45      0.00
    4  -14   10     -0.66      0.00
    5  -14   10     -0.47      0.00
    6  -14   10     -0.76      0.00
    7  -14   10      0.77      0.00
   -7  -13   10     -0.02      0.00
   -6  -13   10     -0.23      0.00
   -5  -13   10      0.11      0.00
   -4  -13   10     -0.13      0.00
   -3  -13   10      0.58      0.00
   -2  -13   10      0.43      0.00
   -1  -13   10      0.17      0.00
    0  -13   10      0.41      0.00
    1  -13   10      0.00      0.00
    2  -13   10      0.27      0.00
    3  -13   10     -0.17      0.00
    4  -13   10     -0.41      0.00
    5  -13   10     -0.15      0.00
    6  -13   10     -0.07      0.00
    7  -13   10     -0.20      0.00
    8  -13   10      0.80      0.00
   -7  -12   10      0.88      0.00
   -6  -12   10     -0.07      0.00
   -5  -12   10     -0.76      0.00
   -4  -12   10      0.28      0.00
   -3  -12   10     -0.13      0.00
   -2  -12   10      0.40      0.00
   -1  -12   10      0.76      0.00
    0  -12   10     -0.03      0.00
    1  -12   10     -0.27      0.00
    2  -12   10     -0.78      0.00
    3  -12   10     -0.14      0.00
    4  -12   10      0.57      0.00
    5  -12   10     -0.10      0.00
    6  -12   10      0.27      0.00
    7  -12   10      1.04      0.00
    8  -12   10     -0.23      0.00
    9  -12   10     -0.12      0.00
   -8  -11   10      0.96      0.00
   -7  -11   10      0.78      0.00
   -6  -11   10     -0.14      0.00
   -5  -11   10     -0.26      0.00
   -4  -11   10      0.12      0.00
   -3  -11   10      0.28      0.00
   -2  -11   10     -0.11      0.00
   -1  -11   10      0.12      0.00
    0  -11   10     -0.64      0.00
    1  -11   10     -1.14      0.00
    2  -11   10      0.32      0.00
    3  -11   10      0.75      0.00
    4  -11   10     -0.07      0.00
    5  -11   10     -0.58      0.00
    6  -11   10     -0.05      0.00
    7  -11   10      0.49      0.00
    8  -11   10      0.11      0.00
    9  -11   10     -0.71      0.00
   10  -11   10      0.46      0.00
   -8  -10   10      1.00      0.00
   -7  -10   10      0.50      0.00
   -6  -10   10     -0.55      0.00
   -5  -10   10     -0.25      0.00
   -4  -10   10     -0.14      0.00
   -3  -10   10     -0.14      0.00
   -2  -10   10      0.53      0.00
   -1  -10   10     -0.32      0.00
    0  -10   10     -1.21      0.00
    1  -10   10     -0.66      0.00
    2  -10   10      0.28      0.00
    3  -10   10      1.09      0.00
    4  -10   10     -0.07      0.00
    5  -10   10     -1.13      0.00
    6  -10   10     -0.37      0.00
    7  -10   10      0.37      0.00
    8  -10   10     -0.58      0.00
    9  -10   10      0.31      0.00
   10  -10   10      0.27      0.00
   -9   -9   10      1.21      0.00
   -8   -9   10      0.59      0.00
   -7   -9   10      0.35      0.00
   -6   -9   10     -0.86      0.00
   -5   -9   10     -0.80      0.00
   -4   -9   10      0.26      0.00
   -3   -9   10     -0.11      0.00
   -2   -9   10     -0.05      0.00
   -1   -9   10      0.03      0.00
    0   -9   10     -1.11      0.00
    1   -9   10     -0.90      0.00
    2   -9   10      0.73      0.00
    3   -9   10      0.87      0.00
    4   -9   10     -0.37      0.00
    5   -9   10     -1.63      0.00
    6   -9   10     -0.35      0.00
    7   -9   10     -0.10      0.00
    8   -9   10     -0.46      0.00
    9   -9   10     -0.51      0.00
   10   -9   10      0.70      0.00
   11   -9   10      0.25      0.00
   -9   -8   10     -0.17      0.00
   -8   -8   10      1.72      0.00
   -7   -8   10      0.61      0.00
   -6   -8   10     -0.22      0.00
   -5   -8   10     -0.15      0.00
   -4   -8   10     -0.39      0.00
   -3   -8   10     -0.14      0.00
   -2   -8   10      0.71      0.00
   -1   -8   10      0.11      0.00
    0   -8   10     -1.67      0.00
    1   -8   10     -1.01      0.00
    2   -8   10      1.23      0.00
    3   -8   10      0.74      0.00
    4   -8   10     -2.19      0.00
    5   -8   10     -1.39      0.00
    6   -8   10      0.41      0.00
    7   -8   10      0.15      0.00
    8   -8   10     -1.02      0.00
    9   -8   10     -0.11      0.00
   10   -8   10     -0.12      0.00
   11   -8   10      0.42      0.00
   -9   -7   10      0.88      0.00
   -8   -7   10      0.74      0.00
   -7   -7   10      0.75      0.00
   -6   -7   10     -0.86      0.00
   -5   -7   10     -0.24      0.00
   -4   -7   10      0.13      0.00
   -3   -7   10      0.83      0.00
   -2   -7   10      1.33      0.00
   -1   -7   10     -1.03      0.00
    0   -7   10     -1.99      0.00
    1   -7   10     -0.40      0.00
    2   -7   10      0.54      0.00
    3   -7   10     -0.73      0.00
    4   -7   10     -1.70      0.00
    5   -7   10     -1.72      0.00
    6   -7   10     -0.22      0.00
    7   -7   10      0.34      0.00
    8   -7   10     -0.35      0.00
    9   -7   10     -0.80      0.00
   10   -7   10      0.44      0.00
   11   -7   10     -0.06      0.00
   12   -7   10      0.13      0.00
  -10   -6   10     -0.26      0.00
   -9   -6   10      0.13      0.00
   -8   -6   10      1.25      0.00
   -7   -6   10      0.01      0.00
   -6   -6   10      0.29      0.00
   -5   -6   10     -0.01      0.00
   -4   -6   10     -0.04      0.00
   -3   -6   10      0.53      0.00
   -2   -6   10      0.92      0.00
   -1   -6   10     -0.59      0.00
    0   -6   10     -2.89      0.00
    1   -6   10     -1.12      0.00
    2   -6   10      0.94      0.00
    3   -6   10     -0.34      0.00
    4   -6   10     -2.85      0.00
    5   -6   10     -1.53      0.00
    6   -6   10      1.34      0.00
    7   -6   10      0.81      0.00
    8   -6   10     -0.97      0.00
    9   -6   10     -0.88      0.00
   10   -6   10     -0.79      0.00
   11   -6   10      0.22      0.00
   12   -6   10     -0.06      0.00
  -10   -5   10     -0.66      0.00
   -9   -5   10     -0.08      0.00
   -8   -5   10      0.27      0.00
   -7   -5   10      0.02      0.00
   -6   -5   10     -0.85      0.00
   -5   -5   10      0.08      0.00
   -4   -5   10      0.12      0.00
   -3   -5   10      0.58      0.00
   -2   -5   10      0.38      0.00
   -1   -5   10     -2.22      0.00
    0   -5   10     -2.50      0.00
    1   -5   10     -0.55      0.00
    2   -5   10      0.99      0.00
    3   -5   10     -0.74      0.00
    4   -5   10     -2.29      0.00
    5   -5   10     -0.41      0.00
    6   -5   10      1.27      0.00
    7   -5   10      0.47      0.00
    8   -5   10     -0.86      0.00
    9   -5   10     -0.61      0.00
   10   -5   10      0.54      0.00
   11   -5   10     -0.16      0.00
   12   -5   10     -0.58      0.00
  -10   -4   10     -0.18      0.00
   -9   -4   10      0.18      0.00
   -8   -4   10      0.21      0.00
   -7   -4   10     -0.92      0.00
   -6   -4   10     -0.61      0.00
   -5   -4   10     -0.31      0.00
   -4   -4   10      0.11      0.00
   -3   -4   10      1.41      0.00
   -2   -4   10      0.11      0.00
   -1   -4   10     -3.34      0.00
    0   -4   10     -3.63      0.00
    1   -4   10      1.04      0.00
    2   -4   10      2.61      0.00
    3   -4   10     -0.90      0.00
    4   -4   10     -2.50      0.00
    5   -4   10     -0.08      0.00
    6   -4   10      1.73      0.00
    7   -4   10     -0.19      0.00
    8   -4   10     -1.68      0.00
    9   -4   10     -0.73      0.00
   10   -4   10      0.37      0.00
   11   -4   10      0.41      0.00
   12   -4   10      0.23      0.00
   13   -4   10      0.19      0.00
  -10   -3   10     -0.75      0.00
   -9   -3   10     -0.58      0.00
   -8   -3   10     -0.26      0.00
   -7   -3   10      0.02      0.00
   -6   -3   10      0.20      0.00
   -5   -3   10     -0.26      0.00
   -4   -3   10     -0.35      0.00
   -3   -3   10      0.19      0.00
   -2   -3   10     -0.55      0.00
   -1   -3   10     -3.13      0.00
    0   -3   10     -2.34      0.00
    1   -3   10      1.42      0.00
    2   -3   10      2.50      0.00
    3   -3   10     -0.04      0.00
    4   -3   10     -2.00      0.00
    5   -3   10     -0.03      0.00
    6   -3   10      0.70      0.00
    7   -3   10     -0.81      0.00
    8   -3   10     -1.89      0.00
    9   -3   10     -0.67      0.00
   10   -3   10      0.54      0.00
   11   -3   10      0.70      0.00
   12   -3   10      0.45      0.00
   13   -3   10      0.84      0.00
  -10   -2   10      0.70      0.00
   -9   -2   10      0.53      0.00
   -8   -2   10     -0.05      0.00
   -7   -2   10     -0.24      0.00
   -6   -2   10      0.15      0.00
   -5   -2   10      0.06      0.00
   -4   -2   10      0.15      0.00
   -3   -2   10      0.33      0.00
   -2   -2   10     -2.03      0.00
   -1   -2   10     -3.89      0.00
    0   -2   10     -1.49      0.00
    1   -2   10      3.03      0.00
    2   -2   10      2.77      0.00
    3   -2   10     -2.34      0.00
    4   -2   10     -2.85      0.00
    5   -2   10     -0.36      0.00
    6   -2   10      1.10      0.00
    7   -2   10     -1.04      0.00
    8   -2   10     -1.47      0.00
    9   -2   10     -0.12      0.00
   10   -2   10      0.66      0.00
   11   -2   10      0.50      0.00
   12   -2   10      0.62      0.00
   13   -2   10      0.56      0.00
  -10   -1   10      0.01      0.00
   -9   -1   10     -0.28      0.00
   -8   -1   10     -0.03      0.00
   -7   -1   10      0.11      0.00
   -6   -1   10     -0.39      0.00
   -5   -1   10     -0.21      0.00
   -4   -1   10      0.18      0.00
   -3   -1   10      0.33      0.00
   -2   -1   10     -1.08      0.00
   -1   -1   10     -3.32      0.00
    0   -1   10     -0.40      0.00
    1   -1   10      4.15      0.00
    2   -1   10      2.43      0.00
    3   -1   10     -3.24      0.00
    4   -1   10     -5.49      0.00
    5   -1   10     -0.05      0.00
    6   -1   10      1.35      0.00
    7   -1   10     -0.19      0.00
    8   -1   10     -1.32      0.00
    9   -1   10      0.23      0.00
   10   -1   10      1.40      0.00
   11   -1   10      0.80      0.00
   12   -1   10      0.41      0.00
   13   -1   10      0.07      0.00
  -10    0   10      0.64      0.00
   -9    0   10      0.58      0.00
   -8    0   10      0.18      0.00
   -7    0   10     -0.67      0.00
   -6    0   10     -0.37      0.00
   -5    0   10     -0.88      0.00
   -4    0   10     -0.18      0.00
   -3    0   10      0.08      0.00
   -2    0   10     -2.27      0.00
   -1    0   10     -2.25      0.00
    0    0   10      1.34      0.00
    1    0   10      4.85      0.00
    2    0   10      0.84      0.00
    3    0   10     -5.78      0.00
    4    0   10     -3.37      0.00
    5    0   10      0.33      0.00
    6    0   10      2.20      0.00
    7    0   10     -0.39      0.00
    8    0   10     -0.09      0.00
    9    0   10      0.85      0.00
   10    0   10      0.48      0.00
   11    0   10      0.55      0.00
   12    0   10      0.21      0.00
   13    0   10      0.36      0.00
  -10    1   10      0.38      0.00
   -9    1   10      0.11      0.00
   -8    1   10     -0.32      0.00
   -7    1   10      0.17      0.00
   -6    1   10     -0.69      0.00
   -5    1   10      0.02      0.00
   -4    1   10      0.76      0.00
   -3    1   10      0.41      0.00
   -2    1   10     -1.01      0.00
   -1    1   10     -2.84      0.00
    0    1   10      1.25      0.00
    1    1   10      3.47      0.00
    2    1   10     -1.38      0.00
    3    1   10     -5.40      0.00
    4    1   10     -3.63      0.00
    5    1   10      3.06      0.00
    6    1   10      2.55      0.00
    7    1   10      0.68      0.00
    8    1   10     -1.22      0.00
    9    1   10     -0.11      0.00
   10    1   10      1.33      0.00
   11    1   10      1.27      0.00
   12    1   10      0.76      0.00
   13    1   10     -0.39      0.00
  -10    2   10      0.88      0.00
   -9    2   10      0.06      0.00
   -8    2   10      0.25      0.00
   -7    2   10     -0.66      0.00
   -6    2   10     -0.12      0.00
   -5    2   10      0.24      0.00
   -4    2   10      1.22      0.00
   -3    2   10      1.14      0.00
   -2    2   10     -1.75      0.00
   -1    2   10     -1.21      0.00
    0    2   10      1.33      0.00
    1    2   10      2.47      0.00
    2    2   10     -1.45      0.00
    3    2   10     -5.68      0.00
    4    2   10     -1.37      0.00
    5    2   10      3.15      0.00
    6    2   10      4.50      0.00
    7    2   10     -0.68      0.00
    8    2   10     -1.72      0.00
    9    2   10     -0.50      0.00
   10    2   10      0.99      0.00
   11    2   10      0.98      0.00
   12    2   10      0.45      0.00
   13    2   10      0.62      0.00
   14    2   10      0.27      0.00
  -10    3   10     -0.40      0.00
   -9    3   10      0.30      0.00
   -8    3   10     -0.14      0.00
   -7    3   10      0.15      0.00
   -6    3   10     -0.35      0.00
   -5    3   10      0.84      0.00
   -4    3   10      1.66      0.00
   -3    3   10      0.37      0.00
   -2    3   10     -1.45      0.00
   -1    3   10     -1.97      0.00
    0    3   10      2.56      0.00
    1    3   10      3.71      0.00
    2    3   10     -2.24      0.00
    3    3   10     -3.87      0.00
    4    3   10      0.33      0.00
    5    3   10      5.83      0.00
    6    3   10      2.22      0.00
    7    3   10     -1.07      0.00
    8    3   10     -1.91      0.00
    9    3   10      0.64      0.00
   10    3   10      0.94      0.00
   11    3   10      0.91      0.00
   12    3   10     -0.18      0.00
   13    3   10     -0.61      0.00
   14    3   10      0.37      0.00
  -10    4   10      0.40      0.00
   -9    4   10     -0.87      0.00
   -8    4   10     -0.02      0.00
   -7    4   10     -0.67      0.00
   -6    4   10     -0.38      0.00
   -5    4   10      0.24      0.00
   -4    4   10      1.14      0.00
   -3    4   10      0.26      0.00
   -2    4   10     -2.37      0.00
   -1    4   10     -0.78      0.00
    0    4   10      3.49      0.00
    1    4   10      3.22      0.00
    2    4   10     -0.28      0.00
    3    4   10     -2.40      0.00
    4    4   10      2.33      0.00
    5    4   10      3.77      0.00
    6    4   10      2.11      0.00
    7    4   10     -2.04      0.00
    8    4   10     -0.82      0.00
    9    4   10      0.85      0.00
   10    4   10      2.06      0.00
   11    4   10      0.89      0.00
   12    4   10      0.52      0.00
   13    4   10     -0.05      0.00
   14    4   10     -0.50      0.00
  -10    5   10     -0.06      0.00
   -9    5   10      0.93      0.00
   -8    5   10     -0.10      0.00
   -7    5   10     -0.20      0.00
   -6    5   10     -0.49      0.00
   -5    5   10      0.77      0.00
   -4    5   10      1.01      0.00
   -3    5   10     -0.75      0.00
   -2    5   10     -1.71      0.00
   -1    5   10      0.11      0.00
    0    5   10      2.87      0.00
    1    5   10      3.58      0.00
    2    5   10     -0.45      0.00
    3    5   10     -0.68      0.00
    4    5   10      1.32      0.00
    5    5   10      4.55      0.00
    6    5   10      1.54      0.00
    7    5   10     -0.68      0.00
    8    5   10     -0.45      0.00
    9    5   10      1.52      0.00
   10    5   10      1.57      0.00
   11    5   10      1.44      0.00
   12    5   10     -0.17      0.00
   13    5   10     -0.02      0.00
   -9    6   10     -0.57      0.00
   -8    6   10      0.97      0.00
   -7    6   10      0.15      0.00
   -6    6   10      0.14      0.00
   -5    6   10      0.60      0.00
   -4    6   10      0.47      0.00
   -3    6   10     -0.17      0.00
   -2    6   10     -1.27      0.00
   -1    6   10      0.38      0.00
    0    6   10      4.15      0.00
    1    6   10      2.23      0.00
    2    6   10     -0.14      0.00
    3    6   10     -0.74      0.00
    4    6   10      3.28      0.00
    5    6   10      3.81      0.00
    6    6   10      1.69      0.00
    7    6   10     -0.52      0.00
    8    6   10      0.65      0.00
    9    6   10      2.30      0.00
   10    6   10      2.59      0.00
   11    6   10      1.18      0.00
   12    6   10      0.38      0.00
   13    6   10      0.27      0.00
   -9    7   10      0.93      0.00
   -8    7   10      0.21      0.00
   -7    7   10      0.07      0.00
   -6    7   10     -0.23      0.00
   -5    7   10     -0.22      0.00
   -4    7   10      0.73      0.00
   -3    7   10     -0.21      0.00
   -2    7   10     -0.11      0.00
   -1    7   10      1.97      0.00
    0    7   10      2.43      0.00
    1    7   10      2.10      0.00
    2    7   10     -0.93      0.00
    3    7   10      0.30      0.00
    4    7   10      3.43      0.00
    5    7   10      4.71      0.00
    6    7   10      1.66      0.00
    7    7   10     -0.15      0.00
    8    7   10      1.42      0.00
    9    7   10      2.12      0.00
   10    7   10      1.70      0.00
   11    7   10      0.79      0.00
   12    7   10     -0.15      0.00
   13    7   10     -0.50      0.00
   -9    8   10     -1.12      0.00
   -8    8   10      0.01      0.00
   -7    8   10     -0.22      0.00
   -6    8   10     -0.90      0.00
   -5    8   10      0.64      0.00
   -4    8   10      0.52      0.00
   -3    8   10      0.16      0.00
   -2    8   10     -0.49      0.00
   -1    8   10      1.34      0.00
    0    8   10      4.17      0.00
    1    8   10      1.32      0.00
    2    8   10     -0.48      0.00
    3    8   10      0.25      0.00
    4    8   10      2.90      0.00
    5    8   10      3.71      0.00
    6    8   10      1.73      0.00
    7    8   10      0.51      0.00
    8    8   10      0.54      0.00
    9    8   10      1.81      0.00
   10    8   10      1.66      0.00
   11    8   10      0.06      0.00
   12    8   10     -1.36      0.00
   13    8   10     -0.73      0.00
   -8    9   10     -0.23      0.00
   -7    9   10     -1.02      0.00
   -6    9   10     -0.03      0.00
   -5    9   10     -0.07      0.00
   -4    9   10      0.93      0.00
   -3    9   10      0.04      0.00
   -2    9   10     -0.02      0.00
   -1    9   10      1.46      0.00
    0    9   10      1.06      0.00
    1    9   10      0.90      0.00
    2    9   10     -0.14      0.00
    3    9   10      0.64      0.00
    4    9   10      2.57      0.00
    5    9   10      2.28      0.00
    6    9   10      0.53      0.00
    7    9   10     -0.23      0.00
    8    9   10      0.82      0.00
    9    9   10      1.28      0.00
   10    9   10      0.77      0.00
   11    9   10     -0.71      0.00
   12    9   10     -0.73      0.00
   13    9   10      0.22      0.00
   -8   10   10     -0.17      0.00
   -7   10   10      0.45      0.00
   -6   10   10     -0.20      0.00
   -5   10   10      1.11      0.00
   -4   10   10      0.85      0.00
   -3   10   10     -0.34      0.00
   -2   10   10     -0.31      0.00
   -1   10   10      1.15      0.00
    0   10   10      1.82      0.00
    1   10   10     -0.98      0.00
    2   10   10     -1.50      0.00
    3   10   10      0.49      0.00
    4   10   10      1.96      0.00
    5   10   10      1.42      0.00
    6   10   10     -0.17      0.00
    7   10   10     -0.91      0.00
    8   10   10      0.31      0.00
    9   10   10      1.21      0.00
   10   10   10      0.47      0.00
   11   10   10     -0.49      0.00
   12   10   10     -0.28      0.00
   13   10   10      0.72      0.00
   -8   11   10      0.99      0.00
   -7   11   10     -0.21      0.00
   -6   11   10      0.36      0.00
   -5   11   10      1.09      0.00
   -4   11   10      0.48      0.00
   -3   11   10     -1.01      0.00
   -2   11   10     -0.89      0.00
   -1   11   10      0.93      0.00
    0   11   10      0.46      0.00
    1   11   10     -0.33      0.00
    2   11   10     -0.59      0.00
    3   11   10      0.55      0.00
    4   11   10      1.29      0.00
    5   11   10      0.93      0.00
    6   11   10     -0.64      0.00
    7   11   10     -0.52      0.00
    8   11   10     -0.18      0.00
    9   11   10      0.54      0.00
   10   11   10     -0.06      0.00
   11   11   10     -0.28      0.00
   12   11   10      1.16      0.00
   -7   12   10      1.05      0.00
   -6   12   10      0.91      0.00
   -5   12   10      0.10      0.00
   -4   12   10     -0.18      0.00
   -3   12   10     -0.74      0.00
   -2   12   10     -0.41      0.00
   -1   12   10      0.37      0.00
    0   12   10      0.24      0.00
    1   12   10     -1.12      0.00
    2   12   10     -0.30      0.00
    3   12   10      0.38      0.00
    4   12   10      1.10      0.00
    5   12   10      0.33      0.00
    6   12   10     -0.21      0.00
    7   12   10     -0.64      0.00
    8   12   10      0.66      0.00
    9   12   10      0.42      0.00
   10   12   10     -0.03      0.00
   11   12   10     -0.02      0.00
   12   12   10     -0.30      0.00
   -6   13   10     -0.25      0.00
   -5   13   10      0.60      0.00
   -4   13   10      0.04      0.00
   -3   13   10     -1.06      0.00
   -2   13   10     -0.02      0.00
   -1   13   10      1.27      0.00
    0   13   10      0.34      0.00
    1   13   10      0.01      0.00
    2   13   10     -0.57      0.00
    3   13   10      0.07      0.00
    4   13   10     -0.04      0.00
    5   13   10      0.17      0.00
    6   13   10     -0.25      0.00
    7   13   10      0.00      0.00
    8   13   10      0.15      0.00
    9   13   10      0.84      0.00
   10   13   10     -0.02      0.00
   11   13   10     -0.36      0.00
   -6   14   10     -0.45      0.00
   -5   14   10      0.10      0.00
   -4   14   10     -0.48      0.00
   -3   14   10     -1.03      0.00
   -2   14   10     -0.52      0.00
   -1   14   10      0.35      0.00
    0   14   10      0.74      0.00
    1   14   10     -0.28      0.00
    2   14   10      0.09      0.00
    3   14   10     -0.20      0.00
    4   14   10      0.29      0.00
    5   14   10      0.41      0.00
    6   14   10     -0.06      0.00
    7   14   10     -0.15      0.00
    8   14   10      0.88      0.00
    9   14   10      0.01      0.00
   10   14   10     -0.69      0.00
   11   14   10      0.09      0.00
   -5   15   10      0.02      0.00
   -4   15   10     -0.14      0.00
   -3   15   10     -0.93      0.00
   -2   15   10     -0.40      0.00
   -1   15   10      0.82      0.00
    0   15   10     -0.32      0.00
    1   15   10     -0.78      0.00
    2   15   10     -0.93      0.00
    3   15   10     -0.19      0.00
    4   15   10      0.53      0.00
    5   15   10      0.33      0.00
    6   15   10     -0.17      0.00
    7   15   10      0.52      0.00
    8   15   10      0.43      0.00
    9   15   10      0.07      0.00
   10   15   10     -0.36      0.00
   -4   16   10     -0.33      0.00
   -3   16   10     -0.50      0.00
   -2   16   10      0.84      0.00
   -1   16   10      0.61      0.00
    0   16   10      0.20      0.00
    1   16   10     -0.80      0.00
    2   16   10     -1.05      0.00
    3   16   10     -0.01      0.00
    4   16   10      0.59      0.00
    5   16   10      0.12      0.00
    6   16   10      0.05      0.00
    7   16   10     -0.34      0.00
    8   16   10      0.26      0.00
    9   16   10     -0.10      0.00
   -3   17   10      0.09      0.00
   -2   17   10      0.25      0.00
   -1   17   10      0.67      0.00
    0   17   10     -0.30      0.00
    1   17   10     -0.32      0.00
    2   17   10      0.39      0.00
    3   17   10     -0.02      0.00
    4   17   10      0.11      0.00
    5   17   10      0.55      0.00
    6   17   10     -0.95      0.00
    7   17   10     -0.15      0.00
    8   17   10      0.41      0.00
   -2   18   10      0.55      0.00
   -1   18   10     -0.01      0.00
    0   18   10     -0.09      0.00
    1   18   10      0.05      0.00
    2   18   10     -0.17      0.00
    3   18   10      0.50      0.00
    4   18   10      0.64      0.00
    5   18   10     -0.74      0.00
    6   18   10      0.26      0.00
    7   18   10      0.07      0.00
    0   19   10      0.08      0.00
    1   19   10     -0.20      0.00
    2   19   10      0.04      0.00
    3   19   10      0.18      0.00
    4   19   10      0.06      0.00
    5   19   10      0.52      0.00
   -2  -16   11     -0.48      0.00
   -1  -16   11     -0.63      0.00
    0  -16   11     -0.13      0.00
    1  -16   11      0.47      0.00
    2  -16   11      0.03      0.00
    3  -16   11      0.33      0.00
   -4  -15   11     -0.42      0.00
   -3  -15   11     -0.63      0.00
   -2  -15   11     -0.40      0.00
   -1  -15   11      0.13      0.00
    0  -15   11      0.13      0.00
    1  -15   11     -0.48      0.00
    2  -15   11      0.63      0.00
    3  -15   11      0.24      0.00
    4  -15   11     -0.38      0.00
    5  -15   11     -0.43      0.00
   -5  -14   11     -0.64      0.00
   -4  -14   11     -0.52      0.00
   -3  -14   11     -0.34      0.00
   -2  -14   11     -0.23      0.00
   -1  -14   11     -0.22      0.00
    0  -14   11     -0.01      0.00
    1  -14   11      0.78      0.00
    2  -14   11      0.43      0.00
    3  -14   11      0.56      0.00
    4  -14   11     -0.38      0.00
    5  -14   11     -0.72      0.00
    6  -14   11     -0.07      0.00
   -6  -13   11      0.42      0.00
   -5  -13   11      0.19      0.00
   -4  -13   11     -0.45      0.00
   -3  -13   11     -0.29      0.00
   -2  -13   11     -0.43      0.00
   -1  -13   11     -0.36      0.00
    0  -13   11      0.49      0.00
    1  -13   11      0.78      0.00
    2  -13   11      1.01      0.00
    3  -13   11     -0.43      0.00
    4  -13   11     -0.89      0.00
    5  -13   11     -0.05      0.00
    6  -13   11     -0.61      0.00
    7  -13   11      0.07      0.00
   -7  -12   11      0.20      0.00
   -6  -12   11      0.11      0.00
   -5  -12   11      0.08      0.00
   -4  -12   11      0.20      0.00
   -3  -12   11      0.22      0.00
   -2  -12   11     -0.28      0.00
   -1  -12   11      0.12      0.00
    0  -12   11      0.68      0.00
    1  -12   11      0.45      0.00
    2  -12   11     -0.36      0.00
    3  -12   11     -0.14      0.00
    4  -12   11      0.06      0.00
    5  -12   11     -0.38      0.00
    6  -12   11      0.05      0.00
    7  -12   11     -0.22      0.00
    8  -12   11      0.72      0.00
   -7  -11   11      0.47      0.00
   -6  -11   11      0.46      0.00
   -5  -11   11     -0.21      0.00
   -4  -11   11     -0.01      0.00
   -3  -11   11     -0.45      0.00
   -2  -11   11     -0.09      0.00
   -1  -11   11      0.38      0.00
    0  -11   11      0.39      0.00
    1  -11   11     -0.11      0.00
    2  -11   11     -0.37      0.00
    3  -11   11     -0.54      0.00
    4  -11   11     -0.32      0.00
    5  -11   11      0.29      0.00
    6  -11   11     -0.24      0.00
    7  -11   11      0.38      0.00
    8  -11   11      0.25      0.00
    9  -11   11      0.50      0.00
   -8  -10   11      1.10      0.00
   -7  -10   11      0.28      0.00
   -6  -10   11      0.30      0.00
   -5  -10   11     -0.10      0.00
   -4  -10   11     -0.62      0.00
   -3  -10   11      0.12      0.00
   -2  -10   11     -0.64      0.00
   -1  -10   11      0.02      0.00
    0  -10   11      0.50      0.00
    1  -10   11     -0.39      0.00
    2  -10   11     -0.87      0.00
    3  -10   11     -0.52      0.00
    4  -10   11      0.27      0.00
    5  -10   11      0.10      0.00
    6  -10   11     -0.34      0.00
    7  -10   11     -0.10      0.00
    8  -10   11      0.32      0.00
    9  -10   11     -0.22      0.00
   10  -10   11      0.29      0.00
   -8   -9   11     -0.87      0.00
   -7   -9   11      0.63      0.00
   -6   -9   11      0.22      0.00
   -5   -9   11     -0.02      0.00
   -4   -9   11      0.27      0.00
   -3   -9   11     -0.82      0.00
   -2   -9   11     -0.37      0.00
   -1   -9   11      0.23      0.00
    0   -9   11      0.03      0.00
    1   -9   11     -1.04      0.00
    2   -9   11     -0.81      0.00
    3   -9   11      0.70      0.00
    4   -9   11      0.33      0.00
    5   -9   11     -0.87      0.00
    6   -9   11     -0.28      0.00
    7   -9   11      0.07      0.00
    8   -9   11      0.18      0.00
    9   -9   11      0.21      0.00
   10   -9   11     -0.15      0.00
   -9   -8   11      0.40      0.00
   -8   -8   11      0.97      0.00
   -7   -8   11      0.07      0.00
   -6   -8   11      0.49      0.00
   -5   -8   11     -0.23      0.00
   -4   -8   11     -0.46      0.00
   -3   -8   11     -0.55      0.00
   -2   -8   11     -0.19      0.00
   -1   -8   11      0.88      0.00
    0   -8   11     -0.44      0.00
    1   -8   11     -0.90      0.00
    2   -8   11      0.15      0.00
    3   -8   11     -0.15      0.00
    4   -8   11     -0.37      0.00
    5   -8   11      0.31      0.00
    6   -8   11     -0.64      0.00
    7   -8   11     -0.42      0.00
    8   -8   11     -0.44      0.00
    9   -8   11     -0.29      0.00
   10   -8   11      0.38      0.00
   11   -8   11     -0.01      0.00
   -9   -7   11      0.10      0.00
   -8   -7   11     -0.26      0.00
   -7   -7   11      0.92      0.00
   -6   -7   11      0.68      0.00
   -5   -7   11      1.11      0.00
   -4   -7   11      0.09      0.00
   -3   -7   11     -0.65      0.00
   -2   -7   11     -0.49      0.00
   -1   -7   11      0.27      0.00
    0   -7   11      0.71      0.00
    1   -7   11     -0.65      0.00
    2   -7   11     -0.91      0.00
    3   -7   11      0.15      0.00
    4   -7   11      0.29      0.00
    5   -7   11     -1.15      0.00
    6   -7   11     -0.48      0.00
    7   -7   11      0.16      0.00
    8   -7   11      0.55      0.00
    9   -7   11      0.04      0.00
   10   -7   11     -0.58      0.00
   11   -7   11     -0.30      0.00
   -9   -6   11     -0.26      0.00
   -8   -6   11      0.03      0.00
   -7   -6   11      0.73      0.00
   -6   -6   11      1.14      0.00
   -5   -6   11     -0.20      0.00
   -4   -6   11     -0.03      0.00
   -3   -6   11     -0.50      0.00
   -2   -6   11      0.35      0.00
   -1   -6   11      1.13      0.00
    0   -6   11     -0.70      0.00
    1   -6   11     -1.18      0.00
    2   -6   11     -0.13      0.00
    3   -6   11      0.01      0.00
    4   -6   11     -1.13      0.00
    5   -6   11     -0.61      0.00
    6   -6   11     -0.21      0.00
    7   -6   11     -0.02      0.00
    8   -6   11     -0.15      0.00
    9   -6   11      0.34      0.00
   10   -6   11      0.78      0.00
   11   -6   11      0.64      0.00
   12   -6   11      0.29      0.00
   -9   -5   11     -0.10      0.00
   -8   -5   11      0.22      0.00
   -7   -5   11      0.58      0.00
   -6   -5   11     -0.05      0.00
   -5   -5   11      0.22      0.00
   -4   -5   11     -0.79      0.00
   -3   -5   11     -0.72      0.00
   -2   -5   11      1.37      0.00
   -1   -5   11      1.52      0.00
    0   -5   11     -0.65      0.00
    1   -5   11     -1.69      0.00
    2   -5   11     -0.56      0.00
    3   -5   11     -0.28      0.00
    4   -5   11     -0.33      0.00
    5   -5   11     -0.40      0.00
    6   -5   11     -0.02      0.00
    7   -5   11      0.40      0.00
    8   -5   11      0.60      0.00
    9   -5   11      0.19      0.00
   10   -5   11     -0.04      0.00
   11   -5   11      0.21      0.00
   12   -5   11      0.15      0.00
   -9   -4   11     -0.86      0.00
   -8   -4   11     -0.74      0.00
   -7   -4   11     -0.53      0.00
   -6   -4   11      0.08      0.00
   -5   -4   11     -0.01      0.00
   -4   -4   11     -0.60      0.00
   -3   -4   11     -0.29      0.00
   -2   -4   11      0.64      0.00
   -1   -4   11      1.22      0.00
    0   -4   11     -0.66      0.00
    1   -4   11     -1.95      0.00
    2   -4   11     -0.83      0.00
    3   -4   11     -0.03      0.00
    4   -4   11     -0.04      0.00
    5   -4   11      0.31      0.00
    6   -4   11      0.78      0.00
    7   -4   11      0.73      0.00
    8   -4   11      0.36      0.00
    9   -4   11      0.16      0.00
   10   -4   11      0.30      0.00
   11   -4   11     -0.26      0.00
   12   -4   11     -0.31      0.00
  -10   -3   11     -0.89      0.00
   -9   -3   11      0.39      0.00
   -8   -3   11     -0.14      0.00
   -7   -3   11     -0.20      0.00
   -6   -3   11     -0.02      0.00
   -5   -3   11     -0.10      0.00
   -4   -3   11     -0.15      0.00
   -3   -3   11      0.20      0.00
   -2   -3   11      1.74      0.00
   -1   -3   11     -0.35      0.00
    0   -3   11     -2.91      0.00
    1   -3   11     -1.58      0.00
    2   -3   11      0.41      0.00
    3   -3   11      0.72      0.00
    4   -3   11     -0.22      0.00
    5   -3   11      0.02      0.00
    6   -3   11      0.41      0.00
    7   -3   11      0.37      0.00
    8   -3   11      0.01      0.00
    9   -3   11      0.14      0.00
   10   -3   11     -0.34      0.00
   11   -3   11     -0.15      0.00
   12   -3   11     -0.23      0.00
   13   -3   11      0.32      0.00
  -10   -2   11      1.13      0.00
   -9   -2   11     -0.40      0.00
   -8   -2   11     -0.52      0.00
   -7   -2   11     -0.21      0.00
   -6   -2   11      0.10      0.00
   -5   -2   11      0.12      0.00
   -4   -2   11     -0.33      0.00
   -3   -2   11      0.52      0.00
   -2   -2   11      0.90      0.00
   -1   -2   11     -0.20      0.00
    0   -2   11     -2.91      0.00
    1   -2   11     -2.40      0.00
    2   -2   11      1.38      0.00
    3   -2   11      2.04      0.00
    4   -2   11      0.66      0.00
    5   -2   11     -0.60      0.00
    6   -2   11     -0.35      0.00
    7   -2   11     -0.27      0.00
    8   -2   11     -0.22      0.00
    9   -2   11     -0.82      0.00
   10   -2   11      0.07      0.00
   11   -2   11      0.25      0.00
   12   -2   11      0.58      0.00
   13   -2   11      0.56      0.00
  -10   -1   11     -0.05      0.00
   -9   -1   11      0.67      0.00
   -8   -1   11      0.10      0.00
   -7   -1   11     -0.11      0.00
   -6   -1   11      0.27      0.00
   -5   -1   11      0.10      0.00
   -4   -1   11     -0.59      0.00
   -3   -1   11      0.05      0.00
   -2   -1   11      0.37      0.00
   -1   -1   11     -2.52      0.00
    0   -1   11     -3.17      0.00
    1   -1   11      0.18      0.00
    2   -1   11      2.72      0.00
    3   -1   11      1.62      0.00
    4   -1   11     -0.56      0.00
    5   -1   11     -0.25      0.00
    6   -1   11     -0.19      0.00
    7   -1   11     -0.16      0.00
    8   -1   11     -0.87      0.00
    9   -1   11      0.42      0.00
   10   -1   11      0.40      0.00
   11   -1   11      0.38      0.00
   12   -1   11      0.72      0.00
   13   -1   11      0.62      0.00
  -10    0   11      0.77      0.00
   -9    0   11      0.32      0.00
   -8    0   11     -0.45      0.00
   -7    0   11     -0.44      0.00
   -6    0   11     -0.21      0.00
   -5    0   11     -0.68      0.00
   -4    0   11      0.01      0.00
   -3    0   11      0.47      0.00
   -2    0   11      0.20      0.00
   -1    0   11     -1.10      0.00
    0    0   11     -2.79      0.00
    1    0   11      0.28      0.00
    2    0   11      3.01      0.00
    3    0   11      1.38      0.00
    4    0   11     -1.23      0.00
    5    0   11     -1.52      0.00
    6    0   11      0.75      0.00
    7    0   11      0.66      0.00
    8    0   11      0.87      0.00
    9    0   11     -0.31      0.00
   10    0   11      0.42      0.00
   11    0   11      1.40      0.00
   12    0   11      1.18      0.00
   13    0   11      0.64      0.00
  -10    1   11      1.43      0.00
   -9    1   11      0.55      0.00
   -8    1   11     -0.15      0.00
   -7    1   11     -0.25      0.00
   -6    1   11     -0.60      0.00
   -5    1   11     -0.39      0.00
   -4    1   11     -0.45      0.00
   -3    1   11      0.83      0.00
   -2    1   11      0.68      0.00
   -1    1   11     -1.94      0.00
    0    1   11     -1.06      0.00
    1    1   11      1.49      0.00
    2    1   11      2.84      0.00
    3    1   11      0.09      0.00
    4    1   11     -2.17      0.00
    5    1   11     -1.04      0.00
    6    1   11      0.48      0.00
    7    1   11      2.67      0.00
    8    1   11      0.56      0.00
    9    1   11      0.44      0.00
   10    1   11      0.77      0.00
   11    1   11      0.88      0.00
   12    1   11      1.04      0.00
   13    1   11      0.43      0.00
  -10    2   11      0.11      0.00
   -9    2   11      0.32      0.00
   -8    2   11      0.12      0.00
   -7    2   11     -0.05      0.00
   -6    2   11      0.06      0.00
   -5    2   11     -0.17      0.00
   -4    2   11      0.95      0.00
   -3    2   11      1.51      0.00
   -2    2   11      0.61      0.00
   -1    2   11     -1.24      0.00
    0    2   11     -1.68      0.00
    1    2   11      2.63      0.00
    2    2   11      3.03      0.00
    3    2   11     -0.68      0.00
    4    2   11     -2.89      0.00
    5    2   11     -0.67      0.00
    6    2   11      3.38      0.00
    7    2   11      1.28      0.00
    8    2   11      0.76      0.00
    9    2   11      0.34      0.00
   10    2   11      0.91      0.00
   11    2   11      1.25      0.00
   12    2   11      0.83      0.00
   13    2   11      0.21      0.00
   -9    3   11      0.04      0.00
   -8    3   11     -0.51      0.00
   -7    3   11      0.14      0.00
   -6    3   11     -0.14      0.00
   -5    3   11     -0.13      0.00
   -4    3   11      0.70      0.00
   -3    3   11      1.96      0.00
   -2    3   11      0.83      0.00
   -1    3   11     -1.58      0.00
    0    3   11     -0.53      0.00
    1    3   11      2.22      0.00
    2    3   11      3.01      0.00
    3    3   11     -0.16      0.00
    4    3   11     -1.23      0.00
    5    3   11      1.52      0.00
    6    3   11      2.03      0.00
    7    3   11      2.65      0.00
    8    3   11     -0.41      0.00
    9    3   11     -0.38      0.00
   10    3   11      0.67      0.00
   11    3   11      1.43      0.00
   12    3   11      1.30      0.00
   13    3   11      0.37      0.00
   -9    4   11     -0.37      0.00
   -8    4   11      0.64      0.00
   -7    4   11     -0.13      0.00
   -6    4   11     -1.05      0.00
   -5    4   11     -0.38      0.00
   -4    4   11      1.64      0.00
   -3    4   11      1.65      0.00
   -2    4   11      0.06      0.00
   -1    4   11     -1.48      0.00
    0    4   11      0.10      0.00
    1    4   11      2.79      0.00
    2    4   11      2.07      0.00
    3    4   11      0.33      0.00
    4    4   11      0.07      0.00
    5    4   11      0.87      0.00
    6    4   11      3.68      0.00
    7    4   11      1.55      0.00
    8    4   11      0.66      0.00
    9    4   11     -0.17      0.00
   10    4   11      0.60      0.00
   11    4   11      1.19      0.00
   12    4   11      0.36      0.00
   13    4   11     -0.78      0.00
   -9    5   11     -0.16      0.00
   -8    5   11     -0.63      0.00
   -7    5   11     -0.10      0.00
   -6    5   11     -0.46      0.00
   -5    5   11      0.26      0.00
   -4    5   11      1.14      0.00
   -3    5   11      1.54      0.00
   -2    5   11     -0.18      0.00
   -1    5   11     -1.39      0.00
    0    5   11      0.17      0.00
    1    5   11      3.20      0.00
    2    5   11      2.72      0.00
    3    5   11     -0.05      0.00
    4    5   11     -0.61      0.00
    5    5   11      2.69      0.00
    6    5   11      2.88      0.00
    7    5   11      1.67      0.00
    8    5   11     -0.97      0.00
    9    5   11      0.05      0.00
   10    5   11      1.29      0.00
   11    5   11      1.20      0.00
   12    5   11      0.54      0.00
   13    5   11      0.17      0.00
   -9    6   11     -0.13      0.00
   -8    6   11      1.25      0.00
   -7    6   11      0.31      0.00
   -6    6   11     -0.19      0.00
   -5    6   11      0.24      0.00
   -4    6   11      1.25      0.00
   -3    6   11      0.88      0.00
   -2    6   11     -0.37      0.00
   -1    6   11     -0.56      0.00
    0    6   11      1.45      0.00
    1    6   11      2.55      0.00
    2    6   11      1.98      0.00
    3    6   11      0.01      0.00
    4    6   11      0.32      0.00
    5    6   11      1.75      0.00
    6    6   11      3.08      0.00
    7    6   11      1.05      0.00
    8    6   11      0.18      0.00
    9    6   11      0.30      0.00
   10    6   11      0.60      0.00
   11    6   11      0.87      0.00
   12    6   11      0.54      0.00
   13    6   11      0.18      0.00
   -9    7   11      0.44      0.00
   -8    7   11     -0.29      0.00
   -7    7   11      0.09      0.00
   -6    7   11     -0.01      0.00
   -5    7   11      0.40      0.00
   -4    7   11      1.16      0.00
   -3    7   11      0.49      0.00
   -2    7   11     -0.41      0.00
   -1    7   11     -0.76      0.00
    0    7   11      1.18      0.00
    1    7   11      3.41      0.00
    2    7   11      1.65      0.00
    3    7   11      0.23      0.00
    4    7   11      0.05      0.00
    5    7   11      1.66      0.00
    6    7   11      2.33      0.00
    7    7   11      1.48      0.00
    8    7   11      0.43      0.00
    9    7   11      0.26      0.00
   10    7   11      1.15      0.00
   11    7   11      1.24      0.00
   12    7   11      0.61      0.00
   13    7   11     -0.31      0.00
   -8    8   11      0.53      0.00
   -7    8   11     -0.27      0.00
   -6    8   11     -1.06      0.00
   -5    8   11      0.19      0.00
   -4    8   11      0.05      0.00
   -3    8   11      0.59      0.00
   -2    8   11     -0.33      0.00
   -1    8   11     -0.06      0.00
    0    8   11      1.33      0.00
    1    8   11      1.30      0.00
    2    8   11      1.06      0.00
    3    8   11     -0.34      0.00
    4    8   11      0.11      0.00
    5    8   11      1.88      0.00
    6    8   11      2.09      0.00
    7    8   11      0.88      0.00
    8    8   11     -0.32      0.00
    9    8   11      0.34      0.00
   10    8   11      0.78      0.00
   11    8   11      1.14      0.00
   12    8   11      0.20      0.00
   13    8   11     -0.56      0.00
   -8    9   11     -0.23      0.00
   -7    9   11     -0.61      0.00
   -6    9   11     -0.20      0.00
   -5    9   11     -1.14      0.00
   -4    9   11      0.89      0.00
   -3    9   11      0.36      0.00
   -2    9   11     -0.35      0.00
   -1    9   11      0.04      0.00
    0    9   11      1.47      0.00
    1    9   11      2.01      0.00
    2    9   11     -0.49      0.00
    3    9   11     -1.38      0.00
    4    9   11     -0.18      0.00
    5    9   11      1.30      0.00
    6    9   11      1.80      0.00
    7    9   11      0.15      0.00
    8    9   11     -0.53      0.00
    9    9   11     -0.12      0.00
   10    9   11      0.98      0.00
   11    9   11      0.30      0.00
   12    9   11     -0.51      0.00
   13    9   11     -0.02      0.00
   -7   10   11      0.25      0.00
   -6   10   11     -1.21      0.00
   -5   10   11      0.71      0.00
   -4   10   11      0.54      0.00
   -3   10   11      0.38      0.00
   -2   10   11     -0.84      0.00
   -1   10   11     -0.75      0.00
    0   10   11      0.99      0.00
    1   10   11      0.53      0.00
    2   10   11     -0.67      0.00
    3   10   11     -1.20      0.00
    4   10   11     -0.28      0.00
    5   10   11      1.32      0.00
    6   10   11      0.93      0.00
    7   10   11     -0.13      0.00
    8   10   11     -0.56      0.00
    9   10   11     -0.14      0.00
   10   10   11     -0.12      0.00
   11   10   11     -0.16      0.00
   12   10   11      0.16      0.00
   -7   11   11     -1.07      0.00
   -6   11   11      1.14      0.00
   -5   11   11      0.93      0.00
   -4   11   11      0.88      0.00
   -3   11   11     -0.13      0.00
   -2   11   11     -0.82      0.00
   -1   11   11     -0.03      0.00
    0   11   11      0.62      0.00
    1   11   11     -0.10      0.00
    2   11   11     -1.61      0.00
    3   11   11     -1.56      0.00
    4   11   11     -0.08      0.00
    5   11   11      0.64      0.00
    6   11   11      0.32      0.00
    7   11   11     -0.64      0.00
    8   11   11     -0.97      0.00
    9   11   11     -0.22      0.00
   10   11   11      0.01      0.00
   11   11   11      0.11      0.00
   12   11   11     -0.40      0.00
   -6   12   11     -0.38      0.00
   -5   12   11      0.18      0.00
   -4   12   11      0.86      0.00
   -3   12   11     -0.15      0.00
   -2   12   11     -1.27      0.00
   -1   12   11     -0.07      0.00
    0   12   11      1.09      0.00
    1   12   11      0.13      0.00
    2   12   11     -0.69      0.00
    3   12   11     -0.31      0.00
    4   12   11     -0.17      0.00
    5   12   11      0.08      0.00
    6   12   11     -0.17      0.00
    7   12   11     -0.96      0.00
    8   12   11     -1.02      0.00
    9   12   11     -0.82      0.00
   10   12   11     -0.07      0.00
   11   12   11     -0.49      0.00
   12   12   11      0.03      0.00
   -6   13   11      0.54      0.00
   -5   13   11      0.42      0.00
   -4   13   11      0.07      0.00
   -3   13   11     -0.49      0.00
   -2   13   11     -0.94      0.00
   -1   13   11     -0.75      0.00
    0   13   11     -0.01      0.00
    1   13   11     -0.23      0.00
    2   13   11     -0.49      0.00
    3   13   11     -0.30      0.00
    4   13   11      0.41      0.00
    5   13   11      0.47      0.00
    6   13   11      0.06      0.00
    7   13   11     -0.62      0.00
    8   13   11     -0.73      0.00
    9   13   11      0.21      0.00
   10   13   11     -0.62      0.00
   11   13   11     -0.59      0.00
   -5   14   11      0.04      0.00
   -4   14   11      0.16      0.00
   -3   14   11     -0.31      0.00
   -2   14   11     -1.12      0.00
   -1   14   11     -0.15      0.00
    0   14   11      0.51      0.00
    1   14   11     -0.38      0.00
    2   14   11     -1.05      0.00
    3   14   11     -0.70      0.00
    4   14   11     -0.54      0.00
    5   14   11      0.23      0.00
    6   14   11     -0.32      0.00
    7   14   11     -0.61      0.00
    8   14   11      0.56      0.00
    9   14   11      0.22      0.00
   10   14   11      0.10      0.00
   11   14   11      0.05      0.00
   -4   15   11     -0.07      0.00
   -3   15   11     -0.96      0.00
   -2   15   11     -1.34      0.00
   -1   15   11     -0.09      0.00
    0   15   11      0.27      0.00
    1   15   11      0.06      0.00
    2   15   11     -0.44      0.00
    3   15   11     -1.30      0.00
    4   15   11     -0.38      0.00
    5   15   11      0.05      0.00
    6   15   11      0.31      0.00
    7   15   11     -0.07      0.00
    8   15   11     -0.78      0.00
    9   15   11      0.24      0.00
   10   15   11     -0.06      0.00
   -3   16   11     -0.62      0.00
   -2   16   11     -0.61      0.00
   -1   16   11     -0.45      0.00
    0   16   11      0.11      0.00
    1   16   11     -0.64      0.00
    2   16   11     -0.84      0.00
    3   16   11     -0.10      0.00
    4   16   11     -0.37      0.00
    5   16   11      0.65      0.00
    6   16   11      0.23      0.00
    7   16   11     -0.91      0.00
    8   16   11      0.28      0.00
    9   16   11     -0.02      0.00
   -2   17   11     -0.49      0.00
   -1   17   11      0.67      0.00
    0   17   11      0.17      0.00
    1   17   11     -0.19      0.00
    2   17   11     -0.57      0.00
    3   17   11     -0.98      0.00
    4   17   11      0.80      0.00
    5   17   11      0.65      0.00
    6   17   11     -0.62      0.00
    7   17   11      0.07      0.00
    8   17   11     -0.20      0.00
   -1   18   11      0.18      0.00
    0   18   11      0.48      0.00
    1   18   11      0.19      0.00
    2   18   11     -0.43      0.00
    3   18   11     -0.07      0.00
    4   18   11     -0.01      0.00
    5   18   11      0.37      0.00
    6   18   11      0.29      0.00
    7   18   11     -1.05      0.00
    2   19   11      0.67      0.00
    3   19   11      0.45      0.00
    4   19   11      0.38      0.00
   -2  -15   12     -0.34      0.00
   -1  -15   12      0.18      0.00
    0  -15   12     -0.35      0.00
    1  -15   12      0.05      0.00
    2  -15   12     -0.14      0.00
    3  -15   12      0.08      0.00
    4  -15   12      0.50      0.00
   -4  -14   12      0.67      0.00
   -3  -14   12     -0.71      0.00
   -2  -14   12     -0.02      0.00
   -1  -14   12     -0.11      0.00
    0  -14   12     -0.51      0.00
    1  -14   12     -0.74      0.00
    2  -14   12      0.51      0.00
    3  -14   12      0.65      0.00
    4  -14   12     -0.35      0.00
    5  -14   12     -0.09      0.00
    6  -14   12     -0.20      0.00
   -5  -13   12     -0.19      0.00
   -4  -13   12     -0.80      0.00
   -3  -13   12      0.28      0.00
   -2  -13   12     -0.18      0.00
   -1  -13   12     -0.25      0.00
    0  -13   12     -0.16      0.00
    1  -13   12      0.29      0.00
    2  -13   12      0.09      0.00
    3  -13   12      0.21      0.00
    4  -13   12      0.30      0.00
    5  -13   12     -0.28      0.00
    6  -13   12     -0.05      0.00
    7  -13   12     -0.17      0.00
   -6  -12   12     -0.19      0.00
   -5  -12   12     -0.18      0.00
   -4  -12   12      0.20      0.00
   -3  -12   12     -0.54      0.00
   -2  -12   12     -0.18      0.00
   -1  -12   12     -0.25      0.00
    0  -12   12     -0.46      0.00
    1  -12   12     -0.01      0.00
    2  -12   12      0.81      0.00
    3  -12   12      0.62      0.00
    4  -12   12     -0.34      0.00
    5  -12   12     -0.77      0.00
    6  -12   12     -0.15      0.00
    7  -12   12      0.37      0.00
    8  -12   12      0.04      0.00
   -6  -11   12     -0.32      0.00
   -5  -11   12      0.15      0.00
   -4  -11   12      0.02      0.00
   -3  -11   12      0.21      0.00
   -2  -11   12      0.08      0.00
   -1  -11   12     -0.63      0.00
    0  -11   12     -0.20      0.00
    1  -11   12      0.64      0.00
    2  -11   12      0.57      0.00
    3  -11   12     -0.08      0.00
    4  -11   12     -0.71      0.00
    5  -11   12     -0.23      0.00
    6  -11   12      0.35      0.00
    7  -11   12      0.00      0.00
    8  -11   12      0.26      0.00
    9  -11   12      0.29      0.00
   -7  -10   12     -0.52      0.00
   -6  -10   12     -0.05      0.00
   -5  -10   12     -0.31      0.00
   -4  -10   12      0.35      0.00
   -3  -10   12      0.45      0.00
   -2  -10   12     -0.47      0.00
   -1  -10   12     -0.24      0.00
    0  -10   12      0.35      0.00
    1  -10   12      0.27      0.00
    2  -10   12     -0.39      0.00
    3  -10   12     -0.19      0.00
    4  -10   12      0.03      0.00
    5  -10   12     -0.49      0.00
    6  -10   12     -0.15      0.00
    7  -10   12      0.65      0.00
    8  -10   12     -0.20      0.00
    9  -10   12      0.62      0.00
   -7   -9   12      0.66      0.00
   -6   -9   12     -0.36      0.00
   -5   -9   12      0.32      0.00
   -4   -9   12      0.17      0.00
   -3   -9   12     -0.24      0.00
   -2   -9   12     -0.42      0.00
   -1   -9   12     -0.16      0.00
    0   -9   12      0.16      0.00
    1   -9   12     -0.32      0.00
    2   -9   12      0.30      0.00
    3   -9   12      0.27      0.00
    4   -9   12     -0.97      0.00
    5   -9   12     -0.60      0.00
    6   -9   12      0.99      0.00
    7   -9   12     -0.06      0.00
    8   -9   12      0.11      0.00
    9   -9   12     -0.49      0.00
   10   -9   12      0.43      0.00
   -8   -8   12      0.12      0.00
   -7   -8   12     -0.51      0.00
   -6   -8   12     -0.26      0.00
   -5   -8   12      0.19      0.00
   -4   -8   12      1.15      0.00
   -3   -8   12      0.47      0.00
   -2   -8   12     -0.15      0.00
   -1   -8   12     -0.99      0.00
    0   -8   12     -0.70      0.00
    1   -8   12      0.55      0.00
    2   -8   12      0.16      0.00
    3   -8   12     -0.17      0.00
    4   -8   12     -0.22      0.00
    5   -8   12      0.28      0.00
    6   -8   12     -0.24      0.00
    7   -8   12      0.17      0.00
    8   -8   12     -0.62      0.00
    9   -8   12      1.04      0.00
   10   -8   12      0.42      0.00
   -8   -7   12      0.67      0.00
   -7   -7   12     -0.15      0.00
   -6   -7   12      0.30      0.00
   -5   -7   12      1.05      0.00
   -4   -7   12      0.29      0.00
   -3   -7   12      0.41      0.00
   -2   -7   12     -0.54      0.00
   -1   -7   12     -0.16      0.00
    0   -7   12      0.00      0.00
    1   -7   12     -0.83      0.00
    2   -7   12      0.30      0.00
    3   -7   12      0.58      0.00
    4   -7   12     -0.15      0.00
    5   -7   12     -0.61      0.00
    6   -7   12      0.92      0.00
    7   -7   12     -0.30      0.00
    8   -7   12     -0.49      0.00
    9   -7   12     -0.85      0.00
   10   -7   12      0.26      0.00
   11   -7   12      0.26      0.00
   -8   -6   12      0.20      0.00
   -7   -6   12      0.60      0.00
   -6   -6   12      0.49      0.00
   -5   -6   12      0.80      0.00
   -4   -6   12      1.42      0.00
   -3   -6   12     -0.45      0.00
   -2   -6   12     -1.14      0.00
   -1   -6   12     -0.60      0.00
    0   -6   12      0.20      0.00
    1   -6   12      1.13      0.00
    2   -6   12      0.58      0.00
    3   -6   12     -0.30      0.00
    4   -6   12     -1.34      0.00
    5   -6   12      0.29      0.00
    6   -6   12      0.62      0.00
    7   -6   12      0.19      0.00
    8   -6   12     -0.48      0.00
    9   -6   12      0.48      0.00
   10   -6   12      0.03      0.00
   11   -6   12      0.01      0.00
   -9   -5   12      0.68      0.00
   -8   -5   12     -0.08      0.00
   -7   -5   12     -0.67      0.00
   -6   -5   12      0.01      0.00
   -5   -5   12      0.84      0.00
   -4   -5   12      0.12      0.00
   -3   -5   12     -0.37      0.00
   -2   -5   12     -0.76      0.00
   -1   -5   12     -0.67      0.00
    0   -5   12      0.92      0.00
    1   -5   12      1.00      0.00
    2   -5   12      0.49      0.00
    3   -5   12     -0.69      0.00
    4   -5   12     -1.07      0.00
    5   -5   12     -0.73      0.00
    6   -5   12      0.37      0.00
    7   -5   12      0.42      0.00
    8   -5   12      0.34      0.00
    9   -5   12      0.45      0.00
   10   -5   12      1.27      0.00
   11   -5   12      0.84      0.00
   12   -5   12      0.57      0.00
   -9   -4   12     -0.67      0.00
   -8   -4   12     -0.04      0.00
   -7   -4   12     -0.48      0.00
   -6   -4   12     -0.16      0.00
   -5   -4   12      0.24      0.00
   -4   -4   12      0.04      0.00
   -3   -4   12     -0.53      0.00
   -2   -4   12     -0.50      0.00
   -1   -4   12      1.46      0.00
    0   -4   12      0.75      0.00
    1   -4   12      0.20      0.00
    2   -4   12      0.23      0.00
    3   -4   12     -0.51      0.00
    4   -4   12     -1.16      0.00
    5   -4   12     -0.16      0.00
    6   -4   12      1.04      0.00
    7   -4   12      0.12      0.00
    8   -4   12     -0.11      0.00
    9   -4   12      1.12      0.00
   10   -4   12      1.38      0.00
   11   -4   12      0.82      0.00
   12   -4   12     -0.03      0.00
   -9   -3   12      0.96      0.00
   -8   -3   12     -0.63      0.00
   -7   -3   12     -0.73      0.00
   -6   -3   12     -0.61      0.00
   -5   -3   12     -0.08      0.00
   -4   -3   12      0.15      0.00
   -3   -3   12     -0.42      0.00
   -2   -3   12      0.43      0.00
   -1   -3   12      0.74      0.00
    0   -3   12      1.67      0.00
    1   -3   12      0.16      0.00
    2   -3   12     -1.22      0.00
    3   -3   12     -1.15      0.00
    4   -3   12     -0.70      0.00
    5   -3   12      1.30      0.00
    6   -3   12      1.28      0.00
    7   -3   12      0.64      0.00
    8   -3   12      0.27      0.00
    9   -3   12      0.66      0.00
   10   -3   12      0.82      0.00
   11   -3   12      0.27      0.00
   12   -3   12     -0.33      0.00
   -9   -2   12     -0.65      0.00
   -8   -2   12      0.54      0.00
   -7   -2   12     -0.47      0.00
   -6   -2   12      0.02      0.00
   -5   -2   12      0.94      0.00
   -4   -2   12      0.42      0.00
   -3   -2   12      0.10      0.00
   -2   -2   12      0.35      0.00
   -1   -2   12      0.93      0.00
    0   -2   12     -0.97      0.00
    1   -2   12     -1.03      0.00
    2   -2   12     -0.19      0.00
    3   -2   12     -0.55      0.00
    4   -2   12     -0.11      0.00
    5   -2   12      0.57      0.00
    6   -2   12      1.99      0.00
    7   -2   12      0.57      0.00
    8   -2   12     -0.48      0.00
    9   -2   12      0.03      0.00
   10   -2   12      0.76      0.00
   11   -2   12     -0.09      0.00
   12   -2   12     -0.47      0.00
   13   -2   12     -0.04      0.00
   -9   -1   12      1.12      0.00
   -8   -1   12     -0.32      0.00
   -7   -1   12     -0.30      0.00
   -6   -1   12     -0.04      0.00
   -5   -1   12     -0.06      0.00
   -4   -1   12     -0.04      0.00
   -3   -1   12      0.31      0.00
   -2   -1   12      0.34      0.00
   -1   -1   12      0.12      0.00
    0   -1   12      0.02      0.00
    1   -1   12     -1.57      0.00
    2   -1   12     -0.87      0.00
    3   -1   12      0.40      0.00
    4   -1   12      0.42      0.00
    5   -1   12      1.61      0.00
    6   -1   12      0.76      0.00
    7   -1   12      0.13      0.00
    8   -1   12      0.00      0.00
    9   -1   12      0.44      0.00
   10   -1   12     -0.27      0.00
   11   -1   12     -0.20      0.00
   12   -1   12      0.35      0.00
   13   -1   12      0.56      0.00
   -9    0   12      0.83      0.00
   -8    0   12      0.75      0.00
   -7    0   12     -0.50      0.00
   -6    0   12     -0.56      0.00
   -5    0   12     -0.25      0.00
   -4    0   12     -0.29      0.00
   -3    0   12     -0.84      0.00
   -2    0   12      0.06      0.00
   -1    0   12      0.00      0.00
    0    0   12     -1.82      0.00
    1    0   12     -0.44      0.00
    2    0   12      0.54      0.00
    3    0   12      0.41      0.00
    4    0   12      0.79      0.00
    5    0   12      0.94      0.00
    6    0   12      1.04      0.00
    7    0   12     -0.24      0.00
    8    0   12     -0.01      0.00
    9    0   12      0.17      0.00
   10    0   12      1.01      0.00
   11    0   12      0.74      0.00
   12    0   12      0.33      0.00
   13    0   12      0.35      0.00
   -9    1   12      0.80      0.00
   -8    1   12      0.44      0.00
   -7    1   12     -0.15      0.00
   -6    1   12     -0.56      0.00
   -5    1   12     -0.35      0.00
   -4    1   12     -0.33      0.00
   -3    1   12      0.49      0.00
   -2    1   12      0.20      0.00
   -1    1   12     -0.53      0.00
    0    1   12     -0.56      0.00
    1    1   12     -1.10      0.00
    2    1   12      1.10      0.00
    3    1   12      1.65      0.00
    4    1   12      0.32      0.00
    5    1   12      0.33      0.00
    6    1   12      0.38      0.00
    7    1   12      0.68      0.00
    8    1   12     -0.20      0.00
    9    1   12      1.21      0.00
   10    1   12      1.41      0.00
   11    1   12      1.03      0.00
   12    1   12      0.82      0.00
   13    1   12      0.38      0.00
   -9    2   12      1.36      0.00
   -8    2   12      0.06      0.00
   -7    2   12     -0.67      0.00
   -6    2   12      0.16      0.00
   -5    2   12      0.11      0.00
   -4    2   12      0.15      0.00
   -3    2   12      0.27      0.00
   -2    2   12      0.95      0.00
   -1    2   12      0.79      0.00
    0    2   12     -0.84      0.00
    1    2   12      0.24      0.00
    2    2   12      1.07      0.00
    3    2   12      0.83      0.00
    4    2   12      0.50      0.00
    5    2   12      0.68      0.00
    6    2   12      1.19      0.00
    7    2   12      0.32      0.00
    8    2   12      1.45      0.00
    9    2   12      0.61      0.00
   10    2   12      0.79      0.00
   11    2   12      0.82      0.00
   12    2   12      0.91      0.00
   13    2   12      0.89      0.00
   -9    3   12     -0.19      0.00
   -8    3   12     -0.30      0.00
   -7    3   12      0.63      0.00
   -6    3   12     -0.21      0.00
   -5    3   12     -0.64      0.00
   -4    3   12      0.14      0.00
   -3    3   12      1.52      0.00
   -2    3   12      1.60      0.00
   -1    3   12      0.26      0.00
    0    3   12      0.06      0.00
    1    3   12      1.02      0.00
    2    3   12      1.56      0.00
    3    3   12      0.61      0.00
    4    3   12      0.33      0.00
    5    3   12      1.08      0.00
    6    3   12      0.53      0.00
    7    3   12      1.37      0.00
    8    3   12      0.99      0.00
    9    3   12      2.05      0.00
   10    3   12      0.63      0.00
   11    3   12      0.39      0.00
   12    3   12      0.71      0.00
   13    3   12     -0.15      0.00
   -9    4   12     -0.21      0.00
   -8    4   12     -0.47      0.00
   -7    4   12     -1.16      0.00
   -6    4   12     -0.43      0.00
   -5    4   12     -0.50      0.00
   -4    4   12      0.10      0.00
   -3    4   12      1.03      0.00
   -2    4   12      1.46      0.00
   -1    4   12      0.68      0.00
    0    4   12     -0.15      0.00
    1    4   12      0.34      0.00
    2    4   12      1.84      0.00
    3    4   12      1.33      0.00
    4    4   12      0.43      0.00
    5    4   12      0.45      0.00
    6    4   12      2.03      0.00
    7    4   12      1.87      0.00
    8    4   12      1.69      0.00
    9    4   12     -0.31      0.00
   10    4   12      0.65      0.00
   11    4   12      0.73      0.00
   12    4   12      0.23      0.00
   13    4   12     -0.02      0.00
   -9    5   12     -0.61      0.00
   -8    5   12     -0.79      0.00
   -7    5   12      0.85      0.00
   -6    5   12     -0.40      0.00
   -5    5   12     -0.71      0.00
   -4    5   12      0.45      0.00
   -3    5   12      1.65      0.00
   -2    5   12      0.89      0.00
   -1    5   12     -0.14      0.00
    0    5   12     -0.29      0.00
    1    5   12      1.09      0.00
    2    5   12      0.83      0.00
    3    5   12      0.86      0.00
    4    5   12      0.93      0.00
    5    5   12      1.60      0.00
    6    5   12      1.49      0.00
    7    5   12      1.35      0.00
    8    5   12      0.64      0.00
    9    5   12      1.23      0.00
   10    5   12     -0.03      0.00
   11    5   12     -0.07      0.00
   12    5   12      0.05      0.00
   13    5   12     -0.27      0.00
   -8    6   12      0.50      0.00
   -7    6   12     -0.31      0.00
   -6    6   12     -0.27      0.00
   -5    6   12     -0.05      0.00
   -4    6   12      1.40      0.00
   -3    6   12      1.75      0.00
   -2    6   12      1.00      0.00
   -1    6   12     -0.37      0.00
    0    6   12     -0.40      0.00
    1    6   12      0.45      0.00
    2    6   12      1.81      0.00
    3    6   12      1.03      0.00
    4    6   12      1.41      0.00
    5    6   12      1.44      0.00
    6    6   12      0.77      0.00
    7    6   12      0.62      0.00
    8    6   12      0.65      0.00
    9    6   12      0.01      0.00
   10    6   12      0.20      0.00
   11    6   12      0.25      0.00
   12    6   12      0.27      0.00
   13    6   12      0.07      0.00
   -8    7   12      0.05      0.00
   -7    7   12      1.07      0.00
   -6    7   12     -0.13      0.00
   -5    7   12     -0.18      0.00
   -4    7   12      0.84      0.00
   -3    7   12      1.09      0.00
   -2    7   12      0.63      0.00
   -1    7   12     -0.11      0.00
    0    7   12     -0.09      0.00
    1    7   12      0.96      0.00
    2    7   12      0.82      0.00
    3    7   12      1.38      0.00
    4    7   12      0.77      0.00
    5    7   12      0.55      0.00
    6    7   12      0.88      0.00
    7    7   12      0.55      0.00
    8    7   12      0.42      0.00
    9    7   12     -0.30      0.00
   10    7   12     -0.48      0.00
   11    7   12     -0.30      0.00
   12    7   12      0.18      0.00
   13    7   12     -0.01      0.00
   -8    8   12      0.03      0.00
   -7    8   12     -0.11      0.00
   -6    8   12     -0.11      0.00
   -5    8   12     -0.08      0.00
   -4    8   12     -0.25      0.00
   -3    8   12      0.69      0.00
   -2    8   12     -0.22      0.00
   -1    8   12     -0.50      0.00
    0    8   12      0.36      0.00
    1    8   12      1.05      0.00
    2    8   12      1.35      0.00
    3    8   12     -0.03      0.00
    4    8   12     -0.04      0.00
    5    8   12     -0.29      0.00
    6    8   12     -0.22      0.00
    7    8   12      0.62      0.00
    8    8   12     -0.01      0.00
    9    8   12      0.02      0.00
   10    8   12     -0.31      0.00
   11    8   12      0.20      0.00
   12    8   12     -0.41      0.00
   13    8   12      0.04      0.00
   -7    9   12     -0.32      0.00
   -6    9   12     -0.96      0.00
   -5    9   12     -1.27      0.00
   -4    9   12      0.74      0.00
   -3    9   12      0.11      0.00
   -2    9   12      0.14      0.00
   -1    9   12     -0.75      0.00
    0    9   12     -0.62      0.00
    1    9   12      0.77      0.00
    2    9   12      0.28      0.00
    3    9   12     -0.32      0.00
    4    9   12     -1.52      0.00
    5    9   12     -0.84      0.00
    6    9   12      0.00      0.00
    7    9   12     -0.05      0.00
    8    9   12      0.30      0.00
    9    9   12     -0.21      0.00
   10    9   12      0.05      0.00
   11    9   12     -0.74      0.00
   12    9   12      0.46      0.00
   -7   10   12     -0.57      0.00
   -6   10   12     -1.63      0.00
   -5   10   12      0.02      0.00
   -4   10   12      0.06      0.00
   -3   10   12      0.74      0.00
   -2   10   12     -0.73      0.00
   -1   10   12     -0.57      0.00
    0   10   12      0.40      0.00
    1   10   12      0.31      0.00
    2   10   12     -0.04      0.00
    3   10   12     -1.57      0.00
    4   10   12     -1.23      0.00
    5   10   12     -1.01      0.00
    6   10   12     -0.29      0.00
    7   10   12      0.17      0.00
    8   10   12     -0.27      0.00
    9   10   12     -0.33      0.00
   10   10   12     -0.76      0.00
   11   10   12      0.44      0.00
   12   10   12      0.11      0.00
   -6   11   12      0.18      0.00
   -5   11   12     -0.86      0.00
   -4   11   12      0.20      0.00
   -3   11   12     -0.08      0.00
   -2   11   12     -0.42      0.00
   -1   11   12     -1.36      0.00
    0   11   12     -0.43      0.00
    1   11   12      0.64      0.00
    2   11   12     -0.71      0.00
    3   11   12     -0.70      0.00
    4   11   12     -0.75      0.00
    5   11   12     -0.34      0.00
    6   11   12     -0.03      0.00
    7   11   12      0.12      0.00
    8   11   12     -0.40      0.00
    9   11   12     -0.81      0.00
   10   11   12     -0.39      0.00
   11   11   12     -0.76      0.00
   12   11   12     -0.08      0.00
   -6   12   12     -0.37      0.00
   -5   12   12      0.99      0.00
   -4   12   12      0.80      0.00
   -3   12   12      0.31      0.00
   -2   12   12     -0.66      0.00
   -1   12   12     -0.44      0.00
    0   12   12     -0.38      0.00
    1   12   12     -0.65      0.00
    2   12   12     -0.53      0.00
    3   12   12     -1.29      0.00
    4   12   12     -0.80      0.00
    5   12   12      0.28      0.00
    6   12   12      0.44      0.00
    7   12   12     -0.25      0.00
    8   12   12     -0.40      0.00
    9   12   12     -0.39      0.00
   10   12   12     -0.61      0.00
   11   12   12     -0.71      0.00
   -5   13   12      0.08      0.00
   -4   13   12      0.40      0.00
   -3   13   12      0.03      0.00
   -2   13   12     -0.23      0.00
   -1   13   12     -0.61      0.00
    0   13   12      0.15      0.00
    1   13   12      0.68      0.00
    2   13   12     -0.38      0.00
    3   13   12     -0.45      0.00
    4   13   12      0.00      0.00
    5   13   12     -0.18      0.00
    6   13   12      0.02      0.00
    7   13   12     -0.63      0.00
    8   13   12     -0.98      0.00
    9   13   12     -0.15      0.00
   10   13   12     -0.53      0.00
   11   13   12     -0.75      0.00
   -4   14   12     -0.49      0.00
   -3   14   12     -0.26      0.00
   -2   14   12     -0.89      0.00
   -1   14   12     -1.16      0.00
    0   14   12     -0.29      0.00
    1   14   12     -0.42      0.00
    2   14   12      0.03      0.00
    3   14   12      0.29      0.00
    4   14   12     -0.33      0.00
    5   14   12     -0.03      0.00
    6   14   12     -0.16      0.00
    7   14   12      0.39      0.00
    8   14   12      0.16      0.00
    9   14   12     -0.92      0.00
   10   14   12     -0.59      0.00
   -4   15   12      0.02      0.00
   -3   15   12     -0.26      0.00
   -2   15   12     -0.59      0.00
   -1   15   12     -0.30      0.00
    0   15   12     -0.86      0.00
    1   15   12     -0.36      0.00
    2   15   12     -0.84      0.00
    3   15   12     -0.90      0.00
    4   15   12     -0.43      0.00
    5   15   12     -0.49      0.00
    6   15   12      0.32      0.00
    7   15   12     -0.30      0.00
    8   15   12     -0.30      0.00
    9   15   12      0.48      0.00
   -3   16   12     -0.07      0.00
   -2   16   12     -0.21      0.00
   -1   16   12     -1.10      0.00
    0   16   12      0.22      0.00
    1   16   12     -0.28      0.00
    2   16   12     -0.03      0.00
    3   16   12     -0.82      0.00
    4   16   12     -1.30      0.00
    5   16   12      0.07      0.00
    6   16   12      0.14      0.00
    7   16   12     -0.26      0.00
    8   16   12     -0.44      0.00
    9   16   12     -0.21      0.00
   -1   17   12      0.10      0.00
    0   17   12     -0.69      0.00
    1   17   12      0.20      0.00
    2   17   12     -0.25      0.00
    3   17   12     -0.43      0.00
    4   17   12     -0.51      0.00
    5   17   12     -0.04      0.00
    6   17   12      0.61      0.00
    7   17   12      0.04      0.00
    1   18   12     -0.68      0.00
    2   18   12     -0.32      0.00
    3   18   12     -0.33      0.00
    4   18   12      0.33      0.00
    5   18   12      0.91      0.00
    6   18   12      0.31      0.00
   -2  -14   13     -0.20      0.00
   -1  -14   13      0.00      0.00
    0  -14   13      0.11      0.00
    1  -14   13      0.54      0.00
    2  -14   13      0.05      0.00
    3  -14   13     -0.59      0.00
    4  -14   13      0.13      0.00
   -4  -13   13     -0.05      0.00
   -3  -13   13     -0.09      0.00
   -2  -13   13     -0.68      0.00
   -1  -13   13      0.07      0.00
    0  -13   13      0.41      0.00
    1  -13   13     -0.94      0.00
    2  -13   13     -0.50      0.00
    3  -13   13      0.57      0.00
    4  -13   13      0.24      0.00
    5  -13   13      0.09      0.00
    6  -13   13     -0.42      0.00
   -5  -12   13     -0.63      0.00
   -4  -12   13     -0.64      0.00
   -3  -12   13     -0.47      0.00
   -2  -12   13     -0.05      0.00
   -1  -12   13      0.08      0.00
    0  -12   13     -0.51      0.00
    1  -12   13     -0.16      0.00
    2  -12   13      0.08      0.00
    3  -12   13      0.18      0.00
    4  -12   13      0.48      0.00
    5  -12   13     -0.55      0.00
    6  -12   13      0.00      0.00
    7  -12   13      0.28      0.00
   -5  -11   13     -0.67      0.00
   -4  -11   13     -0.69      0.00
   -3  -11   13     -0.12      0.00
   -2  -11   13     -0.10      0.00
   -1  -11   13     -0.41      0.00
    0  -11   13      0.08      0.00
    1  -11   13      0.10      0.00
    2  -11   13     -0.09      0.00
    3  -11   13      0.23      0.00
    4  -11   13      0.12      0.00
    5  -11   13      0.16      0.00
    6  -11   13     -1.24      0.00
    7  -11   13      0.39      0.00
    8  -11   13      0.84      0.00
   -6  -10   13     -0.22      0.00
   -5  -10   13     -0.66      0.00
   -4  -10   13      0.04      0.00
   -3  -10   13      0.17      0.00
   -2  -10   13     -0.14      0.00
   -1  -10   13      0.26      0.00
    0  -10   13      0.21      0.00
    1  -10   13     -0.32      0.00
    2  -10   13      0.10      0.00
    3  -10   13      0.70      0.00
    4  -10   13      0.93      0.00
    5  -10   13     -1.56      0.00
    6  -10   13     -0.39      0.00
    7  -10   13      0.64      0.00
    8  -10   13      0.59      0.00
    9  -10   13      0.04      0.00
   -7   -9   13      0.01      0.00
   -6   -9   13     -0.50      0.00
   -5   -9   13     -1.06      0.00
   -4   -9   13     -0.36      0.00
   -3   -9   13      0.33      0.00
   -2   -9   13      0.43      0.00
   -1   -9   13      0.44      0.00
    0   -9   13     -0.22      0.00
    1   -9   13     -0.07      0.00
    2   -9   13     -0.07      0.00
    3   -9   13      0.76      0.00
    4   -9   13     -0.29      0.00
    5   -9   13     -0.19      0.00
    6   -9   13     -0.28      0.00
    7   -9   13      0.88      0.00
    8   -9   13      0.13      0.00
    9   -9   13     -0.59      0.00
   -7   -8   13      0.58      0.00
   -6   -8   13     -0.24      0.00
   -5   -8   13      0.09      0.00
   -4   -8   13      0.02      0.00
   -3   -8   13     -0.07      0.00
   -2   -8   13      0.45      0.00
   -1   -8   13      0.31      0.00
    0   -8   13      0.53      0.00
    1   -8   13     -0.84      0.00
    2   -8   13     -0.31      0.00
    3   -8   13      0.42      0.00
    4   -8   13      0.78      0.00
    5   -8   13     -1.04      0.00
    6   -8   13      0.10      0.00
    7   -8   13      1.33      0.00
    8   -8   13      0.10      0.00
    9   -8   13     -0.28      0.00
   10   -8   13     -0.28      0.00
   -7   -7   13      0.24      0.00
   -6   -7   13      0.43      0.00
   -5   -7   13     -0.36      0.00
   -4   -7   13      0.86      0.00
   -3   -7   13      1.58      0.00
   -2   -7   13      0.35      0.00
   -1   -7   13     -0.06      0.00
    0   -7   13     -1.34      0.00
    1   -7   13     -0.60      0.00
    2   -7   13      0.52      0.00
    3   -7   13      1.67      0.00
    4   -7   13     -0.12      0.00
    5   -7   13     -0.92      0.00
    6   -7   13      0.35      0.00
    7   -7   13      0.88      0.00
    8   -7   13      0.43      0.00
    9   -7   13     -0.15      0.00
   10   -7   13      0.41      0.00
   11   -7   13      0.00      0.00
   -8   -6   13      1.03      0.00
   -7   -6   13      0.46      0.00
   -6   -6   13     -0.50      0.00
   -5   -6   13      0.55      0.00
   -4   -6   13      1.00      0.00
   -3   -6   13      0.33      0.00
   -2   -6   13      0.69      0.00
   -1   -6   13     -0.17      0.00
    0   -6   13     -1.14      0.00
    1   -6   13     -1.01      0.00
    2   -6   13      0.82      0.00
    3   -6   13      1.15      0.00
    4   -6   13      0.38      0.00
    5   -6   13     -0.53      0.00
    6   -6   13     -0.23      0.00
    7   -6   13      0.55      0.00
    8   -6   13     -0.19      0.00
    9   -6   13     -0.16      0.00
   10   -6   13      0.23      0.00
   11   -6   13      0.08      0.00
   -8   -5   13      0.03      0.00
   -7   -5   13      0.23      0.00
   -6   -5   13     -0.05      0.00
   -5   -5   13      0.09      0.00
   -4   -5   13      0.60      0.00
   -3   -5   13      0.79      0.00
   -2   -5   13     -0.17      0.00
   -1   -5   13     -0.90      0.00
    0   -5   13     -0.37      0.00
    1   -5   13     -0.10      0.00
    2   -5   13      0.77      0.00
    3   -5   13      1.39      0.00
    4   -5   13     -0.31      0.00
    5   -5   13     -1.21      0.00
    6   -5   13      0.50      0.00
    7   -5   13      1.11      0.00
    8   -5   13     -0.17      0.00
    9   -5   13     -0.62      0.00
   10   -5   13     -0.14      0.00
   11   -5   13      0.58      0.00
   -8   -4   13      0.55      0.00
   -7   -4   13     -0.21      0.00
   -6   -4   13     -0.36      0.00
   -5   -4   13     -0.45      0.00
   -4   -4   13      0.03      0.00
   -3   -4   13      0.00      0.00
   -2   -4   13     -0.24      0.00
   -1   -4   13      0.09      0.00
    0   -4   13     -0.84      0.00
    1   -4   13      0.84      0.00
    2   -4   13      1.98      0.00
    3   -4   13      0.60      0.00
    4   -4   13     -1.36      0.00
    5   -4   13     -1.59      0.00
    6   -4   13      0.26      0.00
    7   -4   13      1.13      0.00
    8   -4   13      0.80      0.00
    9   -4   13     -0.07      0.00
   10   -4   13      0.61      0.00
   11   -4   13      0.87      0.00
   12   -4   13      0.65      0.00
   -8   -3   13     -0.69      0.00
   -7   -3   13     -0.20      0.00
   -6   -3   13     -1.08      0.00
   -5   -3   13      0.14      0.00
   -4   -3   13      0.70      0.00
   -3   -3   13      0.27      0.00
   -2   -3   13      0.77      0.00
   -1   -3   13     -0.16      0.00
    0   -3   13      0.51      0.00
    1   -3   13      0.41      0.00
    2   -3   13      0.90      0.00
    3   -3   13      0.72      0.00
    4   -3   13     -0.98      0.00
    5   -3   13     -1.30      0.00
    6   -3   13      0.33      0.00
    7   -3   13      1.90      0.00
    8   -3   13      0.41      0.00
    9   -3   13      0.02      0.00
   10   -3   13      0.59      0.00
   11   -3   13      1.39      0.00
   12   -3   13      0.51      0.00
   -8   -2   13      0.72      0.00
   -7   -2   13     -1.04      0.00
   -6   -2   13     -0.21      0.00
   -5   -2   13     -0.05      0.00
   -4   -2   13      0.19      0.00
   -3   -2   13      0.88      0.00
   -2   -2   13      0.31      0.00
   -1   -2   13      0.52      0.00
    0   -2   13     -0.06      0.00
    1   -2   13      0.70      0.00
    2   -2   13      0.93      0.00
    3   -2   13      0.05      0.00
    4   -2   13     -1.21      0.00
    5   -2   13     -0.71      0.00
    6   -2   13      1.55      0.00
    7   -2   13      1.41      0.00
    8   -2   13      0.75      0.00
    9   -2   13      0.35      0.00
   10   -2   13      1.17      0.00
   11   -2   13      0.46      0.00
   12   -2   13     -0.18      0.00
   -8   -1   13     -0.18      0.00
   -7   -1   13      0.88      0.00
   -6   -1   13     -0.61      0.00
   -5   -1   13     -0.01      0.00
   -4   -1   13      0.62      0.00
   -3   -1   13      0.31      0.00
   -2   -1   13      0.44      0.00
   -1   -1   13     -0.39      0.00
    0   -1   13     -0.59      0.00
    1   -1   13     -0.25      0.00
    2   -1   13      0.96      0.00
    3   -1   13      0.24      0.00
    4   -1   13     -1.05      0.00
    5   -1   13     -0.36      0.00
    6   -1   13      1.71      0.00
    7   -1   13      2.37      0.00
    8   -1   13      0.11      0.00
    9   -1   13     -0.46      0.00
   10   -1   13      0.10      0.00
   11   -1   13      0.83      0.00
   12   -1   13      0.31      0.00
   -8    0   13      0.65      0.00
   -7    0   13     -0.37      0.00
   -6    0   13      0.16      0.00
   -5    0   13     -0.50      0.00
   -4    0   13     -0.35      0.00
   -3    0   13      0.39      0.00
   -2    0   13      0.21      0.00
   -1    0   13     -0.64      0.00
    0    0   13     -1.06      0.00
    1    0   13      0.02      0.00
    2    0   13      0.13      0.00
    3    0   13      0.35      0.00
    4    0   13     -0.50      0.00
    5    0   13      0.25      0.00
    6    0   13      2.00      0.00
    7    0   13      1.51      0.00
    8    0   13      0.05      0.00
    9    0   13     -0.90      0.00
   10    0   13      0.50      0.00
   11    0   13      1.00      0.00
   12    0   13      0.27      0.00
   13    0   13      0.24      0.00
   -8    1   13      0.89      0.00
   -7    1   13      0.19      0.00
   -6    1   13     -1.12      0.00
   -5    1   13     -0.05      0.00
   -4    1   13      0.06      0.00
   -3    1   13     -0.05      0.00
   -2    1   13     -0.33      0.00
   -1    1   13     -0.66      0.00
    0    1   13     -0.30      0.00
    1    1   13     -0.22      0.00
    2    1   13      1.08      0.00
    3    1   13     -0.25      0.00
    4    1   13     -0.90      0.00
    5    1   13      0.20      0.00
    6    1   13      1.87      0.00
    7    1   13      1.67      0.00
    8    1   13     -0.53      0.00
    9    1   13      0.00      0.00
   10    1   13      0.69      0.00
   11    1   13      0.59      0.00
   12    1   13      0.68      0.00
   13    1   13      0.48      0.00
   -8    2   13      0.56      0.00
   -7    2   13      0.22      0.00
   -6    2   13      0.78      0.00
   -5    2   13     -0.51      0.00
   -4    2   13     -0.25      0.00
   -3    2   13      0.39      0.00
   -2    2   13      0.52      0.00
   -1    2   13      0.03      0.00
    0    2   13     -0.55      0.00
    1    2   13      1.13      0.00
    2    2   13      1.33      0.00
    3    2   13      0.91      0.00
    4    2   13     -0.82      0.00
    5    2   13      0.29      0.00
    6    2   13      2.00      0.00
    7    2   13      0.11      0.00
    8    2   13     -0.58      0.00
    9    2   13      0.30      0.00
   10    2   13      2.00      0.00
   11    2   13      1.58      0.00
   12    2   13      0.36      0.00
   13    2   13      0.26      0.00
   -8    3   13      0.54      0.00
   -7    3   13      0.02      0.00
   -6    3   13     -0.88      0.00
   -5    3   13      0.13      0.00
   -4    3   13     -0.02      0.00
   -3    3   13      0.32      0.00
   -2    3   13      0.37      0.00
   -1    3   13      0.08      0.00
    0    3   13      0.77      0.00
    1    3   13      0.99      0.00
    2    3   13      1.88      0.00
    3    3   13      0.46      0.00
    4    3   13      0.00      0.00
    5    3   13      0.58      0.00
    6    3   13      0.66      0.00
    7    3   13      1.10      0.00
    8    3   13      0.34      0.00
    9    3   13      0.89      0.00
   10    3   13      0.98      0.00
   11    3   13      1.23      0.00
   12    3   13      0.88      0.00
   13    3   13     -0.12      0.00
   -8    4   13     -0.87      0.00
   -7    4   13     -0.73      0.00
   -6    4   13      0.49      0.00
   -5    4   13     -0.89      0.00
   -4    4   13     -0.41      0.00
   -3    4   13      0.63      0.00
   -2    4   13      1.07      0.00
   -1    4   13      0.31      0.00
    0    4   13      0.10      0.00
    1    4   13      1.55      0.00
    2    4   13      1.04      0.00
    3    4   13      0.03      0.00
    4    4   13     -0.76      0.00
    5    4   13      0.34      0.00
    6    4   13      2.09      0.00
    7    4   13      0.84      0.00
    8    4   13      0.23      0.00
    9    4   13      0.96      0.00
   10    4   13      1.77      0.00
   11    4   13      0.38      0.00
   12    4   13     -0.41      0.00
   13    4   13     -0.19      0.00
   -8    5   13     -0.66      0.00
   -7    5   13     -0.20      0.00
   -6    5   13     -0.94      0.00
   -5    5   13     -0.73      0.00
   -4    5   13     -0.43      0.00
   -3    5   13      1.22      0.00
   -2    5   13      1.09      0.00
   -1    5   13      0.57      0.00
    0    5   13      0.39      0.00
    1    5   13      0.30      0.00
    2    5   13      0.85      0.00
    3    5   13     -0.45      0.00
    4    5   13     -0.87      0.00
    5    5   13      1.28      0.00
    6    5   13      1.97      0.00
    7    5   13      0.80      0.00
    8    5   13      0.13      0.00
    9    5   13      0.67      0.00
   10    5   13      0.55      0.00
   11    5   13      0.32      0.00
   12    5   13      0.13      0.00
   13    5   13     -0.19      0.00
   -8    6   13     -0.70      0.00
   -7    6   13     -0.24      0.00
   -6    6   13      0.47      0.00
   -5    6   13     -0.31      0.00
   -4    6   13      0.56      0.00
   -3    6   13      0.95      0.00
   -2    6   13      1.08      0.00
   -1    6   13      0.37      0.00
    0    6   13      0.12      0.00
    1    6   13      0.69      0.00
    2    6   13     -0.07      0.00
    3    6   13     -0.51      0.00
    4    6   13      0.26      0.00
    5    6   13      1.27      0.00
    6    6   13      1.52      0.00
    7    6   13      0.72      0.00
    8    6   13      0.06      0.00
    9    6   13      0.52      0.00
   10    6   13      0.27      0.00
   11    6   13     -0.19      0.00
   12    6   13     -0.62      0.00
   13    6   13     -0.46      0.00
   -7    7   13     -0.12      0.00
   -6    7   13      0.05      0.00
   -5    7   13      0.25      0.00
   -4    7   13      0.42      0.00
   -3    7   13      1.12      0.00
   -2    7   13      0.76      0.00
   -1    7   13     -0.38      0.00
    0    7   13     -0.20      0.00
    1    7   13      0.51      0.00
    2    7   13      0.82      0.00
    3    7   13      0.07      0.00
    4    7   13      0.25      0.00
    5    7   13      1.43      0.00
    6    7   13      1.04      0.00
    7    7   13     -0.39      0.00
    8    7   13     -0.51      0.00
    9    7   13     -0.21      0.00
   10    7   13      0.54      0.00
   11    7   13     -0.13      0.00
   12    7   13     -0.18      0.00
   -7    8   13      0.54      0.00
   -6    8   13     -0.09      0.00
   -5    8   13     -0.97      0.00
   -4    8   13     -0.40      0.00
   -3    8   13      0.90      0.00
   -2    8   13      0.30      0.00
   -1    8   13     -0.01      0.00
    0    8   13     -0.49      0.00
    1    8   13     -0.21      0.00
    2    8   13      0.42      0.00
    3    8   13      0.45      0.00
    4    8   13      0.20      0.00
    5    8   13      0.02      0.00
    6    8   13      0.01      0.00
    7    8   13     -0.92      0.00
    8    8   13     -1.00      0.00
    9    8   13      0.18      0.00
   10    8   13     -0.12      0.00
   11    8   13     -0.29      0.00
   12    8   13     -1.20      0.00
   -7    9   13      0.14      0.00
   -6    9   13     -0.29      0.00
   -5    9   13     -1.26      0.00
   -4    9   13     -0.21      0.00
   -3    9   13      0.19      0.00
   -2    9   13      0.26      0.00
   -1    9   13     -0.99      0.00
    0    9   13     -0.25      0.00
    1    9   13      0.73      0.00
    2    9   13      0.17      0.00
    3    9   13     -0.50      0.00
    4    9   13     -0.63      0.00
    5    9   13     -0.13      0.00
    6    9   13     -1.21      0.00
    7    9   13     -1.16      0.00
    8    9   13     -0.59      0.00
    9    9   13     -0.04      0.00
   10    9   13     -0.22      0.00
   11    9   13     -1.22      0.00
   12    9   13     -0.05      0.00
   -6   10   13     -0.63      0.00
   -5   10   13     -0.40      0.00
   -4   10   13     -0.61      0.00
   -3   10   13      0.06      0.00
   -2   10   13     -0.57      0.00
   -1   10   13     -0.74      0.00
    0   10   13     -0.84      0.00
    1   10   13     -0.04      0.00
    2   10   13      0.24      0.00
    3   10   13     -0.87      0.00
    4   10   13     -0.70      0.00
    5   10   13     -0.98      0.00
    6   10   13     -0.68      0.00
    7   10   13     -1.07      0.00
    8   10   13     -0.10      0.00
    9   10   13     -0.28      0.00
   10   10   13     -0.22      0.00
   11   10   13     -0.06      0.00
   12   10   13     -0.64      0.00
   -6   11   13     -0.81      0.00
   -5   11   13     -1.33      0.00
   -4   11   13      0.09      0.00
   -3   11   13      0.49      0.00
   -2   11   13     -0.42      0.00
   -1   11   13     -0.92      0.00
    0   11   13      0.18      0.00
    1   11   13     -0.08      0.00
    2   11   13     -0.73      0.00
    3   11   13     -0.50      0.00
    4   11   13     -1.47      0.00
    5   11   13     -1.06      0.00
    6   11   13     -0.66      0.00
    7   11   13     -0.13      0.00
    8   11   13     -0.99      0.00
    9   11   13      0.32      0.00
   10   11   13     -0.04      0.00
   11   11   13     -0.34      0.00
   -5   12   13     -0.67      0.00
   -4   12   13     -0.04      0.00
   -3   12   13     -0.18      0.00
   -2   12   13     -0.69      0.00
   -1   12   13     -0.46      0.00
    0   12   13     -0.57      0.00
    1   12   13      0.12      0.00
    2   12   13      0.08      0.00
    3   12   13     -0.88      0.00
    4   12   13     -0.21      0.00
    5   12   13     -0.01      0.00
    6   12   13     -0.05      0.00
    7   12   13     -0.48      0.00
    8   12   13     -0.03      0.00
    9   12   13     -1.03      0.00
   10   12   13      0.08      0.00
   11   12   13     -0.87      0.00
   -4   13   13      0.40      0.00
   -3   13   13     -0.05      0.00
   -2   13   13     -0.29      0.00
   -1   13   13     -0.89      0.00
    0   13   13     -0.19      0.00
    1   13   13     -0.46      0.00
    2   13   13     -1.08      0.00
    3   13   13     -0.23      0.00
    4   13   13      0.34      0.00
    5   13   13      0.40      0.00
    6   13   13      0.07      0.00
    7   13   13     -0.14      0.00
    8   13   13      0.07      0.00
    9   13   13      1.32      0.00
   10   13   13     -1.05      0.00
   -4   14   13     -0.06      0.00
   -3   14   13      0.18      0.00
   -2   14   13     -0.85      0.00
   -1   14   13      0.02      0.00
    0   14   13      0.01      0.00
    1   14   13     -0.54      0.00
    2   14   13     -0.24      0.00
    3   14   13     -0.25      0.00
    4   14   13     -0.04      0.00
    5   14   13      0.28      0.00
    6   14   13      0.20      0.00
    7   14   13      0.01      0.00
    8   14   13     -0.07      0.00
    9   14   13     -0.55      0.00
   10   14   13      0.77      0.00
   -3   15   13     -1.07      0.00
   -2   15   13     -0.16      0.00
   -1   15   13     -0.52      0.00
    0   15   13     -0.68      0.00
    1   15   13     -0.27      0.00
    2   15   13     -0.53      0.00
    3   15   13      0.31      0.00
    4   15   13      0.36      0.00
    5   15   13     -0.16      0.00
    6   15   13      0.00      0.00
    7   15   13      0.09      0.00
    8   15   13     -0.34      0.00
    9   15   13      0.08      0.00
   -2   16   13     -0.57      0.00
   -1   16   13      0.00      0.00
    0   16   13      0.28      0.00
    1   16   13     -0.75      0.00
    2   16   13     -0.35      0.00
    3   16   13     -0.23      0.00
    4   16   13     -0.20      0.00
    5   16   13     -0.45      0.00
    6   16   13     -0.21      0.00
    7   16   13     -0.22      0.00
    8   16   13      0.39      0.00
    0   17   13     -0.11      0.00
    1   17   13      0.03      0.00
    2   17   13     -0.51      0.00
    3   17   13     -0.47      0.00
    4   17   13     -0.78      0.00
    5   17   13      0.01      0.00
    6   17   13      0.33      0.00
    1  -14   14      0.76      0.00
   -2  -13   14     -0.36      0.00
   -1  -13   14     -0.23      0.00
    0  -13   14     -0.02      0.00
    1  -13   14     -0.22      0.00
    2  -13   14      0.56      0.00
    3  -13   14     -0.09      0.00
    4  -13   14      0.22      0.00
    5  -13   14      0.21      0.00
   -3  -12   14     -0.55      0.00
   -2  -12   14     -0.18      0.00
   -1  -12   14     -0.77      0.00
    0  -12   14     -0.55      0.00
    1  -12   14      0.57      0.00
    2  -12   14     -0.15      0.00
    3  -12   14      0.06      0.00
    4  -12   14     -0.15      0.00
    5  -12   14      0.66      0.00
    6  -12   14      0.21      0.00
   -4  -11   14     -1.11      0.00
   -3  -11   14      0.04      0.00
   -2  -11   14     -0.58      0.00
   -1  -11   14     -0.50      0.00
    0  -11   14      0.57      0.00
    1  -11   14      0.07      0.00
    2  -11   14      0.02      0.00
    3  -11   14     -0.34      0.00
    4  -11   14      1.00      0.00
    5  -11   14      0.74      0.00
    6  -11   14     -0.87      0.00
    7  -11   14     -0.42      0.00
   -5  -10   14     -0.61      0.00
   -4  -10   14     -0.48      0.00
   -3  -10   14     -0.73      0.00
   -2  -10   14     -0.45      0.00
   -1  -10   14     -0.38      0.00
    0  -10   14      0.08      0.00
    1  -10   14      0.97      0.00
    2  -10   14      0.00      0.00
    3  -10   14      0.15      0.00
    4  -10   14      0.39      0.00
    5  -10   14     -0.10      0.00
    6  -10   14     -0.66      0.00
    7  -10   14     -0.47      0.00
    8  -10   14      1.08      0.00
   -6   -9   14     -0.52      0.00
   -5   -9   14     -0.12      0.00
   -4   -9   14     -0.14      0.00
   -3   -9   14     -0.29      0.00
   -2   -9   14     -0.82      0.00
   -1   -9   14     -0.14      0.00
    0   -9   14      1.25      0.00
    1   -9   14      0.51      0.00
    2   -9   14     -0.29      0.00
    3   -9   14     -0.17      0.00
    4   -9   14      0.78      0.00
    5   -9   14      0.33      0.00
    6   -9   14     -1.54      0.00
    7   -9   14     -0.15      0.00
    8   -9   14      0.85      0.00
    9   -9   14      0.34      0.00
   -6   -8   14      0.09      0.00
   -5   -8   14     -0.79      0.00
   -4   -8   14     -0.91      0.00
   -3   -8   14      0.11      0.00
   -2   -8   14      0.31      0.00
   -1   -8   14      0.33      0.00
    0   -8   14      0.48      0.00
    1   -8   14      0.05      0.00
    2   -8   14     -0.75      0.00
    3   -8   14      0.13      0.00
    4   -8   14      1.24      0.00
    5   -8   14     -0.13      0.00
    6   -8   14     -0.66      0.00
    7   -8   14      0.02      0.00
    8   -8   14      0.64      0.00
    9   -8   14      0.21      0.00
   -7   -7   14      0.83      0.00
   -6   -7   14     -0.15      0.00
   -5   -7   14     -0.05      0.00
   -4   -7   14      0.39      0.00
   -3   -7   14     -0.07      0.00
   -2   -7   14     -0.40      0.00
   -1   -7   14      0.78      0.00
    0   -7   14      1.05      0.00
    1   -7   14     -0.64      0.00
    2   -7   14     -0.91      0.00
    3   -7   14      0.37      0.00
    4   -7   14      0.91      0.00
    5   -7   14      0.33      0.00
    6   -7   14     -0.38      0.00
    7   -7   14      0.45      0.00
    8   -7   14      0.59      0.00
    9   -7   14     -0.56      0.00
   10   -7   14      0.27      0.00
   -7   -6   14      0.08      0.00
   -6   -6   14      0.56      0.00
   -5   -6   14      0.05      0.00
   -4   -6   14      0.13      0.00
   -3   -6   14      0.47      0.00
   -2   -6   14      0.87      0.00
   -1   -6   14      0.45      0.00
    0   -6   14     -0.19      0.00
    1   -6   14     -0.46      0.00
    2   -6   14     -0.94      0.00
    3   -6   14      0.57      0.00
    4   -6   14      1.41      0.00
    5   -6   14     -0.05      0.00
    6   -6   14     -0.47      0.00
    7   -6   14      0.81      0.00
    8   -6   14      0.87      0.00
    9   -6   14      0.63      0.00
   10   -6   14     -0.18      0.00
   -7   -5   14     -0.09      0.00
   -6   -5   14      0.11      0.00
   -5   -5   14      0.38      0.00
   -4   -5   14      0.20      0.00
   -3   -5   14      0.24      0.00
   -2   -5   14     -0.32      0.00
   -1   -5   14      0.43      0.00
    0   -5   14      0.42      0.00
    1   -5   14     -1.67      0.00
    2   -5   14     -0.17      0.00
    3   -5   14      1.41      0.00
    4   -5   14      1.13      0.00
    5   -5   14     -0.36      0.00
    6   -5   14     -1.06      0.00
    7   -5   14     -0.21      0.00
    8   -5   14      0.93      0.00
    9   -5   14      0.63      0.00
   10   -5   14      0.17      0.00
   11   -5   14     -0.17      0.00
   -7   -4   14      0.13      0.00
   -6   -4   14     -0.65      0.00
   -5   -4   14     -0.91      0.00
   -4   -4   14      0.45      0.00
   -3   -4   14      0.17      0.00
   -2   -4   14      0.41      0.00
   -1   -4   14      0.59      0.00
    0   -4   14     -0.64      0.00
    1   -4   14      0.16      0.00
    2   -4   14      0.02      0.00
    3   -4   14      0.90      0.00
    4   -4   14      0.90      0.00
    5   -4   14     -0.67      0.00
    6   -4   14     -0.91      0.00
    7   -4   14      0.32      0.00
    8   -4   14      1.06      0.00
    9   -4   14      0.23      0.00
   10   -4   14     -0.52      0.00
   11   -4   14     -0.41      0.00
   -8   -3   14      0.29      0.00
   -7   -3   14     -0.21      0.00
   -6   -3   14     -0.75      0.00
   -5   -3   14     -0.14      0.00
   -4   -3   14     -0.52      0.00
   -3   -3   14      0.24      0.00
   -2   -3   14      0.73      0.00
   -1   -3   14      0.71      0.00
    0   -3   14      0.97      0.00
    1   -3   14     -1.01      0.00
    2   -3   14      0.12      0.00
    3   -3   14      1.63      0.00
    4   -3   14      0.56      0.00
    5   -3   14     -1.01      0.00
    6   -3   14     -1.16      0.00
    7   -3   14      0.76      0.00
    8   -3   14      1.03      0.00
    9   -3   14      0.34      0.00
   10   -3   14     -0.04      0.00
   11   -3   14      0.63      0.00
   12   -3   14      0.34      0.00
   -8   -2   14     -0.36      0.00
   -7   -2   14     -0.52      0.00
   -6   -2   14      0.25      0.00
   -5   -2   14     -0.62      0.00
   -4   -2   14      0.32      0.00
   -3   -2   14      0.32      0.00
   -2   -2   14      1.03      0.00
   -1   -2   14      1.75      0.00
    0   -2   14     -0.48      0.00
    1   -2   14     -0.42      0.00
    2   -2   14      0.48      0.00
    3   -2   14      1.08      0.00
    4   -2   14      0.71      0.00
    5   -2   14     -1.28      0.00
    6   -2   14     -0.61      0.00
    7   -2   14      1.13      0.00
    8   -2   14      1.86      0.00
    9   -2   14      0.33      0.00
   10   -2   14     -0.32      0.00
   11   -2   14      0.13      0.00
   12   -2   14      0.97      0.00
   -8   -1   14     -0.51      0.00
   -7   -1   14     -0.31      0.00
   -6   -1   14     -1.15      0.00
   -5   -1   14      0.29      0.00
   -4   -1   14     -0.41      0.00
   -3   -1   14      0.35      0.00
   -2   -1   14      1.20      0.00
   -1   -1   14      0.55      0.00
    0   -1   14     -0.09      0.00
    1   -1   14     -1.23      0.00
    2   -1   14      0.17      0.00
    3   -1   14      1.58      0.00
    4   -1   14      0.09      0.00
    5   -1   14     -0.73      0.00
    6   -1   14     -0.21      0.00
    7   -1   14      1.76      0.00
    8   -1   14      1.87      0.00
    9   -1   14      0.43      0.00
   10   -1   14     -0.41      0.00
   11   -1   14      0.50      0.00
   12   -1   14      0.46      0.00
   -8    0   14      0.62      0.00
   -7    0   14      0.00      0.00
   -6    0   14     -0.15      0.00
   -5    0   14     -1.56      0.00
   -4    0   14      0.05      0.00
   -3    0   14      0.23      0.00
   -2    0   14      0.64      0.00
   -1    0   14      0.13      0.00
    0    0   14     -1.63      0.00
    1    0   14     -0.67      0.00
    2    0   14      0.69      0.00
    3    0   14      1.17      0.00
    4    0   14      0.25      0.00
    5    0   14     -1.53      0.00
    6    0   14     -0.21      0.00
    7    0   14      2.08      0.00
    8    0   14      1.70      0.00
    9    0   14     -0.14      0.00
   10    0   14      0.09      0.00
   11    0   14      0.37      0.00
   12    0   14     -0.05      0.00
   -8    1   14     -0.33      0.00
   -7    1   14     -0.15      0.00
   -6    1   14     -0.30      0.00
   -5    1   14      0.53      0.00
   -4    1   14     -1.01      0.00
   -3    1   14      0.25      0.00
   -2    1   14      0.62      0.00
   -1    1   14     -0.18      0.00
    0    1   14     -0.83      0.00
    1    1   14     -1.35      0.00
    2    1   14      0.80      0.00
    3    1   14      1.77      0.00
    4    1   14     -0.10      0.00
    5    1   14     -1.30      0.00
    6    1   14      0.52      0.00
    7    1   14      2.03      0.00
    8    1   14      0.45      0.00
    9    1   14     -0.81      0.00
   10    1   14     -0.48      0.00
   11    1   14      0.92      0.00
   12    1   14      1.16      0.00
   -8    2   14      0.36      0.00
   -7    2   14      0.49      0.00
   -6    2   14      0.10      0.00
   -5    2   14     -0.70      0.00
   -4    2   14      0.76      0.00
   -3    2   14      0.11      0.00
   -2    2   14      0.70      0.00
   -1    2   14      0.10      0.00
    0    2   14     -1.43      0.00
    1    2   14     -0.13      0.00
    2    2   14      1.47      0.00
    3    2   14      1.57      0.00
    4    2   14     -0.33      0.00
    5    2   14     -0.65      0.00
    6    2   14      0.48      0.00
    7    2   14      1.11      0.00
    8    2   14      0.55      0.00
    9    2   14     -0.94      0.00
   10    2   14     -0.11      0.00
   11    2   14      0.78      0.00
   12    2   14      0.83      0.00
   -8    3   14      0.58      0.00
   -7    3   14     -0.47      0.00
   -6    3   14      0.06      0.00
   -5    3   14      0.80      0.00
   -4    3   14     -0.85      0.00
   -3    3   14      0.48      0.00
   -2    3   14      0.82      0.00
   -1    3   14      0.20      0.00
    0    3   14     -0.41      0.00
    1    3   14      0.39      0.00
    2    3   14      2.01      0.00
    3    3   14      1.40      0.00
    4    3   14      0.02      0.00
    5    3   14     -1.12      0.00
    6    3   14      0.33      0.00
    7    3   14      1.48      0.00
    8    3   14     -0.23      0.00
    9    3   14     -0.29      0.00
   10    3   14      0.73      0.00
   11    3   14      1.53      0.00
   12    3   14      0.76      0.00
   -7    4   14      0.01      0.00
   -6    4   14      0.02      0.00
   -5    4   14     -0.83      0.00
   -4    4   14     -0.57      0.00
   -3    4   14     -0.58      0.00
   -2    4   14      0.94      0.00
   -1    4   14      0.00      0.00
    0    4   14     -0.40      0.00
    1    4   14      0.31      0.00
    2    4   14      1.65      0.00
    3    4   14      1.88      0.00
    4    4   14     -0.86      0.00
    5    4   14     -1.33      0.00
    6    4   14      0.44      0.00
    7    4   14      1.19      0.00
    8    4   14      0.28      0.00
    9    4   14     -0.54      0.00
   10    4   14      0.84      0.00
   11    4   14      1.17      0.00
   12    4   14      0.63      0.00
   -7    5   14     -0.75      0.00
   -6    5   14     -0.32      0.00
   -5    5   14     -0.41      0.00
   -4    5   14     -0.62      0.00
   -3    5   14      1.06      0.00
   -2    5   14      0.46      0.00
   -1    5   14      0.23      0.00
    0    5   14     -0.72      0.00
    1    5   14      0.62      0.00
    2    5   14      1.56      0.00
    3    5   14     -0.18      0.00
    4    5   14     -1.16      0.00
    5    5   14     -1.19      0.00
    6    5   14      0.47      0.00
    7    5   14      0.86      0.00
    8    5   14      0.10      0.00
    9    5   14      0.27      0.00
   10    5   14      0.67      0.00
   11    5   14      0.91      0.00
   12    5   14      0.32      0.00
   -7    6   14     -0.62      0.00
   -6    6   14     -0.47      0.00
   -5    6   14      0.02      0.00
   -4    6   14      0.25      0.00
   -3    6   14      0.51      0.00
   -2    6   14      1.83      0.00
   -1    6   14      0.01      0.00
    0    6   14     -0.47      0.00
    1    6   14      0.02      0.00
    2    6   14      0.74      0.00
    3    6   14      0.54      0.00
    4    6   14     -1.39      0.00
    5    6   14     -0.83      0.00
    6    6   14      0.58      0.00
    7    6   14      1.40      0.00
    8    6   14      0.02      0.00
    9    6   14     -0.77      0.00
   10    6   14      0.34      0.00
   11    6   14      0.95      0.00
   12    6   14      0.13      0.00
   -7    7   14      0.03      0.00
   -6    7   14      0.78      0.00
   -5    7   14     -0.02      0.00
   -4    7   14     -0.16      0.00
   -3    7   14      0.97      0.00
   -2    7   14      0.61      0.00
   -1    7   14      0.22      0.00
    0    7   14     -0.27      0.00
    1    7   14     -0.07      0.00
    2    7   14      0.14      0.00
    3    7   14     -0.17      0.00
    4    7   14     -0.29      0.00
    5    7   14     -0.47      0.00
    6    7   14      1.14      0.00
    7    7   14      0.78      0.00
    8    7   14     -0.70      0.00
    9    7   14     -0.69      0.00
   10    7   14      0.45      0.00
   11    7   14      0.51      0.00
   12    7   14     -0.05      0.00
   -6    8   14     -0.06      0.00
   -5    8   14      0.10      0.00
   -4    8   14     -0.49      0.00
   -3    8   14      0.15      0.00
   -2    8   14      0.62      0.00
   -1    8   14     -0.14      0.00
    0    8   14     -1.00      0.00
    1    8   14      0.00      0.00
    2    8   14      0.88      0.00
    3    8   14     -0.05      0.00
    4    8   14     -0.92      0.00
    5    8   14      0.16      0.00
    6    8   14      0.70      0.00
    7    8   14      0.05      0.00
    8    8   14     -0.90      0.00
    9    8   14     -0.52      0.00
   10    8   14      0.56      0.00
   11    8   14      0.23      0.00
   12    8   14     -0.82      0.00
   -6    9   14     -0.25      0.00
   -5    9   14     -0.79      0.00
   -4    9   14     -0.24      0.00
   -3    9   14     -0.03      0.00
   -2    9   14      0.33      0.00
   -1    9   14     -0.78      0.00
    0    9   14     -0.83      0.00
    1    9   14     -0.42      0.00
    2    9   14      0.24      0.00
    3    9   14      0.48      0.00
    4    9   14     -0.51      0.00
    5    9   14     -0.41      0.00
    6    9   14      0.19      0.00
    7    9   14     -0.31      0.00
    8    9   14     -0.93      0.00
    9    9   14     -0.37      0.00
   10    9   14     -0.27      0.00
   11    9   14     -0.03      0.00
   12    9   14     -0.02      0.00
   -5   10   14     -0.63      0.00
   -4   10   14     -1.55      0.00
   -3   10   14      0.12      0.00
   -2   10   14      0.17      0.00
   -1   10   14     -0.66      0.00
    0   10   14     -0.85      0.00
    1   10   14      0.56      0.00
    2   10   14      0.62      0.00
    3   10   14     -0.32      0.00
    4   10   14      0.06      0.00
    5   10   14     -0.53      0.00
    6   10   14     -0.74      0.00
    7   10   14     -0.27      0.00
    8   10   14     -0.63      0.00
    9   10   14     -1.09      0.00
   10   10   14      0.34      0.00
   11   10   14     -0.15      0.00
   -5   11   14     -0.94      0.00
   -4   11   14     -0.62      0.00
   -3   11   14     -0.32      0.00
   -2   11   14     -0.58      0.00
   -1   11   14     -1.33      0.00
    0   11   14     -0.57      0.00
    1   11   14      0.12      0.00
    2   11   14      0.62      0.00
    3   11   14      0.26      0.00
    4   11   14     -0.87      0.00
    5   11   14     -0.30      0.00
    6   11   14      0.39      0.00
    7   11   14     -0.55      0.00
    8   11   14     -0.72      0.00
    9   11   14     -0.01      0.00
   10   11   14     -0.62      0.00
   11   11   14      0.01      0.00
   -4   12   14     -0.25      0.00
   -3   12   14      0.09      0.00
   -2   12   14     -0.23      0.00
   -1   12   14     -0.80      0.00
    0   12   14     -0.64      0.00
    1   12   14      0.71      0.00
    2   12   14     -0.16      0.00
    3   12   14     -1.00      0.00
    4   12   14     -0.45      0.00
    5   12   14      0.33      0.00
    6   12   14     -0.16      0.00
    7   12   14     -0.29      0.00
    8   12   14     -1.19      0.00
    9   12   14     -0.42      0.00
   10   12   14      1.20      0.00
   -4   13   14     -0.72      0.00
   -3   13   14      0.22      0.00
   -2   13   14     -0.15      0.00
   -1   13   14     -0.85      0.00
    0   13   14      0.55      0.00
    1   13   14      0.04      0.00
    2   13   14     -0.29      0.00
    3   13   14     -0.47      0.00
    4   13   14      0.10      0.00
    5   13   14     -0.17      0.00
    6   13   14      0.54      0.00
    7   13   14     -0.06      0.00
    8   13   14      0.10      0.00
    9   13   14     -0.39      0.00
   10   13   14     -0.98      0.00
   -3   14   14     -0.07      0.00
   -2   14   14     -0.71      0.00
   -1   14   14     -0.26      0.00
    0   14   14     -0.57      0.00
    1   14   14      0.14      0.00
    2   14   14     -0.92      0.00
    3   14   14     -0.77      0.00
    4   14   14     -0.09      0.00
    5   14   14      1.11      0.00
    6   14   14      0.47      0.00
    7   14   14      0.60      0.00
    8   14   14     -0.13      0.00
    9   14   14      0.27      0.00
   -2   15   14     -0.46      0.00
   -1   15   14     -1.24      0.00
    0   15   14      0.22      0.00
    1   15   14     -0.11      0.00
    2   15   14     -0.37      0.00
    3   15   14     -0.54      0.00
    4   15   14      0.16      0.00
    5   15   14      0.21      0.00
    6   15   14      0.54      0.00
    7   15   14     -0.34      0.00
    8   15   14     -0.09      0.00
    0   16   14      0.17      0.00
    1   16   14      0.25      0.00
    2   16   14     -0.32      0.00
    3   16   14     -0.22      0.00
    4   16   14     -0.11      0.00
    5   16   14      0.08      0.00
    6   16   14      0.17      0.00
    7   16   14      0.46      0.00
    2   17   14     -0.23      0.00
    3   17   14     -0.20      0.00
    4   17   14      0.35      0.00
    5   17   14      0.43      0.00
   -2  -12   15      0.46      0.00
   -1  -12   15     -0.60      0.00
    0  -12   15     -0.26      0.00
    1  -12   15      0.06      0.00
    2  -12   15     -0.03      0.00
    3  -12   15     -0.01      0.00
    4  -12   15      0.15      0.00
    5  -12   15      0.93      0.00
   -3  -11   15      0.61      0.00
   -2  -11   15     -0.04      0.00
   -1  -11   15      0.10      0.00
    0  -11   15     -1.26      0.00
    1  -11   15     -0.21      0.00
    2  -11   15      0.88      0.00
    3  -11   15      0.41      0.00
    4  -11   15      0.19      0.00
    5  -11   15      0.39      0.00
    6  -11   15      0.38      0.00
   -4  -10   15     -0.09      0.00
   -3  -10   15      0.13      0.00
   -2  -10   15      0.70      0.00
   -1  -10   15     -1.23      0.00
    0  -10   15      0.10      0.00
    1  -10   15      1.11      0.00
    2  -10   15      0.78      0.00
    3  -10   15     -0.05      0.00
    4  -10   15      0.13      0.00
    5  -10   15      0.96      0.00
    6  -10   15      0.41      0.00
    7  -10   15     -0.90      0.00
   -5   -9   15      0.07      0.00
   -4   -9   15     -1.02      0.00
   -3   -9   15     -0.17      0.00
   -2   -9   15     -0.47      0.00
   -1   -9   15     -0.05      0.00
    0   -9   15     -0.64      0.00
    1   -9   15      0.99      0.00
    2   -9   15      0.92      0.00
    3   -9   15     -0.13      0.00
    4   -9   15     -0.16      0.00
    5   -9   15      0.52      0.00
    6   -9   15     -0.18      0.00
    7   -9   15     -0.67      0.00
    8   -9   15     -0.18      0.00
   -5   -8   15     -0.69      0.00
   -4   -8   15      0.51      0.00
   -3   -8   15      0.08      0.00
   -2   -8   15     -0.26      0.00
   -1   -8   15     -1.71      0.00
    0   -8   15      0.72      0.00
    1   -8   15      1.00      0.00
    2   -8   15      0.06      0.00
    3   -8   15     -0.61      0.00
    4   -8   15      0.39      0.00
    5   -8   15      0.47      0.00
    6   -8   15     -0.49      0.00
    7   -8   15     -0.69      0.00
    8   -8   15      0.31      0.00
    9   -8   15     -0.06      0.00
   -6   -7   15     -0.08      0.00
   -5   -7   15      0.30      0.00
   -4   -7   15     -0.59      0.00
   -3   -7   15      0.28      0.00
   -2   -7   15     -0.69      0.00
   -1   -7   15      0.36      0.00
    0   -7   15      0.02      0.00
    1   -7   15      1.02      0.00
    2   -7   15     -0.11      0.00
    3   -7   15     -0.81      0.00
    4   -7   15     -0.11      0.00
    5   -7   15      0.65      0.00
    6   -7   15     -0.01      0.00
    7   -7   15     -0.27      0.00
    8   -7   15      0.19      0.00
    9   -7   15      0.20      0.00
   -6   -6   15     -0.51      0.00
   -5   -6   15     -0.05      0.00
   -4   -6   15      0.89      0.00
   -3   -6   15      0.16      0.00
   -2   -6   15      0.33      0.00
   -1   -6   15     -1.07      0.00
    0   -6   15      0.73      0.00
    1   -6   15      0.10      0.00
    2   -6   15     -0.67      0.00
    3   -6   15     -0.28      0.00
    4   -6   15      0.72      0.00
    5   -6   15      0.84      0.00
    6   -6   15      0.13      0.00
    7   -6   15     -0.42      0.00
    8   -6   15     -0.48      0.00
    9   -6   15      0.23      0.00
   10   -6   15      0.50      0.00
   -6   -5   15      0.88      0.00
   -5   -5   15     -0.56      0.00
   -4   -5   15     -0.40      0.00
   -3   -5   15      0.83      0.00
   -2   -5   15     -0.18      0.00
   -1   -5   15      0.50      0.00
    0   -5   15     -0.41      0.00
    1   -5   15     -0.35      0.00
    2   -5   15     -0.35      0.00
    3   -5   15     -0.21      0.00
    4   -5   15      0.66      0.00
    5   -5   15      0.93      0.00
    6   -5   15      0.01      0.00
    7   -5   15     -0.35      0.00
    8   -5   15      0.35      0.00
    9   -5   15      0.59      0.00
   10   -5   15      0.52      0.00
   -7   -4   15      0.51      0.00
   -6   -4   15     -1.09      0.00
   -5   -4   15      0.29      0.00
   -4   -4   15      0.26      0.00
   -3   -4   15     -0.52      0.00
   -2   -4   15     -0.25      0.00
   -1   -4   15     -0.29      0.00
    0   -4   15      0.89      0.00
    1   -4   15      0.69      0.00
    2   -4   15     -0.85      0.00
    3   -4   15     -0.51      0.00
    4   -4   15      0.98      0.00
    5   -4   15      0.78      0.00
    6   -4   15     -0.42      0.00
    7   -4   15     -0.65      0.00
    8   -4   15      0.35      0.00
    9   -4   15      0.63      0.00
   10   -4   15      0.27      0.00
   11   -4   15     -0.06      0.00
   -7   -3   15     -0.99      0.00
   -6   -3   15     -0.03      0.00
   -5   -3   15     -0.49      0.00
   -4   -3   15      0.03      0.00
   -3   -3   15      0.17      0.00
   -2   -3   15     -0.22      0.00
   -1   -3   15      0.42      0.00
    0   -3   15      1.08      0.00
    1   -3   15      0.09      0.00
    2   -3   15      0.22      0.00
    3   -3   15      0.65      0.00
    4   -3   15      0.71      0.00
    5   -3   15      0.26      0.00
    6   -3   15     -0.74      0.00
    7   -3   15     -0.34      0.00
    8   -3   15      0.35      0.00
    9   -3   15      1.14      0.00
   10   -3   15      0.21      0.00
   11   -3   15     -0.89      0.00
   -7   -2   15      0.29      0.00
   -6   -2   15     -0.99      0.00
   -5   -2   15     -0.58      0.00
   -4   -2   15      0.07      0.00
   -3   -2   15     -0.06      0.00
   -2   -2   15      0.10      0.00
   -1   -2   15      1.32      0.00
    0   -2   15      1.04      0.00
    1   -2   15      0.58      0.00
    2   -2   15     -0.70      0.00
    3   -2   15      0.21      0.00
    4   -2   15      1.12      0.00
    5   -2   15      0.21      0.00
    6   -2   15     -0.53      0.00
    7   -2   15     -0.55      0.00
    8   -2   15      1.11      0.00
    9   -2   15      0.94      0.00
   10   -2   15      0.15      0.00
   11   -2   15      0.00      0.00
   -7   -1   15     -0.24      0.00
   -6   -1   15      0.09      0.00
   -5   -1   15     -0.17      0.00
   -4   -1   15     -0.97      0.00
   -3   -1   15     -0.50      0.00
   -2   -1   15      0.78      0.00
   -1   -1   15      1.17      0.00
    0   -1   15      0.87      0.00
    1   -1   15     -0.85      0.00
    2   -1   15     -0.17      0.00
    3   -1   15      0.21      0.00
    4   -1   15      1.05      0.00
    5   -1   15      0.48      0.00
    6   -1   15     -1.04      0.00
    7   -1   15      0.03      0.00
    8   -1   15      0.88      0.00
    9   -1   15      0.79      0.00
   10   -1   15      0.07      0.00
   11   -1   15      0.15      0.00
   12   -1   15      0.68      0.00
   -7    0   15     -0.83      0.00
   -6    0   15     -1.14      0.00
   -5    0   15     -0.76      0.00
   -4    0   15     -0.37      0.00
   -3    0   15     -0.91      0.00
   -2    0   15     -0.10      0.00
   -1    0   15      0.93      0.00
    0    0   15      0.31      0.00
    1    0   15     -0.44      0.00
    2    0   15     -1.66      0.00
    3    0   15      0.84      0.00
    4    0   15      1.20      0.00
    5    0   15     -0.36      0.00
    6    0   15     -0.66      0.00
    7    0   15      0.39      0.00
    8    0   15      1.44      0.00
    9    0   15      0.57      0.00
   10    0   15     -0.32      0.00
   11    0   15     -0.19      0.00
   12    0   15      0.17      0.00
   -7    1   15     -0.07      0.00
   -6    1   15     -0.29      0.00
   -5    1   15     -0.96      0.00
   -4    1   15     -1.13      0.00
   -3    1   15     -0.08      0.00
   -2    1   15      0.22      0.00
   -1    1   15      0.88      0.00
    0    1   15      0.03      0.00
    1    1   15     -1.87      0.00
    2    1   15      0.04      0.00
    3    1   15      0.77      0.00
    4    1   15      0.83      0.00
    5    1   15     -0.58      0.00
    6    1   15     -0.92      0.00
    7    1   15      0.41      0.00
    8    1   15      1.12      0.00
    9    1   15      0.51      0.00
   10    1   15     -0.41      0.00
   11    1   15     -0.31      0.00
   12    1   15      0.10      0.00
   -7    2   15      0.10      0.00
   -6    2   15     -0.89      0.00
   -5    2   15     -0.05      0.00
   -4    2   15      0.18      0.00
   -3    2   15     -0.60      0.00
   -2    2   15      0.89      0.00
   -1    2   15      0.87      0.00
    0    2   15     -0.27      0.00
    1    2   15     -0.19      0.00
    2    2   15      0.04      0.00
    3    2   15      1.55      0.00
    4    2   15      0.62      0.00
    5    2   15     -0.71      0.00
    6    2   15     -0.74      0.00
    7    2   15      0.44      0.00
    8    2   15      0.61      0.00
    9    2   15     -0.41      0.00
   10    2   15     -0.27      0.00
   11    2   15      0.46      0.00
   12    2   15      0.58      0.00
   -7    3   15     -0.88      0.00
   -6    3   15      0.31      0.00
   -5    3   15      0.29      0.00
   -4    3   15     -0.19      0.00
   -3    3   15     -0.15      0.00
   -2    3   15     -0.12      0.00
   -1    3   15      1.00      0.00
    0    3   15      0.11      0.00
    1    3   15     -0.94      0.00
    2    3   15      0.31      0.00
    3    3   15      1.50      0.00
    4    3   15      1.34      0.00
    5    3   15     -0.37      0.00
    6    3   15     -0.76      0.00
    7    3   15      0.38      0.00
    8    3   15      0.73      0.00
    9    3   15     -0.20      0.00
   10    3   15     -0.78      0.00
   11    3   15      0.09      0.00
   12    3   15      0.68      0.00
   -7    4   15     -0.05      0.00
   -6    4   15     -0.54      0.00
   -5    4   15     -0.10      0.00
   -4    4   15     -0.60      0.00
   -3    4   15     -0.53      0.00
   -2    4   15      0.89      0.00
   -1    4   15      0.23      0.00
    0    4   15     -0.56      0.00
    1    4   15     -0.87      0.00
    2    4   15      0.81      0.00
    3    4   15      1.61      0.00
    4    4   15      0.29      0.00
    5    4   15     -0.91      0.00
    6    4   15     -0.37      0.00
    7    4   15      0.41      0.00
    8    4   15      0.09      0.00
    9    4   15     -0.17      0.00
   10    4   15      0.27      0.00
   11    4   15      0.47      0.00
   12    4   15      0.96      0.00
   -6    5   15     -0.48      0.00
   -5    5   15     -0.41      0.00
   -4    5   15     -0.32      0.00
   -3    5   15     -0.66      0.00
   -2    5   15      0.23      0.00
   -1    5   15      1.33      0.00
    0    5   15     -0.71      0.00
    1    5   15     -0.77      0.00
    2    5   15      0.09      0.00
    3    5   15      0.97      0.00
    4    5   15      0.31      0.00
    5    5   15     -0.73      0.00
    6    5   15     -1.10      0.00
    7    5   15     -0.42      0.00
    8    5   15      0.61      0.00
    9    5   15      0.01      0.00
   10    5   15     -0.58      0.00
   11    5   15      0.73      0.00
   12    5   15      0.93      0.00
   -6    6   15      0.08      0.00
   -5    6   15      0.40      0.00
   -4    6   15     -0.55      0.00
   -3    6   15      0.54      0.00
   -2    6   15      1.58      0.00
   -1    6   15      0.33      0.00
    0    6   15     -0.16      0.00
    1    6   15     -0.46      0.00
    2    6   15      0.44      0.00
    3    6   15      0.30      0.00
    4    6   15     -0.10      0.00
    5    6   15     -1.12      0.00
    6    6   15     -1.17      0.00
    7    6   15      0.47      0.00
    8    6   15      0.38      0.00
    9    6   15     -0.67      0.00
   10    6   15     -0.40      0.00
   11    6   15      0.47      0.00
   12    6   15      0.87      0.00
   -6    7   15     -0.37      0.00
   -5    7   15      0.00      0.00
   -4    7   15      0.58      0.00
   -3    7   15      0.10      0.00
   -2    7   15      0.85      0.00
   -1    7   15      0.95      0.00
    0    7   15     -0.55      0.00
    1    7   15     -0.64      0.00
    2    7   15      0.27      0.00
    3    7   15      0.92      0.00
    4    7   15     -0.45      0.00
    5    7   15     -1.24      0.00
    6    7   15     -0.47      0.00
    7    7   15      0.16      0.00
    8    7   15      0.18      0.00
    9    7   15     -0.50      0.00
   10    7   15     -0.19      0.00
   11    7   15      0.87      0.00
   12    7   15      0.41      0.00
   -6    8   15      0.40      0.00
   -5    8   15      0.09      0.00
   -4    8   15     -0.45      0.00
   -3    8   15      0.72      0.00
   -2    8   15      0.78      0.00
   -1    8   15      0.19      0.00
    0    8   15     -0.78      0.00
    1    8   15     -0.78      0.00
    2    8   15     -0.45      0.00
    3    8   15     -0.19      0.00
    4    8   15      0.17      0.00
    5    8   15     -0.76      0.00
    6    8   15     -0.65      0.00
    7    8   15      0.29      0.00
    8    8   15      0.21      0.00
    9    8   15     -0.24      0.00
   10    8   15     -0.33      0.00
   11    8   15      0.04      0.00
   -5    9   15      0.40      0.00
   -4    9   15     -0.06      0.00
   -3    9   15     -0.90      0.00
   -2    9   15      0.47      0.00
   -1    9   15      0.14      0.00
    0    9   15     -0.65      0.00
    1    9   15     -0.84      0.00
    2    9   15      0.28      0.00
    3    9   15      0.40      0.00
    4    9   15     -0.33      0.00
    5    9   15      0.25      0.00
    6    9   15     -0.40      0.00
    7    9   15     -0.21      0.00
    8    9   15      0.36      0.00
    9    9   15     -0.45      0.00
   10    9   15     -0.28      0.00
   11    9   15      0.62      0.00
   -5   10   15     -0.40      0.00
   -4   10   15     -0.77      0.00
   -3   10   15      0.03      0.00
   -2   10   15      0.07      0.00
   -1   10   15     -0.47      0.00
    0   10   15     -1.50      0.00
    1   10   15     -0.47      0.00
    2   10   15      0.22      0.00
    3   10   15      0.84      0.00
    4   10   15      0.99      0.00
    5   10   15     -0.75      0.00
    6   10   15      0.10      0.00
    7   10   15      0.87      0.00
    8   10   15     -0.11      0.00
    9   10   15     -0.17      0.00
   10   10   15      0.09      0.00
   11   10   15     -0.04      0.00
   -4   11   15     -0.69      0.00
   -3   11   15     -0.47      0.00
   -2   11   15      0.00      0.00
   -1   11   15     -0.56      0.00
    0   11   15     -0.82      0.00
    1   11   15     -0.55      0.00
    2   11   15      0.94      0.00
    3   11   15      0.69      0.00
    4   11   15     -0.40      0.00
    5   11   15      0.40      0.00
    6   11   15      0.51      0.00
    7   11   15      0.30      0.00
    8   11   15      0.26      0.00
    9   11   15     -0.95      0.00
   10   11   15     -0.40      0.00
   -3   12   15     -1.02      0.00
   -2   12   15     -0.33      0.00
   -1   12   15     -0.75      0.00
    0   12   15     -0.92      0.00
    1   12   15      0.87      0.00
    2   12   15      0.59      0.00
    3   12   15      0.11      0.00
    4   12   15      0.36      0.00
    5   12   15      0.20      0.00
    6   12   15     -0.13      0.00
    7   12   15      0.38      0.00
    8   12   15     -0.02      0.00
    9   12   15      0.17      0.00
   10   12   15     -0.57      0.00
   -3   13   15      0.23      0.00
   -2   13   15     -0.23      0.00
   -1   13   15     -0.63      0.00
    0   13   15     -0.28      0.00
    1   13   15      0.02      0.00
    2   13   15      0.83      0.00
    3   13   15     -0.30      0.00
    4   13   15     -0.51      0.00
    5   13   15     -0.11      0.00
    6   13   15      0.85      0.00
    7   13   15      0.29      0.00
    8   13   15     -0.07      0.00
    9   13   15     -0.72      0.00
   -2   14   15      0.63      0.00
   -1   14   15     -0.38      0.00
    0   14   15     -0.82      0.00
    1   14   15      0.29      0.00
    2   14   15     -0.49      0.00
    3   14   15     -0.14      0.00
    4   14   15     -0.15      0.00
    5   14   15      0.46      0.00
    6   14   15      0.31      0.00
    7   14   15      0.38      0.00
    8   14   15     -0.35      0.00
    0   15   15     -0.12      0.00
    1   15   15      0.01      0.00
    2   15   15      0.23      0.00
    3   15   15     -0.87      0.00
    4   15   15     -0.29      0.00
    5   15   15     -0.08      0.00
    6   15   15      0.16      0.00
    7   15   15      0.49      0.00
    2   16   15     -0.13      0.00
    3   16   15     -0.05      0.00
    4   16   15     -0.56      0.00
    5   16   15     -0.13      0.00
   -1  -11   16      0.81      0.00
    0  -11   16     -0.39      0.00
    1  -11   16      0.10      0.00
    2  -11   16      0.69      0.00
    3  -11   16      0.22      0.00
    4  -11   16      0.14      0.00
   -2  -10   16      0.52      0.00
   -1  -10   16      0.68      0.00
    0  -10   16      0.24      0.00
    1  -10   16     -0.56      0.00
    2  -10   16      0.70      0.00
    3  -10   16      1.14      0.00
    4  -10   16      0.21      0.00
    5  -10   16      0.16      0.00
    6  -10   16      0.23      0.00
   -3   -9   16      0.47      0.00
   -2   -9   16      1.25      0.00
   -1   -9   16      0.28      0.00
    0   -9   16     -1.07      0.00
    1   -9   16      0.82      0.00
    2   -9   16      1.22      0.00
    3   -9   16      0.31      0.00
    4   -9   16     -0.18      0.00
    5   -9   16      0.52      0.00
    6   -9   16      0.54      0.00
    7   -9   16     -0.55      0.00
   -4   -8   16     -0.14      0.00
   -3   -8   16     -0.17      0.00
   -2   -8   16     -0.02      0.00
   -1   -8   16     -0.73      0.00
    0   -8   16     -0.29      0.00
    1   -8   16      0.09      0.00
    2   -8   16      1.58      0.00
    3   -8   16      0.70      0.00
    4   -8   16     -0.26      0.00
    5   -8   16     -0.63      0.00
    6   -8   16     -0.26      0.00
    7   -8   16      0.05      0.00
    8   -8   16     -0.38      0.00
   -4   -7   16      0.09      0.00
   -3   -7   16      0.29      0.00
   -2   -7   16      0.34      0.00
   -1   -7   16     -0.04      0.00
    0   -7   16     -0.88      0.00
    1   -7   16      0.55      0.00
    2   -7   16      0.12      0.00
    3   -7   16      0.17      0.00
    4   -7   16      0.02      0.00
    5   -7   16      0.35      0.00
    6   -7   16      0.16      0.00
    7   -7   16     -0.25      0.00
    8   -7   16     -0.26      0.00
    9   -7   16     -0.94      0.00
   -5   -6   16      1.03      0.00
   -4   -6   16     -0.54      0.00
   -3   -6   16      0.29      0.00
   -2   -6   16      0.33      0.00
   -1   -6   16     -0.23      0.00
    0   -6   16      0.51      0.00
    1   -6   16      0.06      0.00
    2   -6   16      0.32      0.00
    3   -6   16     -0.43      0.00
    4   -6   16     -0.51      0.00
    5   -6   16     -0.02      0.00
    6   -6   16      0.64      0.00
    7   -6   16      0.20      0.00
    8   -6   16     -0.25      0.00
    9   -6   16      0.26      0.00
   -5   -5   16     -1.04      0.00
   -4   -5   16      1.27      0.00
   -3   -5   16      0.50      0.00
   -2   -5   16     -0.05      0.00
   -1   -5   16     -0.55      0.00
    0   -5   16     -0.72      0.00
    1   -5   16      0.38      0.00
    2   -5   16      0.58      0.00
    3   -5   16     -0.22      0.00
    4   -5   16     -0.72      0.00
    5   -5   16      0.21      0.00
    6   -5   16      0.15      0.00
    7   -5   16      0.01      0.00
    8   -5   16     -0.03      0.00
    9   -5   16     -0.20      0.00
   10   -5   16      0.25      0.00
   -6   -4   16     -0.89      0.00
   -5   -4   16      0.52      0.00
   -4   -4   16     -0.58      0.00
   -3   -4   16      0.80      0.00
   -2   -4   16      0.45      0.00
   -1   -4   16     -0.11      0.00
    0   -4   16     -0.61      0.00
    1   -4   16     -0.46      0.00
    2   -4   16     -0.73      0.00
    3   -4   16      0.11      0.00
    4   -4   16      0.85      0.00
    5   -4   16      0.28      0.00
    6   -4   16      0.42      0.00
    7   -4   16     -0.17      0.00
    8   -4   16     -0.25      0.00
    9   -4   16     -0.02      0.00
   10   -4   16      0.64      0.00
   -6   -3   16      0.44      0.00
   -5   -3   16     -0.97      0.00
   -4   -3   16      0.35      0.00
   -3   -3   16      0.24      0.00
   -2   -3   16     -0.04      0.00
   -1   -3   16     -0.40      0.00
    0   -3   16      0.74      0.00
    1   -3   16     -0.02      0.00
    2   -3   16      0.43      0.00
    3   -3   16     -0.06      0.00
    4   -3   16     -0.28      0.00
    5   -3   16      0.82      0.00
    6   -3   16      0.29      0.00
    7   -3   16     -0.11      0.00
    8   -3   16     -0.27      0.00
    9   -3   16      0.65      0.00
   10   -3   16      0.02      0.00
   -6   -2   16     -0.84      0.00
   -5   -2   16      0.24      0.00
   -4   -2   16      0.47      0.00
   -3   -2   16     -0.18      0.00
   -2   -2   16     -0.41      0.00
   -1   -2   16      0.80      0.00
    0   -2   16      0.02      0.00
    1   -2   16      0.97      0.00
    2   -2   16      0.53      0.00
    3   -2   16      0.35      0.00
    4   -2   16      0.40      0.00
    5   -2   16      0.37      0.00
    6   -2   16      0.30      0.00
    7   -2   16     -0.19      0.00
    8   -2   16      0.48      0.00
    9   -2   16     -0.04      0.00
   10   -2   16      0.28      0.00
   11   -2   16     -0.42      0.00
   -6   -1   16     -0.51      0.00
   -5   -1   16     -0.71      0.00
   -4   -1   16     -0.37      0.00
   -3   -1   16      0.19      0.00
   -2   -1   16     -0.33      0.00
   -1   -1   16     -0.82      0.00
    0   -1   16      1.10      0.00
    1   -1   16      0.64      0.00
    2   -1   16      0.19      0.00
    3   -1   16     -0.13      0.00
    4   -1   16      0.59      0.00
    5   -1   16      0.38      0.00
    6   -1   16     -0.25      0.00
    7   -1   16     -0.01      0.00
    8   -1   16      0.36      0.00
    9   -1   16      0.80      0.00
   10   -1   16     -0.16      0.00
   11   -1   16      0.09      0.00
   -6    0   16     -0.10      0.00
   -5    0   16     -0.31      0.00
   -4    0   16     -0.24      0.00
   -3    0   16     -1.12      0.00
   -2    0   16     -0.86      0.00
   -1    0   16      0.55      0.00
    0    0   16      0.23      0.00
    1    0   16     -0.06      0.00
    2    0   16     -0.60      0.00
    3    0   16     -0.01      0.00
    4    0   16      0.16      0.00
    5    0   16      0.37      0.00
    6    0   16     -0.48      0.00
    7    0   16     -0.27      0.00
    8    0   16      0.20      0.00
    9    0   16      0.09      0.00
   10    0   16      0.25      0.00
   11    0   16     -0.20      0.00
   -6    1   16     -0.57      0.00
   -5    1   16     -0.83      0.00
   -4    1   16     -0.72      0.00
   -3    1   16     -0.70      0.00
   -2    1   16     -0.79      0.00
   -1    1   16      0.02      0.00
    0    1   16      0.61      0.00
    1    1   16     -0.25      0.00
    2    1   16     -0.33      0.00
    3    1   16      0.13      0.00
    4    1   16      0.71      0.00
    5    1   16     -0.54      0.00
    6    1   16     -0.70      0.00
    7    1   16     -0.34      0.00
    8    1   16      0.36      0.00
    9    1   16     -0.26      0.00
   10    1   16     -0.86      0.00
   11    1   16     -0.04      0.00
   -6    2   16     -0.74      0.00
   -5    2   16     -0.14      0.00
   -4    2   16     -0.04      0.00
   -3    2   16     -0.54      0.00
   -2    2   16     -0.36      0.00
   -1    2   16      0.22      0.00
    0    2   16      0.64      0.00
    1    2   16      0.28      0.00
    2    2   16     -0.30      0.00
    3    2   16      0.13      0.00
    4    2   16      0.27      0.00
    5    2   16      0.20      0.00
    6    2   16     -0.71      0.00
    7    2   16     -0.30      0.00
    8    2   16     -0.06      0.00
    9    2   16     -0.01      0.00
   10    2   16     -0.09      0.00
   11    2   16     -0.29      0.00
   -6    3   16      0.06      0.00
   -5    3   16     -0.55      0.00
   -4    3   16     -0.37      0.00
   -3    3   16     -0.25      0.00
   -2    3   16     -0.04      0.00
   -1    3   16      0.87      0.00
    0    3   16      0.47      0.00
    1    3   16     -0.50      0.00
    2    3   16     -0.29      0.00
    3    3   16      0.97      0.00
    4    3   16      1.16      0.00
    5    3   16     -0.65      0.00
    6    3   16     -0.91      0.00
    7    3   16      0.23      0.00
    8    3   16      0.27      0.00
    9    3   16     -0.47      0.00
   10    3   16     -0.17      0.00
   11    3   16      0.11      0.00
   -6    4   16     -0.71      0.00
   -5    4   16     -0.28      0.00
   -4    4   16      0.14      0.00
   -3    4   16     -0.68      0.00
   -2    4   16     -0.99      0.00
   -1    4   16     -0.11      0.00
    0    4   16      0.48      0.00
    1    4   16     -0.58      0.00
    2    4   16     -0.38      0.00
    3    4   16      0.54      0.00
    4    4   16      0.09      0.00
    5    4   16     -0.10      0.00
    6    4   16      0.35      0.00
    7    4   16     -0.12      0.00
    8    4   16     -0.34      0.00
    9    4   16      0.10      0.00
   10    4   16     -0.02      0.00
   11    4   16     -0.03      0.00
   -6    5   16     -0.68      0.00
   -5    5   16      0.07      0.00
   -4    5   16     -0.35      0.00
   -3    5   16     -0.81      0.00
   -2    5   16     -0.17      0.00
   -1    5   16      0.53      0.00
    0    5   16     -0.43      0.00
    1    5   16     -0.85      0.00
    2    5   16     -0.11      0.00
    3    5   16      0.16      0.00
    4    5   16      0.24      0.00
    5    5   16     -0.02      0.00
    6    5   16     -0.68      0.00
    7    5   16     -0.35      0.00
    8    5   16      0.38      0.00
    9    5   16      0.45      0.00
   10    5   16      0.01      0.00
   11    5   16     -0.26      0.00
   -5    6   16     -0.41      0.00
   -4    6   16      0.22      0.00
   -3    6   16     -0.15      0.00
   -2    6   16     -0.20      0.00
   -1    6   16      0.73      0.00
    0    6   16      0.41      0.00
    1    6   16     -0.52      0.00
    2    6   16     -0.63      0.00
    3    6   16      0.72      0.00
    4    6   16      0.58      0.00
    5    6   16     -0.52      0.00
    6    6   16     -0.66      0.00
    7    6   16     -0.40      0.00
    8    6   16     -0.37      0.00
    9    6   16     -0.21      0.00
   10    6   16     -0.03      0.00
   11    6   16      0.39      0.00
   -5    7   16      0.43      0.00
   -4    7   16     -0.39      0.00
   -3    7   16     -0.35      0.00
   -2    7   16      1.11      0.00
   -1    7   16      1.17      0.00
    0    7   16      0.60      0.00
    1    7   16     -0.44      0.00
    2    7   16      0.36      0.00
    3    7   16     -0.11      0.00
    4    7   16     -0.38      0.00
    5    7   16      0.03      0.00
    6    7   16     -0.49      0.00
    7    7   16     -1.06      0.00
    8    7   16     -0.41      0.00
    9    7   16      0.32      0.00
   10    7   16     -0.07      0.00
   11    7   16     -0.50      0.00
   -5    8   16     -0.18      0.00
   -4    8   16      0.52      0.00
   -3    8   16      0.10      0.00
   -2    8   16     -0.34      0.00
   -1    8   16      1.08      0.00
    0    8   16     -0.06      0.00
    1    8   16     -0.27      0.00
    2    8   16     -0.54      0.00
    3    8   16      0.13      0.00
    4    8   16     -0.05      0.00
    5    8   16     -0.43      0.00
    6    8   16     -0.20      0.00
    7    8   16     -0.56      0.00
    8    8   16     -0.31      0.00
    9    8   16     -0.10      0.00
   10    8   16     -0.46      0.00
   11    8   16      0.10      0.00
   -4    9   16     -0.24      0.00
   -3    9   16     -0.28      0.00
   -2    9   16      1.28      0.00
   -1    9   16      0.40      0.00
    0    9   16     -0.28      0.00
    1    9   16     -1.36      0.00
    2    9   16     -0.42      0.00
    3    9   16     -0.56      0.00
    4    9   16     -0.13      0.00
    5    9   16      0.46      0.00
    6    9   16     -0.78      0.00
    7    9   16     -0.46      0.00
    8    9   16      0.35      0.00
    9    9   16      0.17      0.00
   10    9   16     -0.09      0.00
   -4   10   16      0.17      0.00
   -3   10   16      0.08      0.00
   -2   10   16     -0.12      0.00
   -1   10   16      0.51      0.00
    0   10   16     -0.32      0.00
    1   10   16     -0.10      0.00
    2   10   16     -0.57      0.00
    3   10   16      0.17      0.00
    4   10   16      0.40      0.00
    5   10   16     -0.15      0.00
    6   10   16      0.16      0.00
    7   10   16      0.05      0.00
    8   10   16      0.25      0.00
    9   10   16      0.55      0.00
   10   10   16     -0.12      0.00
   -3   11   16     -0.21      0.00
   -2   11   16     -0.49      0.00
   -1   11   16     -0.64      0.00
    0   11   16     -0.88      0.00
    1   11   16     -0.94      0.00
    2   11   16      0.83      0.00
    3   11   16      0.43      0.00
    4   11   16      0.41      0.00
    5   11   16      0.94      0.00
    6   11   16      0.46      0.00
    7   11   16     -0.36      0.00
    8   11   16      0.34      0.00
    9   11   16      0.52      0.00
   10   11   16      0.59      0.00
   -2   12   16      0.03      0.00
   -1   12   16     -0.55      0.00
    0   12   16     -1.01      0.00
    1   12   16     -0.24      0.00
    2   12   16     -0.23      0.00
    3   12   16      0.77      0.00
    4   12   16      0.29      0.00
    5   12   16      0.32      0.00
    6   12   16     -0.15      0.00
    7   12   16      1.00      0.00
    8   12   16      0.54      0.00
    9   12   16     -0.03      0.00
   -1   13   16      0.38      0.00
    0   13   16     -0.19      0.00
    1   13   16     -0.39      0.00
    2   13   16      0.54      0.00
    3   13   16     -0.83      0.00
    4   13   16      0.20      0.00
    5   13   16      0.16      0.00
    6   13   16      1.17      0.00
    7   13   16      0.24      0.00
    8   13   16      0.37      0.00
    0   14   16     -0.48      0.00
    1   14   16      0.28      0.00
    2   14   16      0.00      0.00
    3   14   16      0.58      0.00
    4   14   16     -0.73      0.00
    5   14   16      0.57      0.00
    6   14   16     -0.07      0.00
    7   14   16      0.34      0.00
    2   15   16      0.01      0.00
    3   15   16     -0.83      0.00
    4   15   16      0.56      0.00
    5   15   16     -0.29      0.00
    6   15   16      0.15      0.00
    0  -10   17      0.72      0.00
    1  -10   17     -0.09      0.00
    2  -10   17      0.92      0.00
    3  -10   17      0.75      0.00
    4  -10   17      0.35      0.00
   -1   -9   17      0.35      0.00
    0   -9   17     -0.01      0.00
    1   -9   17     -0.03      0.00
    2   -9   17      0.23      0.00
    3   -9   17      1.44      0.00
    4   -9   17      0.75      0.00
    5   -9   17      0.40      0.00
    6   -9   17     -0.57      0.00
   -2   -8   17      0.29      0.00
   -1   -8   17      0.43      0.00
    0   -8   17     -0.01      0.00
    1   -8   17     -0.14      0.00
    2   -8   17      0.73      0.00
    3   -8   17      0.06      0.00
    4   -8   17      0.45      0.00
    5   -8   17      0.10      0.00
    6   -8   17      0.45      0.00
    7   -8   17      0.10      0.00
   -3   -7   17      0.12      0.00
   -2   -7   17      0.09      0.00
   -1   -7   17     -0.48      0.00
    0   -7   17     -0.72      0.00
    1   -7   17      0.34      0.00
    2   -7   17      0.86      0.00
    3   -7   17      1.40      0.00
    4   -7   17      0.16      0.00
    5   -7   17     -0.27      0.00
    6   -7   17     -0.49      0.00
    7   -7   17      0.07      0.00
    8   -7   17     -0.07      0.00
   -4   -6   17      0.03      0.00
   -3   -6   17      0.79      0.00
   -2   -6   17      0.51      0.00
   -1   -6   17     -0.06      0.00
    0   -6   17     -0.67      0.00
    1   -6   17     -0.63      0.00
    2   -6   17      0.62      0.00
    3   -6   17      1.06      0.00
    4   -6   17      1.08      0.00
    5   -6   17      0.25      0.00
    6   -6   17     -0.17      0.00
    7   -6   17     -0.66      0.00
    8   -6   17     -0.15      0.00
   -4   -5   17      0.19      0.00
   -3   -5   17      0.03      0.00
   -2   -5   17      0.69      0.00
   -1   -5   17      0.35      0.00
    0   -5   17      0.25      0.00
    1   -5   17      0.38      0.00
    2   -5   17     -0.39      0.00
    3   -5   17     -0.79      0.00
    4   -5   17      0.18      0.00
    5   -5   17      0.47      0.00
    6   -5   17      0.01      0.00
    7   -5   17      0.43      0.00
    8   -5   17     -0.08      0.00
    9   -5   17     -0.25      0.00
   -4   -4   17     -0.07      0.00
   -3   -4   17      0.83      0.00
   -2   -4   17      0.38      0.00
   -1   -4   17     -0.33      0.00
    0   -4   17     -0.07      0.00
    1   -4   17      0.15      0.00
    2   -4   17     -0.24      0.00
    3   -4   17      0.56      0.00
    4   -4   17     -0.29      0.00
    5   -4   17     -0.74      0.00
    6   -4   17     -0.01      0.00
    7   -4   17     -0.20      0.00
    8   -4   17      0.05      0.00
    9   -4   17      0.05      0.00
   -5   -3   17     -0.68      0.00
   -4   -3   17      0.27      0.00
   -3   -3   17      0.85      0.00
   -2   -3   17      0.23      0.00
   -1   -3   17      0.26      0.00
    0   -3   17      0.09      0.00
    1   -3   17     -0.69      0.00
    2   -3   17      0.06      0.00
    3   -3   17     -0.04      0.00
    4   -3   17      0.61      0.00
    5   -3   17      0.31      0.00
    6   -3   17     -0.22      0.00
    7   -3   17     -0.02      0.00
    8   -3   17      0.05      0.00
    9   -3   17      0.57      0.00
   10   -3   17     -0.21      0.00
   -5   -2   17     -0.01      0.00
   -4   -2   17      0.01      0.00
   -3   -2   17      0.01      0.00
   -2   -2   17      0.96      0.00
   -1   -2   17      0.02      0.00
    0   -2   17     -0.31      0.00
    1   -2   17      0.45      0.00
    2   -2   17     -0.44      0.00
    3   -2   17      0.36      0.00
    4   -2   17      0.52      0.00
    5   -2   17      0.55      0.00
    6   -2   17     -0.02      0.00
    7   -2   17     -0.26      0.00
    8   -2   17      0.50      0.00
    9   -2   17      0.33      0.00
   10   -2   17      0.37      0.00
   -5   -1   17     -0.57      0.00
   -4   -1   17     -0.32      0.00
   -3   -1   17      1.16      0.00
   -2   -1   17     -0.22      0.00
   -1   -1   17      0.04      0.00
    0   -1   17      0.72      0.00
    1   -1   17     -0.38      0.00
    2   -1   17      0.25      0.00
    3   -1   17      0.30      0.00
    4   -1   17      0.50      0.00
    5   -1   17      0.04      0.00
    6   -1   17      0.00      0.00
    7   -1   17      0.04      0.00
    8   -1   17      0.26      0.00
    9   -1   17      0.44      0.00
   10   -1   17     -0.16      0.00
   -5    0   17     -0.81      0.00
   -4    0   17     -0.09      0.00
   -3    0   17     -0.56      0.00
   -2    0   17     -0.02      0.00
   -1    0   17     -0.44      0.00
    0    0   17     -0.49      0.00
    1    0   17      0.34      0.00
    2    0   17     -0.43      0.00
    3    0   17      0.40      0.00
    4    0   17      0.69      0.00
    5    0   17      0.12      0.00
    6    0   17     -0.77      0.00
    7    0   17     -0.40      0.00
    8    0   17      0.52      0.00
    9    0   17      0.62      0.00
   10    0   17     -0.43      0.00
   -5    1   17     -0.42      0.00
   -4    1   17     -0.05      0.00
   -3    1   17      0.43      0.00
   -2    1   17     -0.62      0.00
   -1    1   17     -0.60      0.00
    0    1   17     -0.16      0.00
    1    1   17     -0.60      0.00
    2    1   17      0.46      0.00
    3    1   17      0.12      0.00
    4    1   17     -0.30      0.00
    5    1   17     -0.42      0.00
    6    1   17     -0.64      0.00
    7    1   17     -0.41      0.00
    8    1   17      0.26      0.00
    9    1   17     -0.41      0.00
   10    1   17     -0.64      0.00
   11    1   17     -0.17      0.00
   -5    2   17      0.27      0.00
   -4    2   17     -0.27      0.00
   -3    2   17     -0.45      0.00
   -2    2   17     -0.34      0.00
   -1    2   17     -0.06      0.00
    0    2   17      0.62      0.00
    1    2   17      0.78      0.00
    2    2   17     -0.81      0.00
    3    2   17     -0.29      0.00
    4    2   17      0.91      0.00
    5    2   17      0.05      0.00
    6    2   17     -1.32      0.00
    7    2   17     -0.82      0.00
    8    2   17      0.26      0.00
    9    2   17     -0.13      0.00
   10    2   17     -1.12      0.00
   11    2   17     -0.86      0.00
   -5    3   17     -0.56      0.00
   -4    3   17      0.29      0.00
   -3    3   17      0.18      0.00
   -2    3   17     -0.44      0.00
   -1    3   17     -0.33      0.00
    0    3   17      0.13      0.00
    1    3   17     -0.11      0.00
    2    3   17      0.00      0.00
    3    3   17      0.55      0.00
    4    3   17      0.37      0.00
    5    3   17     -0.74      0.00
    6    3   17     -0.81      0.00
    7    3   17      0.39      0.00
    8    3   17      0.23      0.00
    9    3   17     -0.51      0.00
   10    3   17     -0.67      0.00
   11    3   17     -0.12      0.00
   -5    4   17     -0.14      0.00
   -4    4   17     -0.44      0.00
   -3    4   17     -0.29      0.00
   -2    4   17     -0.29      0.00
   -1    4   17     -0.01      0.00
    0    4   17      0.22      0.00
    1    4   17     -0.88      0.00
    2    4   17     -0.85      0.00
    3    4   17      0.17      0.00
    4    4   17      0.19      0.00
    5    4   17     -0.25      0.00
    6    4   17     -0.46      0.00
    7    4   17     -0.40      0.00
    8    4   17      0.18      0.00
    9    4   17     -0.09      0.00
   10    4   17      0.37      0.00
   11    4   17      0.17      0.00
   -5    5   17     -0.43      0.00
   -4    5   17     -0.07      0.00
   -3    5   17      0.02      0.00
   -2    5   17     -0.56      0.00
   -1    5   17     -0.43      0.00
    0    5   17     -0.48      0.00
    1    5   17     -0.34      0.00
    2    5   17     -0.86      0.00
    3    5   17     -0.52      0.00
    4    5   17      0.62      0.00
    5    5   17     -0.11      0.00
    6    5   17     -0.75      0.00
    7    5   17      0.22      0.00
    8    5   17      0.20      0.00
    9    5   17     -0.18      0.00
   10    5   17     -0.58      0.00
   11    5   17      0.54      0.00
   -4    6   17      0.26      0.00
   -3    6   17     -0.40      0.00
   -2    6   17     -0.65      0.00
   -1    6   17     -0.35      0.00
    0    6   17      0.41      0.00
    1    6   17     -0.31      0.00
    2    6   17     -0.28      0.00
    3    6   17      1.01      0.00
    4    6   17     -0.06      0.00
    5    6   17     -0.75      0.00
    6    6   17      0.23      0.00
    7    6   17      0.23      0.00
    8    6   17     -0.35      0.00
    9    6   17     -0.37      0.00
   10    6   17      0.92      0.00
   11    6   17      0.05      0.00
   -4    7   17      0.12      0.00
   -3    7   17      0.29      0.00
   -2    7   17     -0.69      0.00
   -1    7   17     -0.10      0.00
    0    7   17      0.67      0.00
    1    7   17     -0.03      0.00
    2    7   17      0.05      0.00
    3    7   17     -0.04      0.00
    4    7   17      0.36      0.00
    5    7   17      0.01      0.00
    6    7   17     -0.54      0.00
    7    7   17      0.11      0.00
    8    7   17     -0.09      0.00
    9    7   17      0.09      0.00
   10    7   17     -0.28      0.00
   -4    8   17      0.16      0.00
   -3    8   17     -0.99      0.00
   -2    8   17     -0.33      0.00
   -1    8   17      1.29      0.00
    0    8   17      0.82      0.00
    1    8   17      0.08      0.00
    2    8   17     -0.52      0.00
    3    8   17      0.36      0.00
    4    8   17     -0.43      0.00
    5    8   17     -0.93      0.00
    6    8   17      0.34      0.00
    7    8   17     -0.72      0.00
    8    8   17     -0.64      0.00
    9    8   17     -0.13      0.00
   10    8   17      0.46      0.00
   -3    9   17      0.07      0.00
   -2    9   17      0.04      0.00
   -1    9   17      0.08      0.00
    0    9   17      0.56      0.00
    1    9   17     -0.22      0.00
    2    9   17      0.52      0.00
    3    9   17     -0.19      0.00
    4    9   17     -0.70      0.00
    5    9   17      0.09      0.00
    6    9   17     -0.71      0.00
    7    9   17      0.04      0.00
    8    9   17     -0.49      0.00
    9    9   17     -0.35      0.00
   10    9   17     -0.17      0.00
   -2   10   17      0.54      0.00
   -1   10   17      0.59      0.00
    0   10   17     -0.44      0.00
    1   10   17     -0.60      0.00
    2   10   17     -0.68      0.00
    3   10   17      0.19      0.00
    4   10   17     -0.07      0.00
    5   10   17     -0.82      0.00
    6   10   17      1.18      0.00
    7   10   17      0.17      0.00
    8   10   17     -0.68      0.00
    9   10   17     -0.17      0.00
   -2   11   17     -0.23      0.00
   -1   11   17      0.27      0.00
    0   11   17     -0.14      0.00
    1   11   17     -0.58      0.00
    2   11   17      0.24      0.00
    3   11   17     -0.15      0.00
    4   11   17     -0.60      0.00
    5   11   17      0.74      0.00
    6   11   17      0.02      0.00
    7   11   17     -0.47      0.00
    8   11   17      0.51      0.00
    9   11   17      0.49      0.00
   -1   12   17     -0.95      0.00
    0   12   17     -0.20      0.00
    1   12   17      0.11      0.00
    2   12   17      0.37      0.00
    3   12   17      0.06      0.00
    4   12   17     -0.53      0.00
    5   12   17     -0.34      0.00
    6   12   17      0.20      0.00
    7   12   17      0.88      0.00
    8   12   17     -0.20      0.00
    0   13   17     -1.32      0.00
    1   13   17     -0.52      0.00
    2   13   17      0.04      0.00
    3   13   17      0.01      0.00
    4   13   17      0.09      0.00
    5   13   17     -0.25      0.00
    6   13   17      0.84      0.00
    7   13   17     -0.17      0.00
    2   14   17     -0.04      0.00
    3   14   17     -0.45      0.00
    4   14   17     -1.35      0.00
    5   14   17      0.56      0.00
    0   -8   18     -0.49      0.00
    1   -8   18     -0.81      0.00
    2   -8   18     -0.06      0.00
    3   -8   18      0.83      0.00
    4   -8   18      1.09      0.00
    5   -8   18      0.13      0.00
   -1   -7   18      0.49      0.00
    0   -7   18     -0.37      0.00
    1   -7   18     -0.80      0.00
    2   -7   18     -0.43      0.00
    3   -7   18      0.18      0.00
    4   -7   18      0.42      0.00
    5   -7   18      1.36      0.00
    6   -7   18      0.91      0.00
   -2   -6   18      0.30      0.00
   -1   -6   18     -0.27      0.00
    0   -6   18     -0.62      0.00
    1   -6   18     -0.04      0.00
    2   -6   18      0.99      0.00
    3   -6   18      0.38      0.00
    4   -6   18      0.05      0.00
    5   -6   18      0.53      0.00
    6   -6   18      0.51      0.00
    7   -6   18      0.15      0.00
   -3   -5   18      0.33      0.00
   -2   -5   18      0.52      0.00
   -1   -5   18      0.10      0.00
    0   -5   18     -0.84      0.00
    1   -5   18     -0.57      0.00
    2   -5   18     -0.17      0.00
    3   -5   18      0.73      0.00
    4   -5   18      1.50      0.00
    5   -5   18      0.84      0.00
    6   -5   18      0.04      0.00
    7   -5   18     -0.30      0.00
    8   -5   18     -0.61      0.00
   -3   -4   18      0.39      0.00
   -2   -4   18      0.78      0.00
   -1   -4   18      0.17      0.00
    0   -4   18     -0.19      0.00
    1   -4   18     -0.39      0.00
    2   -4   18     -0.04      0.00
    3   -4   18     -0.21      0.00
    4   -4   18     -0.07      0.00
    5   -4   18      0.91      0.00
    6   -4   18      0.54      0.00
    7   -4   18     -0.43      0.00
    8   -4   18     -0.40      0.00
   -3   -3   18      0.49      0.00
   -2   -3   18      0.24      0.00
   -1   -3   18      0.44      0.00
    0   -3   18     -0.09      0.00
    1   -3   18      0.34      0.00
    2   -3   18      0.09      0.00
    3   -3   18     -0.41      0.00
    4   -3   18     -0.08      0.00
    5   -3   18      0.25      0.00
    6   -3   18      0.08      0.00
    7   -3   18     -0.57      0.00
    8   -3   18     -0.47      0.00
    9   -3   18      0.30      0.00
   -4   -2   18     -0.78      0.00
   -3   -2   18     -0.42      0.00
   -2   -2   18      1.08      0.00
   -1   -2   18      0.16      0.00
    0   -2   18      0.45      0.00
    1   -2   18      0.64      0.00
    2   -2   18      0.17      0.00
    3   -2   18     -0.19      0.00
    4   -2   18      0.34      0.00
    5   -2   18      0.54      0.00
    6   -2   18     -0.33      0.00
    7   -2   18     -0.27      0.00
    8   -2   18     -0.14      0.00
    9   -2   18      0.01      0.00
   -4   -1   18     -0.08      0.00
   -3   -1   18      0.21      0.00
   -2   -1   18     -0.80      0.00
   -1   -1   18      0.50      0.00
    0   -1   18      0.49      0.00
    1   -1   18      0.24      0.00
    2   -1   18     -0.36      0.00
    3   -1   18     -0.34      0.00
    4   -1   18      0.64      0.00
    5   -1   18      0.76      0.00
    6   -1   18      0.41      0.00
    7   -1   18     -0.85      0.00
    8   -1   18     -0.26      0.00
    9   -1   18      0.79      0.00
   -4    0   18     -0.64      0.00
   -3    0   18     -0.32      0.00
   -2    0   18      1.30      0.00
   -1    0   18      0.31      0.00
    0    0   18      0.19      0.00
    1    0   18     -0.40      0.00
    2    0   18     -0.56      0.00
    3    0   18      0.33      0.00
    4    0   18      0.31      0.00
    5    0   18      0.39      0.00
    6    0   18     -0.69      0.00
    7    0   18     -0.47      0.00
    8    0   18      0.04      0.00
    9    0   18      0.60      0.00
   10    0   18      0.11      0.00
   -4    1   18     -0.24      0.00
   -3    1   18      0.33      0.00
   -2    1   18     -0.12      0.00
   -1    1   18      0.09      0.00
    0    1   18     -0.19      0.00
    1    1   18      0.57      0.00
    2    1   18      0.40      0.00
    3    1   18     -0.87      0.00
    4    1   18      0.22      0.00
    5    1   18      0.35      0.00
    6    1   18     -0.19      0.00
    7    1   18     -1.27      0.00
    8    1   18     -0.21      0.00
    9    1   18      0.56      0.00
   10    1   18      0.26      0.00
   -4    2   18      0.06      0.00
   -3    2   18      0.56      0.00
   -2    2   18      0.51      0.00
   -1    2   18      0.04      0.00
    0    2   18      0.27      0.00
    1    2   18     -0.22      0.00
    2    2   18     -0.62      0.00
    3    2   18      0.41      0.00
    4    2   18      0.47      0.00
    5    2   18      0.08      0.00
    6    2   18     -1.37      0.00
    7    2   18     -0.79      0.00
    8    2   18      0.14      0.00
    9    2   18      0.39      0.00
   10    2   18     -0.50      0.00
   -4    3   18      0.18      0.00
   -3    3   18     -0.24      0.00
   -2    3   18     -0.31      0.00
   -1    3   18     -0.10      0.00
    0    3   18      0.79      0.00
    1    3   18      0.91      0.00
    2    3   18     -0.30      0.00
    3    3   18     -0.65      0.00
    4    3   18      0.32      0.00
    5    3   18     -0.06      0.00
    6    3   18     -0.43      0.00
    7    3   18     -0.77      0.00
    8    3   18      0.01      0.00
    9    3   18     -0.07      0.00
   10    3   18     -0.53      0.00
   -4    4   18     -0.08      0.00
   -3    4   18     -0.21      0.00
   -2    4   18     -0.41      0.00
   -1    4   18      0.11      0.00
    0    4   18     -0.09      0.00
    1    4   18     -0.39      0.00
    2    4   18     -0.27      0.00
    3    4   18     -0.56      0.00
    4    4   18     -0.24      0.00
    5    4   18      0.54      0.00
    6    4   18     -0.48      0.00
    7    4   18     -0.53      0.00
    8    4   18      0.24      0.00
    9    4   18      0.58      0.00
   10    4   18     -0.44      0.00
   -3    5   18      0.21      0.00
   -2    5   18      0.33      0.00
   -1    5   18     -0.47      0.00
    0    5   18     -0.26      0.00
    1    5   18     -0.40      0.00
    2    5   18     -1.31      0.00
    3    5   18     -0.47      0.00
    4    5   18      0.94      0.00
    5    5   18     -0.41      0.00
    6    5   18     -1.07      0.00
    7    5   18     -0.10      0.00
    8    5   18      0.65      0.00
    9    5   18     -0.19      0.00
   10    5   18      0.01      0.00
   -3    6   18      0.43      0.00
   -2    6   18      0.15      0.00
   -1    6   18     -0.21      0.00
    0    6   18     -0.19      0.00
    1    6   18      0.15      0.00
    2    6   18     -0.30      0.00
    3    6   18     -0.12      0.00
    4    6   18     -0.21      0.00
    5    6   18      0.19      0.00
    6    6   18     -0.42      0.00
    7    6   18     -0.58      0.00
    8    6   18      0.08      0.00
    9    6   18      0.48      0.00
   10    6   18     -0.02      0.00
   -3    7   18      0.25      0.00
   -2    7   18     -0.98      0.00
   -1    7   18     -1.01      0.00
    0    7   18      0.59      0.00
    1    7   18      0.44      0.00
    2    7   18      0.37      0.00
    3    7   18      0.05      0.00
    4    7   18      0.93      0.00
    5    7   18     -0.26      0.00
    6    7   18     -0.60      0.00
    7    7   18      0.34      0.00
    8    7   18     -0.14      0.00
    9    7   18     -0.35      0.00
   -2    8   18     -0.52      0.00
   -1    8   18     -0.48      0.00
    0    8   18     -0.44      0.00
    1    8   18      0.38      0.00
    2    8   18     -0.39      0.00
    3    8   18      0.85      0.00
    4    8   18      0.12      0.00
    5    8   18     -0.19      0.00
    6    8   18     -0.19      0.00
    7    8   18     -0.59      0.00
    8    8   18      0.44      0.00
    9    8   18     -0.12      0.00
   -2    9   18     -0.46      0.00
   -1    9   18      0.19      0.00
    0    9   18      1.09      0.00
    1    9   18     -0.13      0.00
    2    9   18     -0.02      0.00
    3    9   18     -0.67      0.00
    4    9   18      0.31      0.00
    5    9   18     -0.73      0.00
    6    9   18     -1.42      0.00
    7    9   18      0.71      0.00
    8    9   18     -0.11      0.00
    9    9   18     -0.25      0.00
   -1   10   18      0.00      0.00
    0   10   18      0.36      0.00
    1   10   18      0.24      0.00
    2   10   18     -0.52      0.00
    3   10   18      1.13      0.00
    4   10   18     -0.29      0.00
    5   10   18     -1.19      0.00
    6   10   18      0.31      0.00
    7   10   18     -0.61      0.00
    8   10   18     -0.34      0.00
    0   11   18     -0.89      0.00
    1   11   18     -0.78      0.00
    2   11   18      0.97      0.00
    3   11   18      0.44      0.00
    4   11   18     -0.13      0.00
    5   11   18     -0.49      0.00
    6   11   18     -0.88      0.00
    7   11   18      0.43      0.00
    1   12   18     -0.69      0.00
    2   12   18     -0.60      0.00
    3   12   18      0.22      0.00
    4   12   18     -0.10      0.00
    5   12   18     -0.58      0.00
    6   12   18      0.20      0.00
    3   13   18      0.42      0.00
    4   13   18     -0.64      0.00
    2   -7   19     -0.35      0.00
    3   -7   19      0.94      0.00
    0   -6   19      0.03      0.00
    1   -6   19     -0.80      0.00
    2   -6   19     -0.83      0.00
    3   -6   19     -0.63      0.00
    4   -6   19      0.44      0.00
    5   -6   19      0.97      0.00
   -1   -5   19      0.30      0.00
    0   -5   19      0.10      0.00
    1   -5   19     -0.77      0.00
    2   -5   19     -0.78      0.00
    3   -5   19      0.25      0.00
    4   -5   19     -0.26      0.00
    5   -5   19     -0.05      0.00
    6   -5   19      1.10      0.00
   -1   -4   19      0.33      0.00
    0   -4   19     -0.37      0.00
    1   -4   19     -0.75      0.00
    2   -4   19     -0.27      0.00
    3   -4   19      0.02      0.00
    4   -4   19      0.08      0.00
    5   -4   19      0.35      0.00
    6   -4   19      0.65      0.00
    7   -4   19      0.16      0.00
   -2   -3   19     -0.09      0.00
   -1   -3   19      0.25      0.00
    0   -3   19     -0.28      0.00
    1   -3   19     -0.74      0.00
    2   -3   19      0.08      0.00
    3   -3   19      0.34      0.00
    4   -3   19     -0.01      0.00
    5   -3   19      0.41      0.00
    6   -3   19      0.60      0.00
    7   -3   19     -0.02      0.00
   -2   -2   19      0.42      0.00
   -1   -2   19     -0.96      0.00
    0   -2   19     -0.26      0.00
    1   -2   19      0.56      0.00
    2   -2   19      0.24      0.00
    3   -2   19     -0.09      0.00
    4   -2   19     -0.25      0.00
    5   -2   19      0.05      0.00
    6   -2   19      0.41      0.00
    7   -2   19      0.22      0.00
    8   -2   19     -0.66      0.00
   -2   -1   19     -0.62      0.00
   -1   -1   19      0.91      0.00
    0   -1   19      0.54      0.00
    1   -1   19      0.28      0.00
    2   -1   19      0.45      0.00
    3   -1   19      0.11      0.00
    4   -1   19     -0.07      0.00
    5   -1   19      0.16      0.00
    6   -1   19      0.50      0.00
    7   -1   19     -0.64      0.00
    8   -1   19     -0.51      0.00
   -3    0   19     -0.38      0.00
   -2    0   19     -0.22      0.00
   -1    0   19     -0.46      0.00
    0    0   19      0.30      0.00
    1    0   19      0.40      0.00
    2    0   19      0.65      0.00
    3    0   19      0.14      0.00
    4    0   19     -0.44      0.00
    5    0   19      0.41      0.00
    6    0   19      0.18      0.00
    7    0   19      0.11      0.00
    8    0   19     -0.72      0.00
    9    0   19     -0.17      0.00
   -3    1   19      0.01      0.00
   -2    1   19      0.20      0.00
   -1    1   19      0.63      0.00
    0    1   19      0.64      0.00
    1    1   19      0.73      0.00
    2    1   19     -0.42      0.00
    3    1   19     -0.71      0.00
    4    1   19      0.25      0.00
    5    1   19      0.49      0.00
    6    1   19      0.30      0.00
    7    1   19     -1.07      0.00
    8    1   19     -0.29      0.00
    9    1   19      0.02      0.00
   -3    2   19      0.43      0.00
   -2    2   19      0.55      0.00
   -1    2   19     -0.09      0.00
    0    2   19     -0.02      0.00
    1    2   19      0.63      0.00
    2    2   19      0.98      0.00
    3    2   19      0.01      0.00
    4    2   19     -0.18      0.00
    5    2   19      0.20      0.00
    6    2   19     -0.28      0.00
    7    2   19     -0.23      0.00
    8    2   19     -0.56      0.00
    9    2   19      0.43      0.00
   -2    3   19     -0.08      0.00
   -1    3   19      0.19      0.00
    0    3   19      0.53      0.00
    1    3   19      0.10      0.00
    2    3   19     -0.22      0.00
    3    3   19      0.17      0.00
    4    3   19     -0.34      0.00
    5    3   19      0.03      0.00
    6    3   19      0.33      0.00
    7    3   19     -0.40      0.00
    8    3   19     -0.10      0.00
    9    3   19      0.12      0.00
   -2    4   19      0.21      0.00
   -1    4   19     -0.21      0.00
    0    4   19      0.08      0.00
    1    4   19      0.74      0.00
    2    4   19      0.00      0.00
    3    4   19     -1.32      0.00
    4    4   19      0.05      0.00
    5    4   19      0.83      0.00
    6    4   19     -0.18      0.00
    7    4   19     -0.75      0.00
    8    4   19      0.11      0.00
    9    4   19      0.40      0.00
   -2    5   19     -0.67      0.00
   -1    5   19     -0.06      0.00
    0    5   19     -0.10      0.00
    1    5   19      0.00      0.00
    2    5   19      0.05      0.00
    3    5   19      0.02      0.00
    4    5   19     -0.10      0.00
    5    5   19      0.08      0.00
    6    5   19      0.08      0.00
    7    5   19     -0.12      0.00
    8    5   19     -0.62      0.00
    9    5   19      0.23      0.00
   -2    6   19      0.98      0.00
   -1    6   19     -0.64      0.00
    0    6   19     -0.32      0.00
    1    6   19      0.09      0.00
    2    6   19     -0.08      0.00
    3    6   19      0.24      0.00
    4    6   19      0.24      0.00
    5    6   19      0.39      0.00
    6    6   19     -0.22      0.00
    7    6   19     -0.57      0.00
    8    6   19      0.53      0.00
    9    6   19     -0.10      0.00
   -1    7   19      0.43      0.00
    0    7   19     -0.29      0.00
    1    7   19     -0.05      0.00
    2    7   19      0.52      0.00
    3    7   19     -0.25      0.00
    4    7   19      0.53      0.00
    5    7   19      0.35      0.00
    6    7   19     -0.14      0.00
    7    7   19     -0.24      0.00
    8    7   19     -0.50      0.00
   -1    8   19     -1.48      0.00
    0    8   19     -0.31      0.00
    1    8   19      0.89      0.00
    2    8   19      0.53      0.00
    3    8   19      0.58      0.00
    4    8   19     -0.17      0.00
    5    8   19      0.29      0.00
    6    8   19     -0.38      0.00
    7    8   19     -0.89      0.00
    8    8   19      0.34      0.00
    0    9   19     -0.52      0.00
    1    9   19      0.16      0.00
    2    9   19     -0.02      0.00
    3    9   19     -0.40      0.00
    4    9   19      1.06      0.00
    5    9   19      0.13      0.00
    6    9   19     -0.67      0.00
    7    9   19     -0.12      0.00
    1   10   19     -0.89      0.00
    2   10   19     -0.52      0.00
    3   10   19      1.02      0.00
    4   10   19      0.33      0.00
    5   10   19     -0.21      0.00
    6   10   19     -0.68      0.00
    7   10   19     -1.16      0.00
    2   11   19     -0.09      0.00
    3   11   19     -0.35      0.00
    4   11   19      0.32      0.00
    5   11   19     -0.23      0.00
    1   -4   20     -0.05      0.00
    2   -4   20     -1.27      0.00
    3   -4   20     -0.68      0.00
    4   -4   20     -0.07      0.00
    0   -3   20     -0.26      0.00
    1   -3   20     -0.58      0.00
    2   -3   20     -0.31      0.00
    3   -3   20     -0.37      0.00
    4   -3   20     -0.07      0.00
    5   -3   20     -0.30      0.00
    0   -2   20      0.28      0.00
    1   -2   20     -0.17      0.00
    2   -2   20     -0.36      0.00
    3   -2   20      0.38      0.00
    4   -2   20      0.47      0.00
    5   -2   20     -0.06      0.00
    6   -2   20     -0.17      0.00
   -1   -1   20     -0.59      0.00
    0   -1   20     -1.04      0.00
    1   -1   20     -0.09      0.00
    2   -1   20      0.08      0.00
    3   -1   20      0.75      0.00
    4   -1   20      0.34      0.00
    5   -1   20     -0.40      0.00
    6   -1   20      0.22      0.00
    7   -1   20     -0.39      0.00
   -1    0   20     -0.44      0.00
    0    0   20     -0.13      0.00
    1    0   20      0.17      0.00
    2    0   20      1.15      0.00
    3    0   20     -0.04      0.00
    4    0   20     -0.46      0.00
    5    0   20      0.14      0.00
    6    0   20     -0.13      0.00
    7    0   20      0.55      0.00
   -1    1   20      0.33      0.00
    0    1   20     -0.06      0.00
    1    1   20      0.20      0.00
    2    1   20     -0.17      0.00
    3    1   20      0.68      0.00
    4    1   20      0.29      0.00
    5    1   20     -0.30      0.00
    6    1   20      0.26      0.00
    7    1   20     -0.40      0.00
   -1    2   20      0.07      0.00
    0    2   20      0.98      0.00
    1    2   20      0.70      0.00
    2    2   20      0.41      0.00
    3    2   20     -0.29      0.00
    4    2   20     -0.16      0.00
    5    2   20     -0.20      0.00
    6    2   20     -0.06      0.00
    7    2   20      0.27      0.00
   -1    3   20      0.63      0.00
    0    3   20     -0.50      0.00
    1    3   20      0.52      0.00
    2    3   20      0.97      0.00
    3    3   20      0.17      0.00
    4    3   20     -0.89      0.00
    5    3   20      0.29      0.00
    6    3   20      0.66      0.00
    7    3   20     -0.11      0.00
    8    3   20      0.12      0.00
   -1    4   20     -0.64      0.00
    0    4   20      0.12      0.00
    1    4   20     -0.49      0.00
    2    4   20     -0.24      0.00
    3    4   20     -0.24      0.00
    4    4   20      0.18      0.00
    5    4   20      0.08      0.00
    6    4   20      0.40      0.00
    7    4   20      0.68      0.00
    0    5   20     -0.63      0.00
    1    5   20      0.38      0.00
    2    5   20     -0.33      0.00
    3    5   20     -0.44      0.00
    4    5   20      0.01      0.00
    5    5   20      0.35      0.00
    6    5   20      0.42      0.00
    7    5   20     -0.20      0.00
    0    6   20      0.63      0.00
    1    6   20     -0.27      0.00
    2    6   20      0.47      0.00
    3    6   20      0.41      0.00
    4    6   20     -0.24      0.00
    5    6   20      0.58      0.00
    6    6   20      0.34      0.00
    7    6   20      0.18      0.00
    1    7   20     -0.09      0.00
    2    7   20      0.51      0.00
    3    7   20      0.71      0.00
    4    7   20      1.17      0.00
    5    7   20      0.03      0.00
    6    7   20      0.21      0.00
    7    7   20     -0.26      0.00
    2    8   20      0.16      0.00
    3    8   20      0.23      0.00
    4    8   20     -0.32      0.00
    5    8   20      0.79      0.00
    6    8   20      0.32      0.00
    3    9   20     -0.17      0.00
    4    9   20      0.93      0.00
    3    0   21     -0.77      0.00
    4    0   21      1.00      0.00
    2    1   21      0.37      0.00
    3    1   21      0.96      0.00
    4    1   21     -0.34      0.00
    5    1   21     -0.03      0.00
    2    2   21      0.35      0.00
    3    2   21      0.31      0.00
    4    2   21      0.29      0.00
    5    2   21     -0.66      0.00
    2    3   21     -0.21      0.00
    3    3   21     -0.28      0.00
    4    3   21     -0.64      0.00
    5    3   21     -0.02      0.00
    2    4   21      0.75      0.00
    3    4   21     -0.36      0.00
    4    4   21     -0.35      0.00
    5    4   21     -0.42      0.00
    3    5   21      0.37      0.00
    4    5   21     -0.49      0.00
    1    0    0     36.18      0.00
   14    0    0     -0.49      0.00
  -14    1    0     -0.63      0.00
    0    1    0     34.57      0.00
    1    1    0     38.75      0.00
   14    4    0      0.03      0.00
   14    5    0     -0.54      0.00
  -13    6    0     -0.16      0.00
  -12    9    0      0.56      0.00
   13   10    0      0.15      0.00
  -10   13    0     -0.25      0.00
   -8   16    0     -0.46      0.00
   -7   17    0     -0.44      0.00
   -6   18    0      0.17      0.00
   -5  -20    1     -0.20      0.00
   -8  -18    1     -0.16      0.00
    6  -18    1      0.38      0.00
   -9  -17    1     -0.23      0.00
    7  -17    1      0.02      0.00
    8  -16    1     -0.54      0.00
   14   -2    1      0.38      0.00
    0   -1    1      6.55      0.00
    0    0    1     40.88      0.00
    1    0    1     32.76      0.00
    0    1    1     48.54      0.00
    1    1    1     79.16      0.00
   14    6    1     -0.56      0.00
  -11   11    1     -0.07      0.00
  -10   13    1     -0.64      0.00
   11   15    1     -0.11      0.00
   -7   17    1     -0.45      0.00
    6   20    1     -0.27      0.00
    2  -20    2      0.76      0.00
    7  -17    2      0.31      0.00
    8  -16    2     -0.26      0.00
  -13    5    2      0.35      0.00
   14    7    2      0.05      0.00
   13   11    2      0.31      0.00
    6   20    2     -0.26      0.00
    4  -19    3     -0.50      0.00
  -10  -15    3      0.63      0.00
  -12  -11    3     -0.15      0.00
  -13   -7    3      0.21      0.00
   13   -7    3      0.19      0.00
   14   -3    3      0.18      0.00
   14    8    3      0.07      0.00
   -9   14    3     -0.29      0.00
   10   17    3      0.06      0.00
    9   18    3      0.41      0.00
   -2  -20    4      0.23      0.00
   -1  -20    4     -0.47      0.00
    0  -20    4      0.48      0.00
    1  -20    4     -0.05      0.00
   -5  -19    4      0.50      0.00
  -12  -10    4     -0.62      0.00
   13   -7    4      0.51      0.00
  -13   -5    4      0.62      0.00
   14   -3    4     -0.04      0.00
  -13    2    4      0.27      0.00
  -12    7    4     -0.53      0.00
   14    8    4      0.28      0.00
  -10   12    4     -0.26      0.00
   12   14    4     -0.09      0.00
   -8   15    4     -0.08      0.00
   10   17    4     -0.19      0.00
    9   18    4     -0.01      0.00
   -4   19    4      0.43      0.00
    8   19    4     -0.07      0.00
   -2   20    4      0.06      0.00
   -4  -19    5      0.30      0.00
    3  -19    5      0.03      0.00
   -6  -18    5     -0.06      0.00
    5  -18    5      0.26      0.00
   -9  -15    5     -0.37      0.00
   10  -13    5     -0.63      0.00
   13   -7    5     -0.21      0.00
   14   -3    5      0.08      0.00
  -12    6    5     -0.03      0.00
   14    8    5     -0.34      0.00
  -11    9    5     -0.17      0.00
   13   12    5      0.17      0.00
   12   14    5      0.00      0.00
   -7   16    5     -0.32      0.00
   -6   17    5     -0.18      0.00
   10   17    5      0.13      0.00
   -5   18    5      0.11      0.00
    9   18    5      0.08      0.00
    8   19    5      0.03      0.00
   -2   20    5     -0.02      0.00
    6   20    5      0.12      0.00
   -3  -19    6      0.14      0.00
    2  -19    6      0.50      0.00
    6  -17    6     -0.09      0.00
  -12   -7    6      0.48      0.00
   14   -3    6     -0.20      0.00
  -12    4    6     -0.02      0.00
  -11    8    6      0.05      0.00
   14    8    6     -0.28      0.00
   13   12    6      0.07      0.00
   12   14    6      0.03      0.00
   10   17    6     -0.05      0.00
    9   18    6      0.26      0.00
    6   20    6      0.50      0.00
   -1  -19    7     -0.13      0.00
    0  -19    7     -0.03      0.00
    4  -18    7      0.43      0.00
   -7  -16    7      0.34      0.00
    7  -16    7      0.24      0.00
   -8  -15    7     -0.11      0.00
    8  -15    7     -0.26      0.00
   11  -11    7     -0.22      0.00
  -11   -9    7      0.69      0.00
   12   -9    7     -0.07      0.00
  -12   -4    7      0.31      0.00
  -12    2    7     -0.48      0.00
  -11    7    7     -0.18      0.00
   14    8    7      0.25      0.00
  -10   10    7     -0.01      0.00
   -9   12    7      0.14      0.00
   12   14    7      0.01      0.00
   -7   15    7      0.49      0.00
   10   17    7     -0.07      0.00
    9   18    7      0.08      0.00
   -3  -18    8      0.16      0.00
    3  -18    8     -0.14      0.00
   -5  -17    8      0.59      0.00
    5  -17    8      0.13      0.00
   -8  -14    8      0.04      0.00
   13   -6    8      0.87      0.00
   14   -2    8     -0.14      0.00
   14    8    8     -0.19      0.00
  -10    9    8      0.23      0.00
   -9   11    8      0.10      0.00
   -8   13    8     -0.78      0.00
   -2   19    8      0.14      0.00
    0   20    8     -0.11      0.00
    5   20    8     -0.42      0.00
    0  -18    9     -0.71      0.00
    4  -17    9     -0.71      0.00
    6  -16    9     -0.29      0.00
   -8  -13    9      0.56      0.00
    9  -13    9      0.32      0.00
   11  -10    9     -0.29      0.00
  -10   -9    9      0.19      0.00
   12   -8    9      0.16      0.00
  -11   -5    9     -0.44      0.00
   14   -1    9     -0.14      0.00
  -11    3    9      0.88      0.00
   14    7    9     -0.26      0.00
   -9   10    9      0.36      0.00
   13   11    9      0.75      0.00
   11   15    9      0.72      0.00
   -3   18    9      0.01      0.00
    7   19    9     -0.20      0.00
    2   20    9      0.35      0.00
    3   20    9     -0.03      0.00
    4   20    9      0.39      0.00
   -2  -17   10      0.09      0.00
    3  -17   10     -0.11      0.00
   -4  -16   10     -0.24      0.00
    5  -16   10     -0.40      0.00
   -8  -12   10      0.44      0.00
   -9  -10   10     -0.11      0.00
  -10   -7   10      0.30      0.00
   14    0   10      0.35      0.00
   14    1   10     -0.12      0.00
   14    5   10      1.24      0.00
  -10    6   10      0.32      0.00
   14    6   10     -0.16      0.00
   -9    9   10      0.02      0.00
   -7   13   10     -0.17      0.00
   12   13   10      0.88      0.00
   10   16   10     -0.30      0.00
    9   17   10      0.24      0.00
    8   18   10     -0.03      0.00
    6   19   10     -0.59      0.00
    4  -16   11     -0.08      0.00
    7  -14   11     -0.49      0.00
    8  -13   11      0.58      0.00
    9  -12   11      0.29      0.00
   11   -9   11      0.13      0.00
  -10   -4   11      0.40      0.00
   13   -4   11     -0.36      0.00
  -10    3   11      0.98      0.00
   -8   10   11     -0.44      0.00
   13   10   11     -0.37      0.00
   -7   12   11      0.74      0.00
   -5   15   11     -0.47      0.00
   -4   16   11      0.00      0.00
    1   19   11     -0.04      0.00
    5   19   11      0.09      0.00
    1  -16   12     -0.37      0.00
   -3  -15   12     -0.07      0.00
   -7  -11   12      0.30      0.00
   10  -10   12      0.55      0.00
   -8   -9   12      0.57      0.00
   11   -8   12     -0.46      0.00
   -9   -6   12      0.04      0.00
   12   -6   12     -0.14      0.00
   13    9   12      0.43      0.00
   -7   11   12     -0.18      0.00
   -5   14   12      0.18      0.00
   10   15   12     -0.04      0.00
   -2   17   12     -0.58      0.00
    8   17   12     -0.39      0.00
    0   18   12      0.31      0.00
    0  -15   13      0.89      0.00
    1  -15   13     -0.09      0.00
    2  -15   13     -0.46      0.00
   -3  -14   13     -0.33      0.00
    5  -14   13      0.17      0.00
   -6  -11   13     -0.45      0.00
   10   -9   13      0.93      0.00
   -8   -7   13     -0.12      0.00
   12   -5   13      0.37      0.00
   -9   -2   13     -0.24      0.00
   -9   -1   13      0.38      0.00
   13   -1   13     -0.27      0.00
   -9    0   13     -0.46      0.00
   -9    1   13      1.28      0.00
   -9    2   13      0.59      0.00
   -8    7   13     -0.67      0.00
   13    7   13     -0.58      0.00
   12   11   13     -0.10      0.00
   -5   13   13      0.40      0.00
   11   13   13     -0.81      0.00
    7   17   13      0.43      0.00
    2   18   13      0.21      0.00
    3   18   13      0.10      0.00
    4   18   13     -0.24      0.00
    5   18   13     -0.60      0.00
    0  -14   14      0.34      0.00
    2  -14   14     -0.54      0.00
    3  -14   14      0.17      0.00
   -4  -12   14     -0.07      0.00
   -5  -11   14     -0.27      0.00
   10   -8   14     -0.05      0.00
   11   -6   14     -0.37      0.00
   -8   -4   14     -0.08      0.00
   13    2   14      1.03      0.00
   13    3   14     -0.37      0.00
   -8    4   14     -0.67      0.00
   13    4   14      0.34      0.00
   -7    8   14     -0.60      0.00
   -6   10   14      0.17      0.00
   -5   12   14     -0.55      0.00
   11   12   14     -0.80      0.00
    9   15   14      0.51      0.00
   -1   16   14      0.06      0.00
    1   17   14      0.17      0.00
    6   17   14      0.08      0.00
    0  -13   15     -0.55      0.00
    1  -13   15     -0.33      0.00
    2  -13   15      0.32      0.00
    3  -13   15      0.21      0.00
   10   -7   15      0.39      0.00
   -7    5   15     -0.53      0.00
   12    8   15      0.42      0.00
   11   11   15      0.47      0.00
   -4   12   15     -0.43      0.00
    9   14   15     -0.16      0.00
   -1   15   15     -0.44      0.00
    8   15   15      0.58      0.00
    1   16   15      0.23      0.00
    6   16   15      0.85      0.00
    1  -12   16     -0.77      0.00
    2  -12   16     -0.61      0.00
    5  -11   16      0.17      0.00
   -3  -10   16      0.06      0.00
   -4   -9   16     -0.34      0.00
   -5   -7   16     -0.46      0.00
   11   -3   16      0.18      0.00
   12    2   16     -0.50      0.00
   12    3   16      0.48      0.00
   12    4   16      0.18      0.00
   12    5   16      0.57      0.00
   -6    6   16     -0.07      0.00
   11    9   16     -0.31      0.00
   -3   12   16     -0.74      0.00
   -2   13   16     -0.58      0.00
    9   13   16     -0.17      0.00
   -1   14   16     -0.81      0.00
    8   14   16     -0.04      0.00
    1   15   16     -0.31      0.00
   -1  -10   17      1.25      0.00
   -2   -9   17      0.21      0.00
   -3   -8   17     -0.26      0.00
   -5   -4   17      0.08      0.00
   11    0   17     -0.84      0.00
   -5    6   17      0.06      0.00
   11    7   17      0.31      0.00
   -3   10   17      0.22      0.00
   10   10   17      0.28      0.00
    1   14   17     -0.48      0.00
    6   14   17      0.20      0.00
    1   -9   18      0.16      0.00
    2   -9   18      0.64      0.00
    3   -9   18      0.65      0.00
   -1   -8   18     -0.05      0.00
   -2   -7   18      0.03      0.00
    9   -4   18     -0.03      0.00
   -4   -3   18      0.57      0.00
   10   -1   18      0.43      0.00
   -4    5   18     -0.21      0.00
   10    7   18      0.20      0.00
   -3    8   18     -0.30      0.00
    9   10   18      0.06      0.00
   -1   11   18      0.16      0.00
    8   11   18      0.50      0.00
    0   12   18     -0.10      0.00
    7   12   18      0.51      0.00
    2   13   18      0.28      0.00
    5   13   18     -1.05      0.00
    1   -7   19     -0.89      0.00
    4   -7   19      0.30      0.00
    6   -6   19      1.22      0.00
   -2   -4   19      0.13      0.00
    8   -3   19     -0.39      0.00
   -3   -2   19      1.22      0.00
   -3   -1   19     -0.85      0.00
    9   -1   19     -0.01      0.00
   -3    3   19      0.63      0.00
   -3    4   19     -0.59      0.00
   -2    7   19     -0.17      0.00
    9    7   19      0.76      0.00
    8    9   19     -0.75      0.00
    0   10   19      0.47      0.00
    6   11   19     -1.00      0.00
    2   -5   20     -0.31      0.00
    3   -5   20     -0.31      0.00
    5   -4   20     -0.16      0.00
    6   -3   20     -0.17      0.00
   -1   -2   20     -0.48      0.00
    7   -2   20      0.47      0.00
    8    1   20      0.13      0.00
    8    2   20     -0.35      0.00
    8    4   20      0.13      0.00
   -1    5   20      0.52      0.00
    8    5   20      0.19      0.00
    0    7   20     -1.31      0.00
    1    8   20     -0.22      0.00
    2    9   20     -0.46      0.00
    5    9   20      0.15      0.00
    6    9   20      0.11      0.00
    2   -1   21     -0.16      0.00
    3   -1   21      0.89      0.00
    4   -1   21     -0.05      0.00
    2    0   21      0.00      0.00
    5    0   21      0.20      0.00
    1    1   21      0.15      0.00
    1    2   21     -0.46      0.00
    6    2   21      0.05      0.00
    1    3   21      0.87      0.00
    6    3   21     -0.26      0.00
    6    4   21      0.48      0.00
    2    5   21     -0.54      0.00
    5    5   21     -0.21      0.00
    3    6   21     -0.49      0.00
    4    6   21      0.34      0.00
    5    6   21      0.55      0.00
    0    0    0      0.00      0.00
# SQUEEZE RESULTS (Version =  21116)
# Note: Data are Listed for all Voids in the P1 Unit Cell
# i.e. Centre of Gravity, Solvent Accessible Volume,
# Recovered number of Electrons in the Void and
# Details about the Squeezed Material
loop_
  _platon_squeeze_void_nr
  _platon_squeeze_void_average_x
  _platon_squeeze_void_average_y
  _platon_squeeze_void_average_z
  _platon_squeeze_void_volume
  _platon_squeeze_void_count_electrons
  _platon_squeeze_void_content
   1  0.000  0.000  0.000       349        83 ' '
   2  0.500  0.500  0.292       477        42 ' '
# Missing Reflections Below sin(th)/lambda = 0.25
loop_
  _platon_missing_refln_index_h
  _platon_missing_refln_index_k
  _platon_missing_refln_index_l
  _platon_missing_refln_theta
    1    0    0     1.759
    0    1    0     1.187
    1    1    0     2.017
    0   -1    1     1.761
    0    0    1     1.199
    1    0    1     1.886
    0    1    1     1.611
    1    1    1     2.068
_platon_squeeze_void_probe_radius                  1.20
_platon_squeeze_details
)
TITL mo_xjr2016P -1sr_0m    R = 0.05
CELL   11.9979   17.3660   17.5730     83.27     75.95     82.59
SPGR P-1
# Solvent Accessible Volume =       828
# Electrons Found in S.A.V. =       125
# Note: Atoms in Void as Cxxx and Qxxx all others
C101 0.810 0.958 0.318 !       3.18 eA-3
C102 1.003 0.028 0.078 !       3.09 eA-3
C103 0.780 0.977 0.117 !       2.77 eA-3
C104 0.887 0.855 0.201 !       2.26 eA-3
C105 0.942 0.837 0.061 !       0.83 eA-3
C106 0.217 0.645 0.343 !       0.82 eA-3
Q107 0.184 0.171 0.153 !       0.80 eA-3
Q108 0.721 0.751 0.017 !       0.78 eA-3
Q109 0.858 0.130 0.278 !       0.77 eA-3
Q110 0.345 0.763 0.371 !       0.77 eA-3
C111 0.500 0.500 0.000 !       0.76 eA-3
Q112 0.737 0.121 0.028 !       0.73 eA-3
C113 0.450 0.475 0.048 !       0.72 eA-3
Q114 0.563 0.014 0.320 !       0.72 eA-3
Q115 0.841 0.628 0.021 !       0.72 eA-3
Q116 0.345 0.152 0.482 !       0.71 eA-3
C117 0.907 0.842 0.111 !       0.69 eA-3
Q118 0.105 0.277 0.096 !       0.69 eA-3
Q119 0.751 0.367 0.465 !       0.69 eA-3
Q120 0.559 0.307 0.273 !       0.69 eA-3
Q121 0.575 0.545 0.181 !       0.69 eA-3
Q122 0.454 0.654 0.198 !       0.68 eA-3
Q123 0.749 0.749 0.258 !       0.68 eA-3
Q124 0.630 0.862 0.229 !       0.67 eA-3
Q125 0.972 0.673 0.405 !       0.67 eA-3
Q126 0.436 0.251 0.139 !       0.66 eA-3
Q127 0.548 0.354 0.133 !       0.66 eA-3
Q128 0.777 0.230 0.216 !       0.66 eA-3
Q129 0.207 0.410 0.402 !       0.66 eA-3
Q130 1.003 0.778 0.471 !       0.65 eA-3
C131 0.298 0.551 0.276 !       0.65 eA-3
Q132 0.846 0.233 0.024 !       0.65 eA-3
Q133 0.625 0.741 0.455 !       0.61 eA-3
Q134 0.063 0.278 0.274 !       0.61 eA-3
Q135 0.669 0.230 0.483 !       0.60 eA-3
Q136 0.455 0.645 0.398 !       0.60 eA-3
Q137 0.229 0.575 0.081 !       0.60 eA-3
Q138 0.112 0.483 0.068 !       0.59 eA-3
Q139 0.831 0.611 0.198 !       0.59 eA-3
Q140 0.751 0.106 0.448 !       0.59 eA-3
Q141 0.032 0.485 0.442 !       0.57 eA-3
Q142 0.269 0.868 0.350 !       0.57 eA-3
Q143 0.298 0.107 0.000 !       0.54 eA-3
Q144 0.892 0.372 0.288 !       0.51 eA-3
Q145 0.317 0.737 0.130 !       0.50 eA-3
)
;
_shelx_shelxl_version_number     2014/7
_olex2_submission_special_instructions 'No special instructions were received'
loop_
_space_group_symop_operation_xyz
'x, y, z'
'-x, -y, -z'
loop_
_atom_site_label
_atom_site_type_symbol
_atom_site_fract_x
_atom_site_fract_y
_atom_site_fract_z
_atom_site_U_iso_or_equiv
_atom_site_adp_type
_atom_site_occupancy
_atom_site_site_symmetry_order
_atom_site_calc_flag
_atom_site_refinement_flags_posn
Sr1 Sr 0.38703(2) -0.03774(2) 0.10194(2) 0.02842(7) Uani 1 1 d .
Sr2 Sr 0.37925(2) 0.07829(2) 0.29432(2) 0.02632(6) Uani 1 1 d .
Sr3 Sr 0.12770(2) -0.04722(2) 0.41205(2) 0.02717(6) Uani 1 1 d .
O1 O 0.55326(15) 0.05470(9) 0.04437(10) 0.0319(4) Uani 1 1 d .
C2 C 0.5135(2) 0.10622(12) 0.09176(14) 0.0253(5) Uani 1 1 d .
O3 O 0.42291(15) 0.10050(9) 0.14518(10) 0.0328(4) Uani 1 1 d .
O4 O 0.23604(15) 0.07081(10) 0.42543(11) 0.0374(4) Uani 1 1 d .
C5 C 0.1526(2) 0.10291(13) 0.47360(14) 0.0287(5) Uani 1 1 d .
O6 O 0.05610(15) 0.07656(10) 0.49483(11) 0.0365(4) Uani 1 1 d .
O7 O 0.3280(2) -0.08635(14) 0.35174(14) 0.0693(7) Uani 1 1 d .
C8 C 0.4071(2) -0.10441(15) 0.29458(16) 0.0347(6) Uani 1 1 d .
C9 C 0.4763(2) 0.81826(14) 0.30245(14) 0.0302(5) Uani 1 1 d .
O10 O 0.43465(18) -0.05828(10) 0.23468(11) 0.0398(4) Uani 1 1 d .
O11 O 0.17810(18) -0.09781(14) 0.54147(13) 0.0557(6) Uani 1 1 d .
H11A H 0.1271 -0.0784 0.5802 0.084 Uiso 1 1 d GR
H11B H 0.2450 -0.0847 0.5422 0.084 Uiso 1 1 d GR
O12 O 0.18261(17) 0.05086(11) 0.26408(14) 0.0479(5) Uani 1 1 d .
C13 C 0.0762(3) 0.06894(15) 0.27599(17) 0.0382(6) Uani 1 1 d .
O14 O 0.0044(2) 0.03487(14) 0.33000(14) 0.0611(6) Uani 1 1 d .
C15 C 1.0280(2) 0.13570(13) 0.22611(15) 0.0297(5) Uani 1 1 d .
O16 O 0.1069(5) -0.1437(2) 0.3183(2) 0.153(2) Uani 1 1 d .
H16A H 0.1124 -0.1903 0.3405 0.230 Uiso 1 1 d GR
H16B H 0.1610 -0.1401 0.2763 0.230 Uiso 1 1 d GR
C17 C 0.8300(2) 0.82601(13) 0.49186(15) 0.0312(5) Uani 1 1 d .
O18 O 0.5001(3) -0.00005(17) 0.3945(2) 0.0979(11) Uani 1 1 d .
H18A H 0.4592 -0.0345 0.4264 0.147 Uiso 1 1 d GR
H18B H 0.5188 0.0322 0.4234 0.147 Uiso 1 1 d GR
O19 O 0.6165(3) 0.0499(2) 0.2392(2) 0.1191(13) Uani 1 1 d .
H19A H 0.6697 0.0756 0.2520 0.179 Uiso 1 1 d GR
H19B H 0.6528 0.0134 0.2058 0.179 Uiso 1 1 d GR
O20 O 0.25916(16) 0.21414(10) 0.29566(13) 0.0440(5) Uani 1 1 d .
C21 C 0.2551(2) 0.27578(14) 0.32335(16) 0.0339(6) Uani 1 1 d .
O22 O 0.34379(17) 0.29859(11) 0.34189(16) 0.0532(6) Uani 1 1 d .
H22 H 0.3928 0.2614 0.3441 0.080 Uiso 1 1 calc GR
C23 C 0.1496(2) 0.33168(14) 0.33905(16) 0.0329(6) Uani 1 1 d .
C24 C 0.1407(3) 0.39288(16) 0.3849(2) 0.0480(8) Uani 1 1 d .
H24 H 0.2021 0.4001 0.4060 0.058 Uiso 1 1 calc R
C25 C 1.0403(3) 0.44319(16) 0.3992(2) 0.0477(8) Uani 1 1 d .
H25 H 1.0344 0.4836 0.4308 0.057 Uiso 1 1 calc R
C26 C 0.0578(3) 0.32210(17) 0.3083(2) 0.0482(8) Uani 1 1 d .
H26 H 0.0627 0.2804 0.2785 0.058 Uiso 1 1 calc R
C27 C -0.0407(2) 0.37311(17) 0.32082(19) 0.0473(8) Uani 1 1 d .
H27 H -0.1008 0.3667 0.2980 0.057 Uiso 1 1 calc R
C28 C 0.9484(2) 0.43446(13) 0.36746(16) 0.0321(5) Uani 1 1 d .
O29 O 0.49379(15) 0.17762(10) 0.33997(13) 0.0407(5) Uani 1 1 d .
C30 C 0.5706(2) 0.18040(14) 0.37768(18) 0.0377(6) Uani 1 1 d .
O31 O 0.6112(2) 0.12315(12) 0.41486(18) 0.0710(8) Uani 1 1 d .
C32 C 0.6131(2) 0.25880(14) 0.37662(16) 0.0315(5) Uani 1 1 d .
C33 C 0.5992(2) 0.31706(15) 0.31777(16) 0.0343(6) Uani 1 1 d .
H33 H 0.5626 0.3077 0.2793 0.041 Uiso 1 1 calc R
C34 C 0.6384(2) 0.38846(15) 0.31516(16) 0.0342(6) Uani 1 1 d .
H34 H 0.6282 0.4268 0.2751 0.041 Uiso 1 1 calc R
C35 C 0.6933(2) 0.40371(13) 0.37203(16) 0.0316(5) Uani 1 1 d .
C36 C 0.7068(3) 0.34570(15) 0.43145(18) 0.0422(7) Uani 1 1 d .
H36 H 0.7430 0.3551 0.4701 0.051 Uiso 1 1 calc R
C37 C 0.6669(3) 0.27403(15) 0.43379(18) 0.0414(7) Uani 1 1 d .
H37 H 0.6763 0.2358 0.4741 0.050 Uiso 1 1 calc R
C38 C 0.7355(2) 0.48094(13) 0.36834(15) 0.0302(5) Uani 1 1 d .
C39 C 0.8450(2) 0.49274(13) 0.37862(15) 0.0310(5) Uani 1 1 d .
N40 N 0.86160(18) 0.56275(11) 0.39618(13) 0.0331(5) Uani 1 1 d .
C41 C 0.7809(2) 0.62267(13) 0.39304(16) 0.0314(5) Uani 1 1 d .
C42 C 0.6865(2) 0.61416(13) 0.36096(15) 0.0305(5) Uani 1 1 d .
N43 N 0.66156(18) 0.54281(11) 0.35424(13) 0.0319(5) Uani 1 1 d .
C44 C 0.6118(2) 0.68175(13) 0.33466(15) 0.0297(5) Uani 1 1 d .
C45 C 0.4935(2) 0.68655(15) 0.36135(18) 0.0399(6) Uani 1 1 d .
H45 H 0.4587 0.6436 0.3892 0.048 Uiso 1 1 calc R
C46 C 0.4264(2) 0.75495(16) 0.34676(18) 0.0415(7) Uani 1 1 d .
H46 H 0.3469 0.7585 0.3669 0.050 Uiso 1 1 calc R
C47 C 0.5935(2) 0.81113(14) 0.26974(16) 0.0354(6) Uani 1 1 d .
H47 H 0.6268 0.8516 0.2360 0.043 Uiso 1 1 calc R
C48 C 0.6616(2) 0.74394(14) 0.28703(17) 0.0361(6) Uani 1 1 d .
H48 H 0.7411 0.7403 0.2667 0.043 Uiso 1 1 calc R
C49 C 0.7969(2) 0.69460(13) 0.42541(16) 0.0332(6) Uani 1 1 d .
C50 C 0.7032(2) 0.74518(15) 0.45998(17) 0.0371(6) Uani 1 1 d .
H50 H 0.6285 0.7352 0.4610 0.045 Uiso 1 1 calc R
C51 C 0.7201(2) 0.80987(15) 0.49273(17) 0.0364(6) Uani 1 1 d .
H51 H 0.6567 0.8430 0.5157 0.044 Uiso 1 1 calc R
C52 C 0.9241(2) 0.77494(16) 0.4596(2) 0.0446(7) Uani 1 1 d .
H52 H 0.9984 0.7844 0.4602 0.054 Uiso 1 1 calc R
C53 C 0.9076(2) 0.71004(15) 0.4266(2) 0.0460(7) Uani 1 1 d .
H53 H 0.9710 0.6763 0.4049 0.055 Uiso 1 1 calc R
C54 C 0.5786(2) 0.17556(13) 0.08598(14) 0.0254(5) Uani 1 1 d .
C55 C 0.5226(2) 0.24369(13) 0.11828(15) 0.0307(5) Uani 1 1 d .
H55 H 0.4433 0.2479 0.1394 0.037 Uiso 1 1 calc R
C56 C 0.5856(2) 0.30527(13) 0.11884(16) 0.0307(5) Uani 1 1 d .
H56 H 0.5474 0.3515 0.1385 0.037 Uiso 1 1 calc R
C57 C 0.7042(2) 0.29893(12) 0.09065(14) 0.0256(5) Uani 1 1 d .
C58 C 0.7714(2) 0.36103(12) 0.10230(14) 0.0260(5) Uani 1 1 d .
C59 C 0.8797(2) 0.34638(13) 0.12138(14) 0.0266(5) Uani 1 1 d .
N60 N 0.93873(17) 0.40584(11) 0.12522(12) 0.0287(4) Uani 1 1 d .
C61 C 0.8890(2) 0.47909(13) 0.11796(15) 0.0285(5) Uani 1 1 d .
C62 C 0.7764(2) 0.49343(13) 0.10553(15) 0.0280(5) Uani 1 1 d .
C63 C 0.7097(2) 0.57195(13) 0.10208(15) 0.0307(5) Uani 1 1 d .
C64 C 0.7542(3) 0.63473(15) 0.05205(19) 0.0471(7) Uani 1 1 d .
H64 H 0.8276 0.6281 0.0191 0.057 Uiso 1 1 calc R
C65 C 0.6901(3) 0.70650(15) 0.05119(19) 0.0466(7) Uani 1 1 d .
H65 H 0.7213 0.7479 0.0178 0.056 Uiso 1 1 calc R
C66 C 0.5806(2) 0.71829(13) 0.09887(15) 0.0312(5) Uani 1 1 d .
C67 C 0.5357(2) 0.65590(14) 0.14819(17) 0.0366(6) Uani 1 1 d .
H67 H 0.4621 0.6625 0.1808 0.044 Uiso 1 1 calc R
C68 C 0.5999(2) 0.58369(14) 0.14922(17) 0.0373(6) Uani 1 1 d .
H68 H 0.5683 0.5423 0.1823 0.045 Uiso 1 1 calc R
C69 C 0.5139(2) -0.20245(13) 0.09918(15) 0.0304(5) Uani 1 1 d .
N70 N 0.72047(17) 0.43431(11) 0.09614(12) 0.0289(4) Uani 1 1 d .
C71 C 0.9597(2) 0.53979(13) 0.12854(15) 0.0305(5) Uani 1 1 d .
C72 C 1.0771(2) 0.53354(15) 0.09366(17) 0.0375(6) Uani 1 1 d .
H72 H 1.1099 0.4919 0.0641 0.045 Uiso 1 1 calc R
C73 C 1.1457(2) 0.58838(15) 0.10234(17) 0.0379(6) Uani 1 1 d .
H73 H 1.2240 0.5837 0.0782 0.045 Uiso 1 1 calc R
C74 C 1.0984(2) 0.65019(14) 0.14678(17) 0.0368(6) Uani 1 1 d .
C75 C 0.9824(2) 0.65536(17) 0.1839(2) 0.0499(8) Uani 1 1 d .
H75 H 0.9504 0.6960 0.2152 0.060 Uiso 1 1 calc R
C76 C 0.9134(2) 0.60057(17) 0.17485(19) 0.0461(7) Uani 1 1 d .
H76 H 0.8355 0.6046 0.2001 0.055 Uiso 1 1 calc R
C77 C 1.1693(2) 0.71227(16) 0.15380(19) 0.0440(7) Uani 1 1 d .
O78 O 1.27879(16) 0.69737(11) 0.12666(14) 0.0477(5) Uani 1 1 d .
O79 O 1.1247(2) 0.77329(15) 0.1816(2) 0.0904(11) Uani 1 1 d .
C80 C 0.9317(2) 0.26884(13) 0.14959(14) 0.0259(5) Uani 1 1 d .
C81 C 1.0502(2) 0.24730(14) 0.13128(16) 0.0328(5) Uani 1 1 d .
H81 H 1.0982 0.2779 0.0935 0.039 Uiso 1 1 calc R
C82 C 1.0979(2) 0.18090(14) 0.16860(15) 0.0323(5) Uani 1 1 d .
H82 H 1.1772 0.1667 0.1550 0.039 Uiso 1 1 calc R
C83 C 0.9097(2) 0.15533(16) 0.24246(16) 0.0376(6) Uani 1 1 d .
H83 H 0.8618 0.1240 0.2794 0.045 Uiso 1 1 calc R
C84 C 0.8618(2) 0.22079(15) 0.20467(16) 0.0347(6) Uani 1 1 d .
H84 H 0.7820 0.2329 0.2161 0.042 Uiso 1 1 calc R
C85 C 0.7591(2) 0.23236(13) 0.05425(15) 0.0297(5) Uani 1 1 d .
H85 H 0.8381 0.2287 0.0319 0.036 Uiso 1 1 calc R
C86 C 0.6959(2) 0.17156(13) 0.05134(14) 0.0287(5) Uani 1 1 d .
H86 H 0.7324 0.1279 0.0260 0.034 Uiso 1 1 calc R
O87 O 0.1814(2) -0.07552(14) 0.13468(18) 0.0756(8) Uani 1 1 d .
H87A H 0.1340 -0.0384 0.1563 0.113 Uiso 1 1 d GR
H87B H 0.1764 -0.1170 0.1668 0.113 Uiso 1 1 d GR
O88 O 0.40522(15) -0.19541(9) 0.12508(12) 0.0374(4) Uani 1 1 d .
O89 O 0.56795(16) -0.14402(9) 0.07516(12) 0.0413(5) Uani 1 1 d .
O90 O 0.26415(18) 0.06867(13) 0.03004(14) 0.0550(6) Uani 1 1 d .
H90A H 0.2192 0.0470 0.0091 0.082 Uiso 1 1 d GR
H90B H 0.3092 0.0952 -0.0068 0.082 Uiso 1 1 d GR
loop_
_atom_site_aniso_label
_atom_site_aniso_U_11
_atom_site_aniso_U_22
_atom_site_aniso_U_33
_atom_site_aniso_U_23
_atom_site_aniso_U_13
_atom_site_aniso_U_12
Sr1 0.03497(13) 0.01790(11) 0.03566(13) -0.00019(9) -0.01200(10) -0.00951(9)
Sr2 0.02839(12) 0.01786(11) 0.03251(12) -0.00691(8) -0.00552(9) -0.00041(8)
Sr3 0.03025(12) 0.01966(11) 0.03062(12) -0.00363(9) -0.00603(9) 0.00042(8)
O1 0.0398(10) 0.0221(8) 0.0362(9) -0.0097(7) -0.0062(8) -0.0104(7)
C2 0.0325(13) 0.0165(11) 0.0306(12) 0.0007(9) -0.0136(10) -0.0064(9)
O3 0.0377(10) 0.0227(8) 0.0367(10) -0.0022(7) -0.0022(8) -0.0106(7)
O4 0.0360(10) 0.0313(9) 0.0418(10) -0.0159(8) 0.0050(8) -0.0080(8)
C5 0.0314(13) 0.0211(11) 0.0332(13) -0.0038(10) -0.0058(10) -0.0031(9)
O6 0.0310(9) 0.0271(9) 0.0508(11) -0.0135(8) -0.0009(8) -0.0076(7)
O7 0.0604(15) 0.0629(15) 0.0607(15) -0.0008(12) 0.0063(12) 0.0380(12)
C8 0.0380(14) 0.0290(13) 0.0371(14) -0.0086(11) -0.0135(12) 0.0117(11)
C9 0.0334(13) 0.0229(12) 0.0315(13) -0.0045(10) -0.0068(10) 0.0078(10)
O10 0.0596(12) 0.0194(8) 0.0423(11) -0.0035(8) -0.0209(9) 0.0074(8)
O11 0.0401(11) 0.0763(16) 0.0470(12) 0.0067(11) -0.0170(10) 0.0099(11)
O12 0.0448(12) 0.0301(10) 0.0769(15) 0.0021(9) -0.0356(11) 0.0009(8)
C13 0.0485(17) 0.0298(13) 0.0452(16) -0.0006(12) -0.0289(13) -0.0046(12)
O14 0.0582(14) 0.0623(15) 0.0579(14) 0.0267(12) -0.0217(11) -0.0014(11)
C15 0.0361(13) 0.0215(11) 0.0354(13) -0.0031(10) -0.0170(11) -0.0005(10)
O16 0.269(6) 0.130(3) 0.079(2) -0.051(2) -0.014(3) -0.098(4)
C17 0.0315(13) 0.0201(11) 0.0415(14) -0.0088(10) -0.0052(11) -0.0013(9)
O18 0.121(3) 0.0589(17) 0.137(3) -0.0048(18) -0.077(2) -0.0111(17)
O19 0.085(2) 0.141(4) 0.140(4) -0.033(3) -0.040(2) 0.003(2)
O20 0.0392(10) 0.0281(10) 0.0704(14) -0.0220(9) -0.0237(10) 0.0131(8)
C21 0.0322(13) 0.0219(12) 0.0479(15) -0.0027(11) -0.0136(12) 0.0046(10)
O22 0.0345(11) 0.0270(10) 0.1063(18) -0.0181(11) -0.0321(12) 0.0083(8)
C23 0.0322(13) 0.0225(12) 0.0456(15) -0.0081(11) -0.0144(11) 0.0066(10)
C24 0.0411(16) 0.0357(15) 0.079(2) -0.0265(15) -0.0353(15) 0.0125(12)
C25 0.0436(16) 0.0340(15) 0.076(2) -0.0314(15) -0.0309(15) 0.0129(12)
C26 0.0454(16) 0.0369(15) 0.072(2) -0.0333(15) -0.0299(15) 0.0163(12)
C27 0.0389(15) 0.0434(16) 0.071(2) -0.0335(15) -0.0309(15) 0.0149(12)
C28 0.0328(13) 0.0202(11) 0.0463(15) -0.0098(10) -0.0164(11) 0.0059(10)
O29 0.0297(9) 0.0255(9) 0.0738(14) -0.0102(9) -0.0239(9) 0.0005(7)
C30 0.0265(13) 0.0243(13) 0.0654(19) -0.0091(12) -0.0168(13) 0.0021(10)
O31 0.0702(16) 0.0262(11) 0.140(2) 0.0028(12) -0.0726(17) -0.0067(10)
C32 0.0235(12) 0.0226(12) 0.0503(16) -0.0080(11) -0.0115(11) 0.0004(9)
C33 0.0314(13) 0.0353(14) 0.0416(15) -0.0068(11) -0.0154(11) -0.0063(11)
C34 0.0357(14) 0.0282(13) 0.0412(15) 0.0000(11) -0.0160(11) -0.0015(10)
C35 0.0294(13) 0.0206(12) 0.0474(15) -0.0086(10) -0.0139(11) 0.0032(9)
C36 0.0560(18) 0.0268(13) 0.0546(18) -0.0041(12) -0.0339(15) -0.0031(12)
C37 0.0525(17) 0.0231(13) 0.0561(18) 0.0015(12) -0.0299(14) -0.0031(11)
C38 0.0317(13) 0.0196(11) 0.0417(14) -0.0081(10) -0.0139(11) 0.0039(9)
C39 0.0340(13) 0.0195(11) 0.0430(14) -0.0096(10) -0.0164(11) 0.0049(10)
N40 0.0315(11) 0.0207(10) 0.0505(13) -0.0131(9) -0.0151(10) 0.0046(8)
C41 0.0301(13) 0.0197(11) 0.0448(15) -0.0096(10) -0.0088(11) 0.0025(9)
C42 0.0287(12) 0.0187(11) 0.0437(15) -0.0068(10) -0.0089(11) 0.0039(9)
N43 0.0308(11) 0.0192(10) 0.0475(13) -0.0064(9) -0.0142(10) 0.0035(8)
C44 0.0308(13) 0.0188(11) 0.0399(14) -0.0079(10) -0.0102(11) 0.0048(9)
C45 0.0337(14) 0.0278(13) 0.0557(18) 0.0084(12) -0.0116(13) -0.0029(11)
C46 0.0245(13) 0.0374(15) 0.0543(17) 0.0069(13) -0.0036(12) 0.0067(11)
C47 0.0391(14) 0.0209(12) 0.0412(15) -0.0002(10) -0.0032(12) 0.0018(10)
C48 0.0266(13) 0.0268(13) 0.0504(16) -0.0054(11) -0.0027(11) 0.0041(10)
C49 0.0324(13) 0.0187(11) 0.0491(16) -0.0109(11) -0.0092(11) 0.0013(10)
C50 0.0268(13) 0.0299(13) 0.0564(17) -0.0175(12) -0.0071(12) -0.0020(10)
C51 0.0295(13) 0.0282(13) 0.0502(16) -0.0180(12) -0.0019(11) 0.0015(10)
C52 0.0291(14) 0.0303(14) 0.077(2) -0.0211(14) -0.0102(14) -0.0019(11)
C53 0.0326(14) 0.0269(14) 0.080(2) -0.0247(14) -0.0116(14) 0.0068(11)
C54 0.0334(12) 0.0182(11) 0.0278(12) -0.0006(9) -0.0115(10) -0.0069(9)
C55 0.0280(12) 0.0213(11) 0.0432(15) -0.0049(10) -0.0070(11) -0.0050(9)
C56 0.0319(13) 0.0168(11) 0.0458(15) -0.0044(10) -0.0132(11) -0.0016(9)
C57 0.0321(12) 0.0144(10) 0.0336(13) 0.0018(9) -0.0141(10) -0.0055(9)
C58 0.0303(12) 0.0158(11) 0.0328(13) -0.0007(9) -0.0090(10) -0.0043(9)
C59 0.0297(12) 0.0161(11) 0.0350(13) -0.0037(9) -0.0085(10) -0.0029(9)
N60 0.0296(11) 0.0189(10) 0.0399(12) -0.0038(8) -0.0103(9) -0.0054(8)
C61 0.0317(13) 0.0173(11) 0.0373(14) -0.0041(10) -0.0064(10) -0.0067(9)
C62 0.0318(13) 0.0157(11) 0.0368(13) 0.0001(9) -0.0081(10) -0.0056(9)
C63 0.0332(13) 0.0166(11) 0.0435(15) -0.0022(10) -0.0105(11) -0.0039(9)
C64 0.0466(17) 0.0210(13) 0.0593(19) 0.0026(12) 0.0107(14) 0.0002(11)
C65 0.0526(17) 0.0177(12) 0.0564(18) 0.0068(12) 0.0077(14) -0.0038(11)
C66 0.0386(14) 0.0167(11) 0.0391(14) -0.0007(10) -0.0110(11) -0.0036(10)
C67 0.0282(13) 0.0237(12) 0.0537(17) 0.0053(11) -0.0062(12) -0.0015(10)
C68 0.0312(13) 0.0207(12) 0.0578(17) 0.0109(11) -0.0105(12) -0.0070(10)
C69 0.0380(14) 0.0185(11) 0.0364(14) -0.0016(10) -0.0125(11) -0.0024(10)
N70 0.0316(11) 0.0165(9) 0.0407(12) 0.0003(8) -0.0124(9) -0.0052(8)
C71 0.0308(13) 0.0201(11) 0.0414(14) -0.0044(10) -0.0064(11) -0.0073(9)
C72 0.0335(14) 0.0265(13) 0.0531(17) -0.0158(12) -0.0056(12) -0.0027(10)
C73 0.0271(13) 0.0313(13) 0.0548(17) -0.0114(12) -0.0021(12) -0.0084(10)
C74 0.0337(14) 0.0254(13) 0.0532(17) -0.0090(11) -0.0065(12) -0.0121(10)
C75 0.0365(15) 0.0381(16) 0.075(2) -0.0307(15) 0.0036(14) -0.0110(12)
C76 0.0303(14) 0.0384(15) 0.068(2) -0.0240(14) 0.0050(13) -0.0121(12)
C77 0.0407(16) 0.0297(14) 0.0637(19) -0.0121(13) -0.0069(14) -0.0139(12)
O78 0.0345(11) 0.0322(10) 0.0809(15) -0.0105(10) -0.0155(10) -0.0102(8)
O79 0.0537(15) 0.0515(15) 0.164(3) -0.0570(17) 0.0112(16) -0.0250(12)
C80 0.0301(12) 0.0158(10) 0.0339(13) -0.0046(9) -0.0105(10) -0.0024(9)
C81 0.0307(13) 0.0249(12) 0.0403(14) 0.0001(10) -0.0048(11) -0.0031(10)
C82 0.0286(13) 0.0271(12) 0.0413(14) -0.0059(11) -0.0097(11) 0.0026(10)
C83 0.0360(14) 0.0361(14) 0.0400(15) 0.0113(11) -0.0128(12) -0.0073(11)
C84 0.0272(13) 0.0333(13) 0.0413(15) 0.0037(11) -0.0080(11) -0.0015(10)
C85 0.0295(12) 0.0237(12) 0.0367(14) -0.0043(10) -0.0064(10) -0.0072(9)
C86 0.0338(13) 0.0208(11) 0.0334(13) -0.0080(10) -0.0073(10) -0.0053(9)
O87 0.0475(13) 0.0418(13) 0.124(2) -0.0099(14) 0.0118(14) -0.0145(10)
O88 0.0337(10) 0.0201(8) 0.0613(12) -0.0032(8) -0.0160(9) -0.0040(7)
O89 0.0424(11) 0.0163(8) 0.0607(13) 0.0024(8) -0.0051(9) -0.0051(7)
O90 0.0418(12) 0.0466(12) 0.0707(15) 0.0051(11) -0.0086(11) -0.0012(9)
loop_
_atom_type_symbol
_atom_type_description
_atom_type_scat_dispersion_real
_atom_type_scat_dispersion_imag
_atom_type_scat_source
C C 0.0033 0.0016 'International Tables Vol C Tables 4.2.6.8 and 6.1.1.4'
H H 0.0000 0.0000 'International Tables Vol C Tables 4.2.6.8 and 6.1.1.4'
N N 0.0061 0.0033 'International Tables Vol C Tables 4.2.6.8 and 6.1.1.4'
O O 0.0106 0.0060 'International Tables Vol C Tables 4.2.6.8 and 6.1.1.4'
Sr Sr -1.5307 3.2498 'International Tables Vol C Tables 4.2.6.8 and 6.1.1.4'
loop_
_geom_angle_atom_site_label_1
_geom_angle_atom_site_label_2
_geom_angle_atom_site_label_3
_geom_angle
_geom_angle_site_symmetry_1
_geom_angle_site_symmetry_3
Sr1 Sr1 H87A 136.0 2_655 .
Sr1 Sr1 H87B 144.8 2_655 .
Sr2 Sr1 Sr1 114.604(12) . 2_655
Sr2 Sr1 H87A 88.1 . .
Sr2 Sr1 H87B 98.1 . .
O1 Sr1 Sr1 36.44(4) . 2_655
O1 Sr1 Sr1 38.41(4) 2_655 2_655
O1 Sr1 Sr2 78.45(4) . .
O1 Sr1 Sr2 152.37(4) 2_655 .
O1 Sr1 O1 74.84(6) 2_655 .
O1 Sr1 C2 95.48(6) 2_655 .
O1 Sr1 C2 24.28(6) . .
O1 Sr1 O3 116.10(5) 2_655 .
O1 Sr1 O3 48.57(5) . .
O1 Sr1 C69 77.81(6) 2_655 .
O1 Sr1 C69 104.22(6) . .
O1 Sr1 O87 100.72(8) 2_655 .
O1 Sr1 H87A 143.3 . .
O1 Sr1 H87A 109.3 2_655 .
O1 Sr1 H87B 107.2 2_655 .
O1 Sr1 H87B 170.7 . .
O1 Sr1 O88 86.66(6) 2_655 .
O1 Sr1 O88 128.61(5) . .
O1 Sr1 O89 70.97(6) 2_655 .
O1 Sr1 O90 71.89(7) 2_655 .
C2 Sr1 Sr1 58.14(5) . 2_655
C2 Sr1 Sr2 56.91(4) . .
C2 Sr1 C69 121.90(6) . .
C2 Sr1 H87A 123.8 . .
C2 Sr1 H87B 148.3 . .
O3 Sr1 Sr1 81.07(4) . 2_655
O3 Sr1 Sr2 37.01(4) . .
O3 Sr1 C2 24.29(6) . .
O3 Sr1 C69 135.47(6) . .
O3 Sr1 H87A 102.5 . .
O3 Sr1 H87B 124.5 . .
O10 Sr1 Sr1 123.82(5) . 2_655
O10 Sr1 Sr2 38.30(4) . .
O10 Sr1 O1 92.56(6) . .
O10 Sr1 O1 149.08(6) . 2_655
O10 Sr1 C2 81.01(6) . .
O10 Sr1 O3 70.34(5) . .
O10 Sr1 C69 78.19(6) . .
O10 Sr1 O87 101.64(9) . .
O10 Sr1 H87A 97.7 . .
O10 Sr1 H87B 89.8 . .
O10 Sr1 O88 79.37(6) . .
O10 Sr1 O89 79.21(6) . .
O10 Sr1 O90 135.72(7) . .
C69 Sr1 Sr1 91.61(5) . 2_655
C69 Sr1 Sr2 116.09(5) . .
C69 Sr1 H87A 112.4 . .
C69 Sr1 H87B 85.1 . .
O87 Sr1 Sr1 134.54(7) . 2_655
O87 Sr1 Sr2 100.69(7) . .
O87 Sr1 O1 155.77(7) . .
O87 Sr1 C2 139.43(7) . .
O87 Sr1 O3 118.41(7) . .
O87 Sr1 C69 97.90(7) . .
O87 Sr1 H87A 15.9 . .
O87 Sr1 H87B 15.9 . .
O87 Sr1 O88 73.88(7) . .
O87 Sr1 O89 121.40(7) . .
O87 Sr1 O90 72.46(8) . .
H87A Sr1 H87B 27.4 . .
O88 Sr1 Sr1 111.45(4) . 2_655
O88 Sr1 Sr2 116.06(4) . .
O88 Sr1 C2 144.51(6) . .
O88 Sr1 O3 148.91(6) . .
O88 Sr1 C69 24.39(6) . .
O88 Sr1 H87A 88.0 . .
O88 Sr1 H87B 60.7 . .
O89 Sr1 Sr1 71.99(4) . 2_655
O89 Sr1 Sr2 111.43(5) . .
O89 Sr1 O1 80.28(5) . .
O89 Sr1 C2 99.00(6) . .
O89 Sr1 O3 116.68(6) . .
O89 Sr1 C69 23.93(6) . .
O89 Sr1 H87A 136.3 . .
O89 Sr1 H87B 109.0 . .
O89 Sr1 O88 48.33(5) . .
O90 Sr1 Sr1 74.78(5) . 2_655
O90 Sr1 Sr2 98.37(5) . .
O90 Sr1 O1 83.64(6) . .
O90 Sr1 C2 77.82(7) . .
O90 Sr1 O3 74.55(7) . .
O90 Sr1 C69 145.49(7) . .
O90 Sr1 H87A 64.5 . .
O90 Sr1 H87B 88.4 . .
O90 Sr1 O88 135.37(7) . .
O90 Sr1 O89 142.21(7) . .
Sr3 Sr2 Sr1 87.283(10) . .
O3 Sr2 Sr1 40.11(4) . .
O3 Sr2 Sr3 121.05(4) . .
O3 Sr2 O7 111.92(6) . .
O3 Sr2 C8 93.56(6) . .
O3 Sr2 O10 71.08(6) . .
O3 Sr2 O12 78.17(6) . .
O3 Sr2 O18 132.41(9) . .
O3 Sr2 O19 72.46(9) . .
O3 Sr2 O20 86.72(6) . .
O3 Sr2 O29 105.56(6) . .
O4 Sr2 Sr1 127.30(4) . .
O4 Sr2 Sr3 40.51(4) . .
O4 Sr2 O3 150.31(6) . .
O4 Sr2 O7 67.94(6) . .
O4 Sr2 C8 90.90(6) . .
O4 Sr2 O10 112.49(6) . .
O4 Sr2 O12 74.21(7) . .
O4 Sr2 O18 75.45(10) . .
O4 Sr2 O19 137.12(10) . .
O4 Sr2 O20 76.36(7) . .
O4 Sr2 O29 92.20(6) . .
O7 Sr2 Sr1 71.91(5) . .
O7 Sr2 Sr3 37.55(4) . .
O7 Sr2 C8 23.14(6) . .
C8 Sr2 Sr1 55.82(5) . .
C8 Sr2 Sr3 58.89(5) . .
O10 Sr2 Sr1 35.99(4) . .
O10 Sr2 Sr3 76.08(5) . .
O10 Sr2 O7 44.80(6) . .
O10 Sr2 C8 22.88(6) . .
O10 Sr2 O12 77.49(6) . .
O10 Sr2 O18 78.82(8) . .
O10 Sr2 O19 69.13(10) . .
O12 Sr2 Sr1 60.41(5) . .
O12 Sr2 Sr3 47.34(5) . .
O12 Sr2 O7 69.39(6) . .
O12 Sr2 C8 77.42(6) . .
O12 Sr2 O18 130.13(8) . .
O12 Sr2 O19 141.00(10) . .
O18 Sr2 Sr1 114.01(7) . .
O18 Sr2 Sr3 84.56(8) . .
O18 Sr2 O7 62.85(8) . .
O18 Sr2 C8 64.46(8) . .
O18 Sr2 O19 62.59(12) . .
O19 Sr2 Sr1 80.63(8) . .
O19 Sr2 Sr3 135.55(9) . .
O19 Sr2 O7 98.40(10) . .
O19 Sr2 C8 79.36(10) . .
O20 Sr2 Sr1 113.85(5) . .
O20 Sr2 Sr3 97.99(5) . .
O20 Sr2 O7 135.48(6) . .
O20 Sr2 C8 152.87(7) . .
O20 Sr2 O10 148.39(6) . .
O20 Sr2 O12 76.09(6) . .
O20 Sr2 O18 132.14(8) . .
O20 Sr2 O19 126.05(10) . .
O20 Sr2 O29 71.67(6) . .
O29 Sr2 Sr1 140.50(5) . .
O29 Sr2 Sr3 131.82(5) . .
O29 Sr2 O7 133.40(7) . .
O29 Sr2 C8 133.57(6) . .
O29 Sr2 O10 135.03(6) . .
O29 Sr2 O12 147.19(6) . .
O29 Sr2 O18 71.63(8) . .
O29 Sr2 O19 67.39(9) . .
Sr2 Sr3 Sr3 119.724(11) . 2_556
Sr2 Sr3 H11A 112.5 . .
Sr2 Sr3 H11B 90.2 . .
Sr2 Sr3 H16A 114.9 . .
Sr2 Sr3 H16B 90.3 . .
Sr3 Sr3 H11A 56.6 2_556 .
Sr3 Sr3 H11B 81.4 2_556 .
Sr3 Sr3 H16A 124.0 2_556 .
Sr3 Sr3 H16B 141.3 2_556 .
O4 Sr3 Sr2 38.54(4) . .
O4 Sr3 Sr3 83.85(4) . 2_556
O4 Sr3 C5 24.60(6) . .
O4 Sr3 O6 49.16(5) . .
O4 Sr3 H11A 81.7 . .
O4 Sr3 H11B 70.1 . .
O4 Sr3 O12 68.28(6) . .
O4 Sr3 C13 78.30(7) . .
O4 Sr3 H16A 152.2 . .
O4 Sr3 H16B 128.8 . .
C5 Sr3 Sr2 61.35(5) . .
C5 Sr3 Sr3 59.40(5) . 2_556
C5 Sr3 H11A 71.5 . .
C5 Sr3 H11B 71.6 . .
C5 Sr3 C13 80.37(7) . .
C5 Sr3 H16A 175.9 . .
C5 Sr3 H16B 148.6 . .
O6 Sr3 Sr2 158.04(4) 2_556 .
O6 Sr3 Sr2 84.44(4) . .
O6 Sr3 Sr3 38.57(4) 2_556 2_556
O6 Sr3 Sr3 35.37(4) . 2_556
O6 Sr3 O4 121.76(5) 2_556 .
O6 Sr3 C5 24.58(6) . .
O6 Sr3 C5 97.72(6) 2_556 .
O6 Sr3 O6 73.94(6) 2_556 .
O6 Sr3 O11 73.62(7) 2_556 .
O6 Sr3 H11A 62.0 2_556 .
O6 Sr3 H11A 65.7 . .
O6 Sr3 H11B 77.7 . .
O6 Sr3 H11B 88.9 2_556 .
O6 Sr3 O12 92.08(6) . .
O6 Sr3 O12 133.38(6) 2_556 .
O6 Sr3 C13 82.88(7) . .
O6 Sr3 C13 109.55(7) 2_556 .
O6 Sr3 O14 86.21(7) 2_556 .
O6 Sr3 O16 92.17(11) 2_556 .
O6 Sr3 H16A 85.8 2_556 .
O6 Sr3 H16A 158.2 . .
O6 Sr3 H16B 108.0 2_556 .
O6 Sr3 H16B 156.5 . .
O7 Sr3 Sr2 49.18(6) . .
O7 Sr3 Sr3 152.41(7) . 2_556
O7 Sr3 O4 76.06(8) . .
O7 Sr3 C5 100.05(8) . .
O7 Sr3 O6 124.23(8) . .
O7 Sr3 O6 149.93(7) . 2_556
O7 Sr3 O11 86.12(8) . .
O7 Sr3 H11A 101.3 . .
O7 Sr3 H11B 74.1 . .
O7 Sr3 O12 73.90(7) . .
O7 Sr3 C13 97.24(8) . .
O7 Sr3 O14 118.96(8) . .
O7 Sr3 O16 78.55(14) . .
O7 Sr3 H16A 77.5 . .
O7 Sr3 H16B 65.7 . .
O11 Sr3 Sr2 106.29(5) . .
O11 Sr3 Sr3 72.68(5) . 2_556
O11 Sr3 O4 83.01(7) . .
O11 Sr3 C5 79.19(7) . .
O11 Sr3 O6 78.63(7) . .
O11 Sr3 H11A 16.0 . .
O11 Sr3 H11B 16.1 . .
O11 Sr3 O12 148.04(7) . .
O11 Sr3 C13 159.55(8) . .
O11 Sr3 O16 119.58(12) . .
O11 Sr3 H16A 103.8 . .
O11 Sr3 H16B 124.8 . .
H11A Sr3 H11B 27.7 . .
H11A Sr3 H16A 112.0 . .
H11A Sr3 H16B 136.7 . .
H11B Sr3 H16A 110.6 . .
H11B Sr3 H16B 125.3 . .
O12 Sr3 Sr2 41.93(4) . .
O12 Sr3 Sr3 115.93(4) . 2_556
O12 Sr3 C5 80.05(6) . .
O12 Sr3 H11A 150.0 . .
O12 Sr3 H11B 132.1 . .
O12 Sr3 C13 23.85(7) . .
O12 Sr3 H16A 96.1 . .
O12 Sr3 H16B 69.3 . .
C13 Sr3 Sr2 62.92(5) . .
C13 Sr3 Sr3 96.96(6) . 2_556
C13 Sr3 H11A 148.5 . .
C13 Sr3 H11B 148.3 . .
C13 Sr3 H16A 96.6 . .
C13 Sr3 H16B 74.3 . .
O14 Sr3 Sr2 85.75(6) . .
O14 Sr3 Sr3 80.31(6) . 2_556
O14 Sr3 O4 92.94(7) . .
O14 Sr3 C5 86.06(8) . .
O14 Sr3 O6 78.58(8) . .
O14 Sr3 O11 152.95(8) . .
O14 Sr3 H11A 136.9 . .
O14 Sr3 H11B 156.2 . .
O14 Sr3 O12 47.20(7) . .
O14 Sr3 C13 23.53(8) . .
O14 Sr3 O16 78.16(14) . .
O14 Sr3 H16A 92.3 . .
O14 Sr3 H16B 78.2 . .
O16 Sr3 Sr2 106.10(10) . .
O16 Sr3 Sr3 127.15(11) . 2_556
O16 Sr3 O4 144.53(11) . .
O16 Sr3 C5 160.77(11) . .
O16 Sr3 O6 153.58(13) . .
O16 Sr3 H11A 127.7 . .
O16 Sr3 H11B 125.3 . .
O16 Sr3 O12 81.17(11) . .
O16 Sr3 C13 80.80(12) . .
O16 Sr3 H16A 15.9 . .
O16 Sr3 H16B 15.9 . .
H16A Sr3 H16B 27.4 . .
Sr1 O1 Sr1 105.16(6) 2_655 .
C2 O1 Sr1 141.34(15) . 2_655
C2 O1 Sr1 95.90(14) . .
O1 C2 Sr1 59.82(11) . .
O1 C2 C54 118.8(2) . .
O3 C2 Sr1 62.65(11) . .
O3 C2 O1 122.5(2) . .
O3 C2 C54 118.7(2) . .
C54 C2 Sr1 178.44(17) . .
Sr2 O3 Sr1 102.88(6) . .
C2 O3 Sr1 93.06(13) . .
C2 O3 Sr2 134.68(16) . .
Sr2 O4 Sr3 100.95(6) . .
C5 O4 Sr2 148.94(17) . .
C5 O4 Sr3 95.16(14) . .
O4 C5 Sr3 60.24(12) . .
O4 C5 C17 118.7(2) . 2_666
O6 C5 Sr3 62.21(12) . .
O6 C5 O4 122.4(2) . .
O6 C5 C17 118.9(2) . 2_666
C17 C5 Sr3 175.74(17) 2_666 .
Sr3 O6 Sr3 106.06(6) 2_556 .
C5 O6 Sr3 93.21(14) . .
C5 O6 Sr3 155.60(17) . 2_556
Sr3 O7 Sr2 93.27(7) . .
C8 O7 Sr2 84.71(18) . .
C8 O7 Sr3 152.4(2) . .
O7 C8 Sr2 72.15(16) . .
O7 C8 C9 117.4(2) . 1_545
O7 C8 O10 122.2(2) . .
C9 C8 Sr2 150.64(18) 1_545 .
O10 C8 Sr2 55.45(12) . .
O10 C8 C9 120.2(2) . 1_545
C46 C9 C8 121.1(2) . 1_565
C47 C9 C8 119.5(2) . 1_565
C47 C9 C46 119.2(2) . .
Sr1 O10 Sr2 105.71(6) . .
C8 O10 Sr1 134.69(17) . .
C8 O10 Sr2 101.67(15) . .
Sr3 O11 H11A 110.3 . .
Sr3 O11 H11B 109.9 . .
H11A O11 H11B 108.7 . .
Sr2 O12 Sr3 90.74(6) . .
C13 O12 Sr2 146.21(18) . .
C13 O12 Sr3 84.97(17) . .
O12 C13 Sr3 71.17(15) . .
O12 C13 O14 123.0(2) . .
O12 C13 C15 120.1(3) . 1_455
O14 C13 Sr3 52.54(14) . .
O14 C13 C15 116.9(2) . 1_455
C15 C13 Sr3 165.1(2) 1_455 .
C13 O14 Sr3 103.93(17) . .
C82 C15 C13 122.5(2) . 1_655
C83 C15 C13 118.4(2) . 1_655
C83 C15 C82 119.0(2) . .
Sr3 O16 H16A 109.7 . .
Sr3 O16 H16B 109.4 . .
H16A O16 H16B 109.0 . .
C51 C17 C5 120.3(2) . 2_666
C51 C17 C52 119.2(2) . .
C52 C17 C5 120.4(2) . 2_666
Sr2 O18 H18A 110.7 . .
Sr2 O18 H18B 110.6 . .
H18A O18 H18B 108.1 . .
Sr2 O19 H19A 125.0 . .
Sr2 O19 H19B 125.3 . .
H19A O19 H19B 109.7 . .
C21 O20 Sr2 138.18(17) . .
O20 C21 O22 122.8(2) . .
O20 C21 C23 123.3(2) . .
O22 C21 C23 113.9(2) . .
C21 O22 H22 109.5 . .
C24 C23 C21 121.5(2) . .
C26 C23 C21 119.3(2) . .
C26 C23 C24 119.1(2) . .
C23 C24 H24 120.0 . .
C25 C24 C23 119.9(2) 1_455 .
C25 C24 H24 120.0 1_455 .
C24 C25 H25 119.4 1_655 .
C24 C25 C28 121.1(2) 1_655 .
C28 C25 H25 119.4 . .
C23 C26 H26 119.5 . .
C27 C26 C23 121.0(2) . .
C27 C26 H26 119.5 . .
C26 C27 H27 119.7 . .
C26 C27 C28 120.5(2) . 1_455
C28 C27 H27 119.7 1_455 .
C25 C28 C27 118.2(2) . 1_655
C25 C28 C39 120.1(2) . .
C27 C28 C39 121.5(2) 1_655 .
C30 O29 Sr2 141.88(16) . .
O29 C30 C32 117.1(2) . .
O31 C30 O29 123.7(2) . .
O31 C30 C32 119.2(2) . .
C33 C32 C30 120.3(2) . .
C33 C32 C37 118.6(2) . .
C37 C32 C30 121.2(2) . .
C32 C33 H33 119.4 . .
C34 C33 C32 121.2(2) . .
C34 C33 H33 119.4 . .
C33 C34 H34 119.8 . .
C33 C34 C35 120.4(2) . .
C35 C34 H34 119.8 . .
C34 C35 C38 119.8(2) . .
C36 C35 C34 118.6(2) . .
C36 C35 C38 121.6(2) . .
C35 C36 H36 119.7 . .
C37 C36 C35 120.7(2) . .
C37 C36 H36 119.7 . .
C32 C37 H37 119.7 . .
C36 C37 C32 120.5(3) . .
C36 C37 H37 119.7 . .
C39 C38 C35 124.9(2) . .
N43 C38 C35 115.6(2) . .
N43 C38 C39 119.5(2) . .
C38 C39 C28 125.4(2) . .
N40 C39 C28 115.5(2) . .
N40 C39 C38 119.1(2) . .
C41 N40 C39 119.7(2) . .
N40 C41 C42 119.2(2) . .
N40 C41 C49 116.4(2) . .
C42 C41 C49 124.4(2) . .
C41 C42 C44 122.6(2) . .
N43 C42 C41 119.6(2) . .
N43 C42 C44 117.8(2) . .
C42 N43 C38 119.1(2) . .
C45 C44 C42 120.8(2) . .
C45 C44 C48 119.2(2) . .
C48 C44 C42 119.8(2) . .
C44 C45 H45 119.9 . .
C44 C45 C46 120.1(2) . .
C46 C45 H45 119.9 . .
C9 C46 H46 119.7 . .
C45 C46 C9 120.7(2) . .
C45 C46 H46 119.7 . .
C9 C47 H47 119.9 . .
C9 C47 C48 120.2(2) . .
C48 C47 H47 119.9 . .
C44 C48 H48 119.8 . .
C47 C48 C44 120.3(2) . .
C47 C48 H48 119.8 . .
C50 C49 C41 121.8(2) . .
C53 C49 C41 119.8(2) . .
C53 C49 C50 118.3(2) . .
C49 C50 H50 119.7 . .
C51 C50 C49 120.7(2) . .
C51 C50 H50 119.7 . .
C17 C51 C50 120.7(2) . .
C17 C51 H51 119.6 . .
C50 C51 H51 119.6 . .
C17 C52 H52 119.9 . .
C53 C52 C17 120.2(3) . .
C53 C52 H52 119.9 . .
C49 C53 H53 119.6 . .
C52 C53 C49 120.8(2) . .
C52 C53 H53 119.6 . .
C55 C54 C2 120.1(2) . .
C86 C54 C2 120.5(2) . .
C86 C54 C55 119.4(2) . .
C54 C55 H55 120.1 . .
C56 C55 C54 119.8(2) . .
C56 C55 H55 120.1 . .
C55 C56 H56 119.5 . .
C57 C56 C55 121.0(2) . .
C57 C56 H56 119.5 . .
C56 C57 C58 119.8(2) . .
C56 C57 C85 119.0(2) . .
C85 C57 C58 121.2(2) . .
C59 C58 C57 123.8(2) . .
N70 C58 C57 115.9(2) . .
N70 C58 C59 120.3(2) . .
C58 C59 C80 125.4(2) . .
N60 C59 C58 120.2(2) . .
N60 C59 C80 113.9(2) . .
C61 N60 C59 119.4(2) . .
N60 C61 C62 120.2(2) . .
N60 C61 C71 114.5(2) . .
C62 C61 C71 125.2(2) . .
C61 C62 C63 124.7(2) . .
N70 C62 C61 120.4(2) . .
N70 C62 C63 114.9(2) . .
C64 C63 C62 122.2(2) . .
C68 C63 C62 119.6(2) . .
C68 C63 C64 118.1(2) . .
C63 C64 H64 119.8 . .
C65 C64 C63 120.3(3) . .
C65 C64 H64 119.8 . .
C64 C65 H65 119.3 . .
C64 C65 C66 121.4(2) . .
C66 C65 H65 119.3 . .
C65 C66 C67 118.4(2) . .
C65 C66 C69 120.6(2) . 1_565
C67 C66 C69 121.0(2) . 1_565
C66 C67 H67 119.8 . .
C68 C67 C66 120.3(2) . .
C68 C67 H67 119.8 . .
C63 C68 C67 121.3(2) . .
C63 C68 H68 119.3 . .
C67 C68 H68 119.3 . .
C66 C69 Sr1 177.33(17) 1_545 .
O88 C69 Sr1 62.02(12) . .
O88 C69 C66 120.1(2) . 1_545
O89 C69 Sr1 59.18(13) . .
O89 C69 C66 118.7(2) . 1_545
O89 C69 O88 121.2(2) . .
C58 N70 C62 119.1(2) . .
C72 C71 C61 119.1(2) . .
C76 C71 C61 122.2(2) . .
C76 C71 C72 118.6(2) . .
C71 C72 H72 119.6 . .
C73 C72 C71 120.9(2) . .
C73 C72 H72 119.6 . .
C72 C73 H73 119.9 . .
C72 C73 C74 120.3(2) . .
C74 C73 H73 119.9 . .
C73 C74 C75 119.2(2) . .
C73 C74 C77 121.3(2) . .
C75 C74 C77 119.5(2) . .
C74 C75 H75 119.7 . .
C74 C75 C76 120.5(2) . .
C76 C75 H75 119.7 . .
C71 C76 C75 120.5(3) . .
C71 C76 H76 119.8 . .
C75 C76 H76 119.8 . .
O78 C77 C74 115.0(2) . .
O79 C77 C74 121.4(3) . .
O79 C77 O78 123.5(2) . .
C81 C80 C59 122.2(2) . .
C84 C80 C59 119.0(2) . .
C84 C80 C81 118.3(2) . .
C80 C81 H81 119.5 . .
C82 C81 C80 120.9(2) . .
C82 C81 H81 119.5 . .
C15 C82 C81 120.2(2) . .
C15 C82 H82 119.9 . .
C81 C82 H82 119.9 . .
C15 C83 H83 119.6 . .
C84 C83 C15 120.9(2) . .
C84 C83 H83 119.6 . .
C80 C84 H84 119.7 . .
C83 C84 C80 120.6(2) . .
C83 C84 H84 119.7 . .
C57 C85 H85 120.0 . .
C86 C85 C57 120.0(2) . .
C86 C85 H85 120.0 . .
C54 C86 C85 120.5(2) . .
C54 C86 H86 119.8 . .
C85 C86 H86 119.8 . .
Sr1 O87 H87A 110.0 . .
Sr1 O87 H87B 109.8 . .
H87A O87 H87B 109.0 . .
C69 O88 Sr1 93.59(13) . .
C69 O89 Sr1 96.89(15) . .
Sr1 O90 H90A 110.1 . .
Sr1 O90 H90B 109.9 . .
H90A O90 H90B 108.8 . .
loop_
_geom_bond_atom_site_label_1
_geom_bond_atom_site_label_2
_geom_bond_distance
_geom_bond_site_symmetry_2
Sr1 Sr1 4.1238(6) 2_655
Sr1 Sr2 4.1101(5) .
Sr1 O1 2.5376(17) 2_655
Sr1 O1 2.6540(16) .
Sr1 C2 3.054(2) .
Sr1 O3 2.7164(16) .
Sr1 O10 2.5089(19) .
Sr1 C69 3.062(2) .
Sr1 O87 2.547(2) .
Sr1 H87A 2.9542 .
Sr1 H87B 2.9520 .
Sr1 O88 2.7091(17) .
Sr1 O89 2.6483(18) .
Sr1 O90 2.615(2) .
Sr2 Sr3 3.9686(5) .
Sr2 O3 2.5379(18) .
Sr2 O4 2.5185(18) .
Sr2 O7 3.008(3) .
Sr2 C8 3.147(3) .
Sr2 O10 2.6464(17) .
Sr2 O12 2.6521(19) .
Sr2 O18 2.687(3) .
Sr2 O19 2.774(4) .
Sr2 O20 2.6004(17) .
Sr2 O29 2.6417(17) .
Sr3 Sr3 4.1143(6) 2_556
Sr3 O4 2.6259(17) .
Sr3 C5 3.013(2) .
Sr3 O6 2.4784(18) 2_556
Sr3 O6 2.6692(17) .
Sr3 O7 2.423(2) .
Sr3 O11 2.524(2) .
Sr3 H11A 2.9390 .
Sr3 H11B 2.9341 .
Sr3 O12 2.918(2) .
Sr3 C13 3.072(3) .
Sr3 O14 2.512(2) .
Sr3 O16 2.556(3) .
Sr3 H16A 2.9585 .
Sr3 H16B 2.9544 .
O1 Sr1 2.5376(17) 2_655
O1 C2 1.262(3) .
C2 O3 1.258(3) .
C2 C54 1.499(3) .
O4 C5 1.259(3) .
C5 O6 1.255(3) .
C5 C17 1.497(3) 2_666
O6 Sr3 2.4785(18) 2_556
O7 C8 1.242(3) .
C8 C9 1.495(3) 1_545
C8 O10 1.249(3) .
C9 C8 1.495(3) 1_565
C9 C46 1.384(4) .
C9 C47 1.380(4) .
O11 H11A 0.8655 .
O11 H11B 0.8650 .
O12 C13 1.247(3) .
C13 O14 1.263(4) .
C13 C15 1.511(3) 1_455
C15 C13 1.511(3) 1_655
C15 C82 1.384(4) .
C15 C83 1.383(4) .
O16 H16A 0.8593 .
O16 H16B 0.8587 .
C17 C5 1.497(3) 2_666
C17 C51 1.379(4) .
C17 C52 1.390(4) .
O18 H18A 0.8813 .
O18 H18B 0.8811 .
O19 H19A 0.9094 .
O19 H19B 0.9097 .
O20 C21 1.218(3) .
C21 O22 1.304(3) .
C21 C23 1.482(3) .
O22 H22 0.8200 .
C23 C24 1.385(4) .
C23 C26 1.375(4) .
C24 H24 0.9300 .
C24 C25 1.382(4) 1_455
C25 C24 1.382(4) 1_655
C25 H25 0.9300 .
C25 C28 1.382(4) .
C26 H26 0.9300 .
C26 C27 1.372(4) .
C27 H27 0.9300 .
C27 C28 1.393(3) 1_455
C28 C27 1.393(3) 1_655
C28 C39 1.486(3) .
O29 C30 1.267(3) .
C30 O31 1.237(3) .
C30 C32 1.511(3) .
C32 C33 1.384(4) .
C32 C37 1.385(4) .
C33 H33 0.9300 .
C33 C34 1.374(4) .
C34 H34 0.9300 .
C34 C35 1.389(4) .
C35 C36 1.387(4) .
C35 C38 1.483(3) .
C36 H36 0.9300 .
C36 C37 1.383(4) .
C37 H37 0.9300 .
C38 C39 1.411(3) .
C38 N43 1.342(3) .
C39 N40 1.339(3) .
N40 C41 1.332(3) .
C41 C42 1.413(4) .
C41 C49 1.484(3) .
C42 N43 1.336(3) .
C42 C44 1.482(3) .
C44 C45 1.378(4) .
C44 C48 1.391(4) .
C45 H45 0.9300 .
C45 C46 1.381(4) .
C46 H46 0.9300 .
C47 H47 0.9300 .
C47 C48 1.383(3) .
C48 H48 0.9300 .
C49 C50 1.394(3) .
C49 C53 1.393(4) .
C50 H50 0.9300 .
C50 C51 1.379(3) .
C51 H51 0.9300 .
C52 H52 0.9300 .
C52 C53 1.383(4) .
C53 H53 0.9300 .
C54 C55 1.393(3) .
C54 C86 1.387(3) .
C55 H55 0.9300 .
C55 C56 1.389(3) .
C56 H56 0.9300 .
C56 C57 1.383(3) .
C57 C58 1.487(3) .
C57 C85 1.397(3) .
C58 C59 1.405(3) .
C58 N70 1.343(3) .
C59 N60 1.342(3) .
C59 C80 1.492(3) .
N60 C61 1.340(3) .
C61 C62 1.406(3) .
C61 C71 1.490(3) .
C62 C63 1.492(3) .
C62 N70 1.343(3) .
C63 C64 1.394(4) .
C63 C68 1.380(4) .
C64 H64 0.9300 .
C64 C65 1.378(4) .
C65 H65 0.9300 .
C65 C66 1.381(4) .
C66 C67 1.385(3) .
C66 C69 1.500(3) 1_565
C67 H67 0.9300 .
C67 C68 1.385(3) .
C68 H68 0.9300 .
C69 C66 1.500(3) 1_545
C69 O88 1.267(3) .
C69 O89 1.251(3) .
C71 C72 1.389(4) .
C71 C76 1.384(4) .
C72 H72 0.9300 .
C72 C73 1.380(4) .
C73 H73 0.9300 .
C73 C74 1.381(4) .
C74 C75 1.383(4) .
C74 C77 1.490(3) .
C75 H75 0.9300 .
C75 C76 1.385(4) .
C76 H76 0.9300 .
C77 O78 1.287(3) .
C77 O79 1.223(4) .
C80 C81 1.391(3) .
C80 C84 1.390(3) .
C81 H81 0.9300 .
C81 C82 1.386(4) .
C82 H82 0.9300 .
C83 H83 0.9300 .
C83 C84 1.380(4) .
C84 H84 0.9300 .
C85 H85 0.9300 .
C85 C86 1.390(3) .
C86 H86 0.9300 .
O87 H87A 0.8607 .
O87 H87B 0.8605 .
O90 H90A 0.8650 .
O90 H90B 0.8648 .
loop_
_geom_hbond_atom_site_label_D
_geom_hbond_atom_site_label_H
_geom_hbond_atom_site_label_A
_geom_hbond_distance_DH
_geom_hbond_distance_HA
_geom_hbond_distance_DA
_geom_hbond_angle_DHA
_geom_hbond_site_symmetry_A
O18 H18B O31 0.88 2.02 2.762(4) 141.7 .
O22 H22 O29 0.82 1.77 2.582(2) 173.7 .
O90 H90B O89 0.86 1.89 2.737(3) 167.6 2_655
loop_
_geom_torsion_atom_site_label_1
_geom_torsion_atom_site_label_2
_geom_torsion_atom_site_label_3
_geom_torsion_atom_site_label_4
_geom_torsion
_geom_torsion_site_symmetry_1
_geom_torsion_site_symmetry_4
Sr1 O1 C2 Sr1 123.4(2) 2_655 .
Sr1 O1 C2 O3 124.5(2) 2_655 .
Sr1 O1 C2 O3 1.2(2) . .
Sr1 O1 C2 C54 179.07(17) . .
Sr1 O1 C2 C54 -57.6(3) 2_655 .
Sr1 C2 O3 Sr2 111.51(18) . .
Sr2 O4 C5 Sr3 121.3(3) . .
Sr2 O4 C5 O6 118.0(3) . .
Sr2 O4 C5 C17 -63.4(4) . 2_666
Sr2 O7 C8 C9 149.8(2) . 1_545
Sr2 O7 C8 O10 -25.0(3) . .
Sr2 C8 O10 Sr1 -126.4(2) . .
Sr2 O12 C13 Sr3 -83.8(3) . .
Sr2 O12 C13 O14 -92.9(4) . .
Sr2 O12 C13 C15 85.5(4) . 1_455
Sr2 O20 C21 O22 24.6(5) . .
Sr2 O20 C21 C23 -155.4(2) . .
Sr2 O29 C30 O31 -7.4(5) . .
Sr2 O29 C30 C32 172.91(18) . .
Sr3 O4 C5 O6 -3.3(3) . .
Sr3 O4 C5 C17 175.27(19) . 2_666
Sr3 C5 O6 Sr3 142.6(4) . 2_556
Sr3 O7 C8 Sr2 86.9(4) . .
Sr3 O7 C8 C9 -123.2(4) . 1_545
Sr3 O7 C8 O10 62.0(6) . .
Sr3 O12 C13 O14 -9.1(3) . .
Sr3 O12 C13 C15 169.2(2) . 1_455
O1 C2 O3 Sr1 -1.1(2) . .
O1 C2 O3 Sr2 110.4(2) . .
O1 C2 C54 C55 159.7(2) . .
O1 C2 C54 C86 -22.9(3) . .
C2 C54 C55 C56 174.4(2) . .
C2 C54 C86 C85 -172.3(2) . .
O3 C2 C54 C55 -22.4(3) . .
O3 C2 C54 C86 155.1(2) . .
O4 C5 O6 Sr3 145.8(3) . 2_556
O4 C5 O6 Sr3 3.2(3) . .
C5 C17 C51 C50 179.0(3) 2_666 .
C5 C17 C52 C53 -178.9(3) 2_666 .
O7 C8 O10 Sr1 -97.2(3) . .
O7 C8 O10 Sr2 29.2(3) . .
C8 C9 C46 C45 -172.3(3) 1_565 .
C8 C9 C47 C48 169.6(2) 1_565 .
C9 C8 O10 Sr1 88.2(3) 1_545 .
C9 C8 O10 Sr2 -145.4(2) 1_545 .
C9 C47 C48 C44 2.8(4) . .
O12 C13 O14 Sr3 10.8(3) . .
C13 C15 C82 C81 -171.9(2) 1_655 .
C13 C15 C83 C84 173.0(2) 1_655 .
C15 C13 O14 Sr3 -167.53(18) 1_455 .
C15 C83 C84 C80 -0.5(4) . .
C17 C5 O6 Sr3 -32.8(5) 2_666 2_556
C17 C5 O6 Sr3 -175.3(2) 2_666 .
C17 C52 C53 C49 -0.3(5) . .
O20 C21 C23 C24 166.6(3) . .
O20 C21 C23 C26 -12.6(4) . .
C21 C23 C24 C25 -179.1(3) . 1_455
C21 C23 C26 C27 -179.3(3) . .
O22 C21 C23 C24 -13.5(4) . .
O22 C21 C23 C26 167.4(3) . .
C23 C26 C27 C28 -2.2(5) . 1_455
C24 C23 C26 C27 1.5(5) . .
C24 C25 C28 C27 0.4(5) 1_655 1_655
C24 C25 C28 C39 -175.3(3) 1_655 .
C25 C28 C39 C38 -162.2(3) . .
C25 C28 C39 N40 21.2(4) . .
C26 C23 C24 C25 0.1(5) . 1_455
C27 C28 C39 C38 22.3(4) 1_655 .
C27 C28 C39 N40 -154.4(3) 1_655 .
C28 C39 N40 C41 167.7(2) . .
O29 C30 C32 C33 -21.0(4) . .
O29 C30 C32 C37 159.3(3) . .
C30 C32 C33 C34 -179.2(2) . .
C30 C32 C37 C36 179.1(3) . .
O31 C30 C32 C33 159.3(3) . .
O31 C30 C32 C37 -20.4(4) . .
C32 C33 C34 C35 0.0(4) . .
C33 C32 C37 C36 -0.6(4) . .
C33 C34 C35 C36 -0.5(4) . .
C33 C34 C35 C38 179.8(2) . .
C34 C35 C36 C37 0.3(4) . .
C34 C35 C38 C39 -134.7(3) . .
C34 C35 C38 N43 45.4(3) . .
C35 C36 C37 C32 0.2(5) . .
C35 C38 C39 C28 22.2(4) . .
C35 C38 C39 N40 -161.2(3) . .
C35 C38 N43 C42 170.7(2) . .
C36 C35 C38 C39 45.6(4) . .
C36 C35 C38 N43 -134.3(3) . .
C37 C32 C33 C34 0.5(4) . .
C38 C35 C36 C37 -179.9(3) . .
C38 C39 N40 C41 -9.2(4) . .
C39 C38 N43 C42 -9.1(4) . .
C39 N40 C41 C42 -8.6(4) . .
C39 N40 C41 C49 170.5(2) . .
N40 C41 C42 N43 18.2(4) . .
N40 C41 C42 C44 -162.5(2) . .
N40 C41 C49 C50 -149.1(3) . .
N40 C41 C49 C53 26.4(4) . .
C41 C42 N43 C38 -8.7(4) . .
C41 C42 C44 C45 -127.7(3) . .
C41 C42 C44 C48 47.6(4) . .
C41 C49 C50 C51 177.1(3) . .
C41 C49 C53 C52 -177.1(3) . .
C42 C41 C49 C50 29.9(4) . .
C42 C41 C49 C53 -154.6(3) . .
C42 C44 C45 C46 169.6(3) . .
C42 C44 C48 C47 -172.4(2) . .
N43 C38 C39 C28 -157.9(3) . .
N43 C38 C39 N40 18.6(4) . .
N43 C42 C44 C45 51.7(4) . .
N43 C42 C44 C48 -133.0(3) . .
C44 C42 N43 C38 171.9(2) . .
C44 C45 C46 C9 2.8(5) . .
C45 C44 C48 C47 3.0(4) . .
C46 C9 C47 C48 -5.8(4) . .
C47 C9 C46 C45 3.0(4) . .
C48 C44 C45 C46 -5.8(4) . .
C49 C41 C42 N43 -160.9(2) . .
C49 C41 C42 C44 18.5(4) . .
C49 C50 C51 C17 0.1(4) . .
C50 C49 C53 C52 -1.5(5) . .
C51 C17 C52 C53 2.0(5) . .
C52 C17 C51 C50 -1.9(4) . .
C53 C49 C50 C51 1.6(4) . .
C54 C2 O3 Sr1 -179.04(18) . .
C54 C2 O3 Sr2 -67.5(3) . .
C54 C55 C56 C57 -2.7(4) . .
C55 C54 C86 C85 5.1(4) . .
C55 C56 C57 C58 -171.3(2) . .
C55 C56 C57 C85 6.3(4) . .
C56 C57 C58 C59 140.4(3) . .
C56 C57 C58 N70 -37.4(3) . .
C56 C57 C85 C86 -4.2(4) . .
C57 C58 C59 N60 175.1(2) . .
C57 C58 C59 C80 -14.0(4) . .
C57 C58 N70 C62 -179.6(2) . .
C57 C85 C86 C54 -1.5(4) . .
C58 C57 C85 C86 173.3(2) . .
C58 C59 N60 C61 6.2(4) . .
C58 C59 C80 C81 147.2(3) . .
C58 C59 C80 C84 -41.9(4) . .
C59 C58 N70 C62 2.5(4) . .
C59 N60 C61 C62 -0.7(4) . .
C59 N60 C61 C71 176.1(2) . .
C59 C80 C81 C82 169.1(2) . .
C59 C80 C84 C83 -168.5(2) . .
N60 C59 C80 C81 -41.4(3) . .
N60 C59 C80 C84 129.5(2) . .
N60 C61 C62 C63 175.6(2) . .
N60 C61 C62 N70 -4.0(4) . .
N60 C61 C71 C72 43.1(3) . .
N60 C61 C71 C76 -134.1(3) . .
C61 C62 C63 C64 53.1(4) . .
C61 C62 C63 C68 -127.4(3) . .
C61 C62 N70 C58 3.0(4) . .
C61 C71 C72 C73 -179.7(3) . .
C61 C71 C76 C75 179.3(3) . .
C62 C61 C71 C72 -140.3(3) . .
C62 C61 C71 C76 42.6(4) . .
C62 C63 C64 C65 -179.4(3) . .
C62 C63 C68 C67 179.4(3) . .
C63 C62 N70 C58 -176.7(2) . .
C63 C64 C65 C66 -0.5(5) . .
C64 C63 C68 C67 -1.0(4) . .
C64 C65 C66 C67 0.0(5) . .
C64 C65 C66 C69 177.8(3) . 1_565
C65 C66 C67 C68 0.0(4) . .
C66 C67 C68 C63 0.5(4) . .
C66 C69 O88 Sr1 178.1(2) 1_545 .
C66 C69 O89 Sr1 -178.15(19) 1_545 .
C68 C63 C64 C65 1.0(5) . .
C69 C66 C67 C68 -177.8(2) 1_565 .
N70 C58 C59 N60 -7.2(4) . .
N70 C58 C59 C80 163.7(2) . .
N70 C62 C63 C64 -127.3(3) . .
N70 C62 C63 C68 52.2(3) . .
C71 C61 C62 C63 -0.9(4) . .
C71 C61 C62 N70 179.5(2) . .
C71 C72 C73 C74 0.7(4) . .
C72 C71 C76 C75 2.1(5) . .
C72 C73 C74 C75 1.5(5) . .
C72 C73 C74 C77 -176.9(3) . .
C73 C74 C75 C76 -1.9(5) . .
C73 C74 C77 O78 -10.6(4) . .
C73 C74 C77 O79 167.5(4) . .
C74 C75 C76 C71 0.0(5) . .
C75 C74 C77 O78 170.9(3) . .
C75 C74 C77 O79 -10.9(5) . .
C76 C71 C72 C73 -2.5(4) . .
C77 C74 C75 C76 176.6(3) . .
C80 C59 N60 C61 -165.7(2) . .
C80 C81 C82 C15 -1.3(4) . .
C81 C80 C84 C83 2.7(4) . .
C82 C15 C83 C84 -2.7(4) . .
C83 C15 C82 C81 3.6(4) . .
C84 C80 C81 C82 -1.9(4) . .
C85 C57 C58 C59 -37.1(4) . .
C85 C57 C58 N70 145.1(2) . .
C86 C54 C55 C56 -3.1(4) . .
O88 C69 O89 Sr1 0.3(3) . .
O89 C69 O88 Sr1 -0.2(3) . .
