#------------------------------------------------------------------------------
#$Date: 2018-11-22 01:52:04 +0200 (Thu, 22 Nov 2018) $
#$Revision: 212093 $
#$URL: file:///home/coder/svn-repositories/cod/cif/7/23/18/7231851.cif $
#------------------------------------------------------------------------------
#
# This file is available in the Crystallography Open Database (COD),
# http://www.crystallography.net/
#
# All data on this site have been placed in the public domain by the
# contributors.
#
data_7231851
loop_
_publ_author_name
'wang, tao'
'Huang, Kun'
'Peng, Mengni'
'Li, Xianglin'
'Han, Defang'
'jing, linhai'
'Qin, Dabin'
_publ_section_title
;
 Metal-Organic Frameworks Based on Tetraphenylpyrazine Derived
 Tetracarboxylic Acid for Electrocatalytic Hydrogen Evolution Reaction and
 NACs Sensing
;
_journal_name_full               CrystEngComm
_journal_paper_doi               10.1039/C8CE01868E
_journal_year                    2018
_chemical_formula_moiety         'C32 H19 Ce N2 O9'
_chemical_formula_sum            'C32 H19 Ce N2 O9'
_chemical_formula_weight         715.61
_space_group_crystal_system      triclinic
_space_group_IT_number           2
_space_group_name_Hall           '-P 1'
_space_group_name_H-M_alt        'P -1'
_symmetry_space_group_name_Hall  '-P 1'
_symmetry_space_group_name_H-M   'P -1'
_atom_sites_solution_hydrogens   mixed
_audit_creation_date             2017-04-24
_audit_creation_method
;
Olex2 1.2-beta
(compiled 2016.11.30 svn.r3356 for OlexSys, GUI svn.r5269)
;
_audit_update_record
;
2018-05-29 deposited with the CCDC.
2018-11-21 downloaded from the CCDC.
;
_cell_angle_alpha                96.448(4)
_cell_angle_beta                 108.756(7)
_cell_angle_gamma                98.885(7)
_cell_formula_units_Z            2
_cell_length_a                   10.124(2)
_cell_length_b                   11.220(2)
_cell_length_c                   15.330(3)
_cell_measurement_reflns_used    5631
_cell_measurement_temperature    293(2)
_cell_measurement_theta_max      27.54
_cell_measurement_theta_min      2.33
_cell_volume                     1604.5(5)
_computing_molecular_graphics    'Olex2 (Dolomanov et al., 2009)'
_computing_publication_material  'Olex2 (Dolomanov et al., 2009)'
_computing_structure_refinement  'ShelXL (Sheldrick, 2015)'
_diffrn_ambient_temperature      293.15
_diffrn_measured_fraction_theta_full 0.999
_diffrn_measured_fraction_theta_max 0.996
_diffrn_measurement_device_type  'Bruker APEX-II CCD'
_diffrn_radiation_type           MoK\a
_diffrn_radiation_wavelength     0.71073
_diffrn_reflns_av_R_equivalents  0.0348
_diffrn_reflns_av_unetI/netI     0.0165
_diffrn_reflns_Laue_measured_fraction_full 0.999
_diffrn_reflns_Laue_measured_fraction_max 0.996
_diffrn_reflns_limit_h_max       12
_diffrn_reflns_limit_h_min       -12
_diffrn_reflns_limit_k_max       14
_diffrn_reflns_limit_k_min       -14
_diffrn_reflns_limit_l_max       19
_diffrn_reflns_limit_l_min       -19
_diffrn_reflns_number            72131
_diffrn_reflns_point_group_measured_fraction_full 0.999
_diffrn_reflns_point_group_measured_fraction_max 0.996
_diffrn_reflns_theta_full        25.242
_diffrn_reflns_theta_max         26.439
_diffrn_reflns_theta_min         2.142
_exptl_absorpt_coefficient_mu    1.472
_exptl_absorpt_correction_T_max  0.3108
_exptl_absorpt_correction_T_min  0.2133
_exptl_absorpt_correction_type   multi-scan
_exptl_crystal_colour            colorless
_exptl_crystal_density_diffrn    1.481
_exptl_crystal_density_method    'not measured'
_exptl_crystal_description       block
_exptl_crystal_F_000             710
_exptl_crystal_size_max          0.31
_exptl_crystal_size_mid          0.25
_exptl_crystal_size_min          0.21
_refine_diff_density_max         0.426
_refine_diff_density_min         -0.628
_refine_diff_density_rms         0.122
_refine_ls_extinction_method     none
_refine_ls_goodness_of_fit_ref   1.226
_refine_ls_hydrogen_treatment    constr
_refine_ls_matrix_type           full
_refine_ls_number_parameters     399
_refine_ls_number_reflns         6585
_refine_ls_number_restraints     0
_refine_ls_restrained_S_all      1.226
_refine_ls_R_factor_all          0.0245
_refine_ls_R_factor_gt           0.0220
_refine_ls_shift/su_max          0.001
_refine_ls_shift/su_mean         0.000
_refine_ls_structure_factor_coef Fsqd
_refine_ls_weighting_details
'w=1/[\s^2^(Fo^2^)+(0.0383P)^2^+1.4672P] where P=(Fo^2^+2Fc^2^)/3'
_refine_ls_weighting_scheme      calc
_refine_ls_wR_factor_gt          0.0731
_refine_ls_wR_factor_ref         0.0742
_reflns_Friedel_coverage         0.000
_reflns_number_gt                6146
_reflns_number_total             6585
_reflns_threshold_expression     'I > 2\s(I)'
_cod_data_source_file            c8ce01868e2.cif
_cod_data_source_block           mo_20161103ce_0m-auto_sq
_cod_original_cell_volume        1604.4(6)
_cod_database_code               7231851
_shelx_space_group_comment
;
The symmetry employed for this shelxl refinement is uniquely defined
by the following loop, which should always be used as a source of
symmetry information in preference to the above space-group names.
They are only intended as comments.
;
_olex2_refinement_description
;
1. Fixed Uiso
 At 1.2 times of:
  All C(H) groups
 At 1.5 times of:
  All O(H) groups, All O(H,H) groups
2.a Rotating group:
 O3(H3A,H3B)
2.b Aromatic/amide H refined with riding coordinates:
 C3(H3), C4(H4), C9(H9), C10(H10), C13(H13), C14(H14), C15(H15), C16(H16),
 C19(H19), C20(H20), C25(H25), C26(H26), C29(H29), C30(H30), C31(H31), C32(H32)
2.c Idealised tetrahedral OH refined as rotating group:
 O8(H8)
;
_shelx_res_file
;
    mo_20161103ce_0m-auto_sq.res created by SHELXL-2014/7

TITL mo_20161103Ce_0m_a.res in P-1
CELL 0.71073 10.1237 11.2196 15.3304 96.448 108.756 98.885
ZERR 2 0.0024 0.0021 0.0025 0.004 0.007 0.007
LATT 1
SFAC C H Ce N O
UNIT 64 38 2 4 18

L.S. 5 0 89
PLAN  -5 0 0
TEMP 20
HTAB
BOND $H
CONF
ABIN
fmap 2
acta
REM <olex2.extras>
REM <HklSrc "%.\\mo_20161103Ce_0m-auto_sq.hkl">
REM </olex2.extras>

WGHT    0.038300    1.467200
FVAR       0.51484
CE1   3    0.699370    0.468267    0.510786    11.00000    0.02382    0.02162 =
         0.01620    0.00830    0.01186    0.01163
O1    5    0.916157    0.398343    0.607942    11.00000    0.03367    0.03996 =
         0.04392    0.02568    0.01824    0.01593
O2    5    0.733007    0.246677    0.533190    11.00000    0.04910    0.03523 =
         0.02514    0.01294    0.00647    0.01602
O3    5    0.903158    0.617011    0.498333    11.00000    0.04802    0.04384 =
         0.05784    0.01239    0.03369    0.00547
AFIX   7
H3A   2    0.879248    0.687541    0.489343    11.00000   -1.50000
H3B   2    0.927348    0.588641    0.451373    11.00000   -1.50000
AFIX   0
O4    5    0.444241    0.369994    0.444218    11.00000    0.03182    0.02164 =
         0.01987    0.00158    0.00900    0.00659
O5    5    0.221885    0.354348    0.353174    11.00000    0.02787    0.04941 =
         0.03601   -0.01254    0.01245    0.00856
O6    5    0.617853    0.402689   -0.361559    11.00000    0.03800    0.04746 =
         0.03035    0.02546    0.02290    0.02010
O7    5    0.403521    0.436058   -0.369253    11.00000    0.04180    0.03816 =
         0.02951    0.02264    0.02301    0.02660
O8    5    0.715065    0.475143    1.257706    11.00000    0.09409    0.05721 =
         0.04451    0.02815    0.04797    0.05297
AFIX 147
H8    2    0.681633    0.513445    1.291335    11.00000   -1.50000
AFIX   0
O9    5    0.767731    0.371413    1.376208    11.00000    0.05966    0.04003 =
         0.02646    0.01326    0.02724    0.02884
N1    4    0.952257    0.103665    0.983787    11.00000    0.03139    0.02794 =
         0.01835    0.00664    0.01124    0.01263
N2    4    0.459690    0.112052    0.001373    11.00000    0.03928    0.02524 =
         0.02288    0.01010    0.01796    0.01356
C1    1    0.846851    0.290139    0.601052    11.00000    0.03603    0.03418 =
         0.02854    0.01538    0.01889    0.02056
C2    1    0.896765    0.220042    0.678734    11.00000    0.03379    0.03084 =
         0.02428    0.01229    0.01463    0.01563
C3    1    0.827300    0.100819    0.671596    11.00000    0.04395    0.03441 =
         0.02197    0.00850    0.00378    0.00709
AFIX  43
H3    2    0.756582    0.061122    0.615789    11.00000   -1.20000
AFIX   0
C4    1    0.863247    0.040516    0.747793    11.00000    0.04405    0.02651 =
         0.02974    0.01116    0.00967    0.00349
AFIX  43
H4    2    0.818068   -0.040155    0.742134    11.00000   -1.20000
AFIX   0
C5    1    0.965964    0.099770    0.832162    11.00000    0.02922    0.02644 =
         0.02152    0.00826    0.01278    0.01384
C6    1    0.989502    0.042125    0.918708    11.00000    0.02671    0.02615 =
         0.02084    0.00567    0.00839    0.00930
C7    1    0.960043    0.066278    1.065196    11.00000    0.02707    0.02808 =
         0.02093    0.00595    0.00912    0.01045
C8    1    0.912413    0.146339    1.128746    11.00000    0.03286    0.02915 =
         0.02317    0.00556    0.01210    0.01423
C9    1    0.884135    0.113663    1.207008    11.00000    0.04972    0.02768 =
         0.03987    0.01450    0.02535    0.01904
AFIX  43
H9    2    0.894374    0.036728    1.221931    11.00000   -1.20000
AFIX   0
C10   1    0.841451    0.192888    1.262491    11.00000    0.05381    0.03948 =
         0.03146    0.01631    0.02847    0.02222
AFIX  43
H10   2    0.827170    0.170465    1.315869    11.00000   -1.20000
AFIX   0
C11   1    0.819600    0.305428    1.239684    11.00000    0.04403    0.03173 =
         0.02879    0.00726    0.01991    0.01760
C12   1    0.765918    0.386531    1.298034    11.00000    0.04306    0.03164 =
         0.03026    0.00950    0.01958    0.01584
C13   1    0.846441    0.339957    1.161592    11.00000    0.10317    0.03963 =
         0.04678    0.02102    0.04967    0.04116
AFIX  43
H13   2    0.832098    0.415767    1.145804    11.00000   -1.20000
AFIX   0
C14   1    0.893977    0.262800    1.107684    11.00000    0.09547    0.04432 =
         0.03909    0.02129    0.04495    0.03933
AFIX  43
H14   2    0.914169    0.287847    1.056741    11.00000   -1.20000
AFIX   0
C15   1    1.035755    0.218572    0.838488    11.00000    0.04005    0.03164 =
         0.02713    0.00842    0.00424    0.00717
AFIX  43
H15   2    1.104594    0.259310    0.894743    11.00000   -1.20000
AFIX   0
C16   1    1.003663    0.277028    0.761588    11.00000    0.03957    0.02806 =
         0.03558    0.01308    0.01239    0.00533
AFIX  43
H16   2    1.054396    0.355216    0.765698    11.00000   -1.20000
AFIX   0
C17   1    0.342009    0.329279    0.366290    11.00000    0.03063    0.02092 =
         0.02511    0.00106    0.01409    0.00283
C18   1    0.370368    0.252900    0.290710    11.00000    0.02740    0.02189 =
         0.02426    0.00177    0.01314    0.00353
C19   1    0.468810    0.177696    0.312065    11.00000    0.03469    0.02823 =
         0.01992    0.00354    0.00978    0.00962
AFIX  43
H19   2    0.518612    0.175142    0.374231    11.00000   -1.20000
AFIX   0
C20   1    0.493349    0.106305    0.241204    11.00000    0.03541    0.02636 =
         0.02300    0.00687    0.01282    0.01443
AFIX  43
H20   2    0.557065    0.054020    0.256209    11.00000   -1.20000
AFIX   0
C21   1    0.423326    0.112164    0.147556    11.00000    0.03324    0.02182 =
         0.02187    0.00702    0.01535    0.00846
C22   1    0.459526    0.048558    0.070368    11.00000    0.03299    0.02384 =
         0.01980    0.00848    0.01416    0.01055
C23   1    0.500783    0.066404   -0.067614    11.00000    0.03498    0.02331 =
         0.02038    0.00959    0.01620    0.01121
C24   1    0.504112    0.148647   -0.137838    11.00000    0.03611    0.02252 =
         0.02109    0.01005    0.01631    0.01373
C25   1    0.630687    0.192014   -0.152149    11.00000    0.03344    0.03857 =
         0.03139    0.02138    0.01666    0.02023
AFIX  43
H25   2    0.714104    0.168224   -0.119229    11.00000   -1.20000
AFIX   0
C26   1    0.632180    0.270514   -0.215387    11.00000    0.03146    0.04024 =
         0.03387    0.02094    0.02106    0.01664
AFIX  43
H26   2    0.717056    0.299517   -0.224509    11.00000   -1.20000
AFIX   0
C27   1    0.508263    0.306618   -0.265515    11.00000    0.03358    0.02634 =
         0.02170    0.01330    0.01689    0.01491
C28   1    0.511489    0.387836   -0.336853    11.00000    0.03564    0.02587 =
         0.01907    0.00966    0.01589    0.01305
C29   1    0.382651    0.264018   -0.250583    11.00000    0.03016    0.03716 =
         0.03870    0.02228    0.01649    0.01669
AFIX  43
H29   2    0.298966    0.287015   -0.284003    11.00000   -1.20000
AFIX   0
C30   1    0.381593    0.187387   -0.186079    11.00000    0.03363    0.03864 =
         0.04201    0.02363    0.02411    0.01555
AFIX  43
H30   2    0.297627    0.161492   -0.174903    11.00000   -1.20000
AFIX   0
C31   1    0.325258    0.189289    0.126573    11.00000    0.03745    0.03282 =
         0.02047    0.00800    0.01101    0.01552
AFIX  43
H31   2    0.279071    0.195166    0.064545    11.00000   -1.20000
AFIX   0
C32   1    0.296221    0.256767    0.196814    11.00000    0.03175    0.03007 =
         0.02704    0.00490    0.01063    0.01521
AFIX  43
H32   2    0.227600    0.304688    0.181855    11.00000   -1.20000
AFIX   0
HKLF 4

REM  mo_20161103Ce_0m_a.res in P-1
REM R1 =  0.0220 for    6146 Fo > 4sig(Fo)  and  0.0245 for all    6585 data
REM    399 parameters refined using      0 restraints

END

WGHT      0.0383      1.4672

REM Instructions for potential hydrogen bonds
EQIV $1 -x+2, -y+1, -z+1
HTAB O3 O1_$1
EQIV $2 -x+1, -y+1, -z+1
HTAB O8 O7_$2

REM Highest difference peak  0.426,  deepest hole -0.628,  1-sigma level  0.122
Q1    1   0.9635  0.0034  0.7012  11.00000  0.05    0.43
Q2    1   0.4422  0.3050 -0.2474  11.00000  0.05    0.40
Q3    1   0.3929  0.2491 -0.2035  11.00000  0.05    0.39
Q4    1   0.8803  0.2375  0.6392  11.00000  0.05    0.39
Q5    1   0.9875  0.2264  0.7006  11.00000  0.05    0.39
;
_shelx_res_checksum              1224
_shelx_fab_checksum              21844
_shelx_fab_file
;
    2    0    0      9.06      0.00
    3    0    0     -9.04      0.00
    4    0    0      4.86      0.00
    5    0    0     -0.42      0.00
    6    0    0     -1.71      0.00
    7    0    0     -0.63      0.00
    8    0    0     -0.09      0.00
    9    0    0      0.11      0.00
   10    0    0     -0.48      0.00
   11    0    0      0.41      0.00
  -11    1    0      0.61      0.00
  -10    1    0     -0.52      0.00
   -9    1    0     -0.03      0.00
   -8    1    0     -0.46      0.00
   -7    1    0      0.50      0.00
   -6    1    0     -2.32      0.00
   -5    1    0      2.92      0.00
   -4    1    0      0.92      0.00
   -3    1    0      0.58      0.00
   -2    1    0      6.94      0.00
   -1    1    0     33.54      0.00
    1    1    0     -0.04      0.00
    3    1    0     -9.96      0.00
    4    1    0      1.44      0.00
    5    1    0     -1.31      0.00
    6    1    0      0.14      0.00
    7    1    0     -1.21      0.00
    8    1    0      0.59      0.00
    9    1    0      1.05      0.00
   10    1    0     -0.18      0.00
   11    1    0      0.66      0.00
  -11    2    0      0.73      0.00
  -10    2    0     -0.53      0.00
   -9    2    0     -0.09      0.00
   -8    2    0      0.16      0.00
   -7    2    0      1.08      0.00
   -6    2    0     -1.22      0.00
   -5    2    0      3.41      0.00
   -4    2    0      3.00      0.00
   -3    2    0      8.96      0.00
   -2    2    0      3.04      0.00
   -1    2    0      4.00      0.00
    0    2    0     62.43      0.00
    1    2    0    -13.11      0.00
    2    2    0     -4.56      0.00
    3    2    0    -12.74      0.00
    4    2    0      5.20      0.00
    5    2    0     -1.34      0.00
    6    2    0      1.03      0.00
    7    2    0     -1.49      0.00
    8    2    0      1.13      0.00
    9    2    0      0.21      0.00
   10    2    0      0.02      0.00
   11    2    0     -0.17      0.00
  -11    3    0      0.25      0.00
  -10    3    0     -0.16      0.00
   -9    3    0     -0.13      0.00
   -8    3    0      0.68      0.00
   -7    3    0      0.99      0.00
   -6    3    0     -1.99      0.00
   -5    3    0      4.47      0.00
   -4    3    0      0.98      0.00
   -3    3    0      9.49      0.00
   -2    3    0     -8.96      0.00
   -1    3    0      9.27      0.00
    0    3    0    -18.08      0.00
    1    3    0     -7.89      0.00
    2    3    0     -2.77      0.00
    3    3    0     -4.00      0.00
    4    3    0      3.95      0.00
    5    3    0     -1.22      0.00
    6    3    0      1.82      0.00
    7    3    0     -1.54      0.00
    8    3    0      0.97      0.00
    9    3    0      1.35      0.00
   10    3    0      0.71      0.00
  -11    4    0      0.84      0.00
  -10    4    0     -0.10      0.00
   -9    4    0      0.11      0.00
   -8    4    0      0.31      0.00
   -7    4    0      0.84      0.00
   -6    4    0     -0.44      0.00
   -5    4    0      1.49      0.00
   -4    4    0      1.31      0.00
   -3    4    0      7.18      0.00
   -2    4    0    -12.05      0.00
   -1    4    0     -5.87      0.00
    0    4    0     -4.98      0.00
    1    4    0      5.86      0.00
    2    4    0     -5.62      0.00
    3    4    0     -0.19      0.00
    4    4    0      1.76      0.00
    5    4    0     -0.31      0.00
    6    4    0      1.28      0.00
    7    4    0     -0.31      0.00
    8    4    0      1.09      0.00
    9    4    0     -0.11      0.00
   10    4    0     -0.16      0.00
  -11    5    0      0.04      0.00
  -10    5    0     -0.50      0.00
   -9    5    0      0.08      0.00
   -8    5    0      1.25      0.00
   -7    5    0      0.00      0.00
   -6    5    0     -0.65      0.00
   -5    5    0     -0.38      0.00
   -4    5    0      0.56      0.00
   -3    5    0      0.49      0.00
   -2    5    0    -10.21      0.00
   -1    5    0      2.78      0.00
    0    5    0     -9.68      0.00
    1    5    0      5.41      0.00
    2    5    0     -2.01      0.00
    3    5    0      1.73      0.00
    4    5    0      0.36      0.00
    5    5    0      1.05      0.00
    6    5    0      0.88      0.00
    7    5    0      0.53      0.00
    8    5    0      0.20      0.00
    9    5    0      0.39      0.00
   10    5    0      0.63      0.00
  -11    6    0      0.13      0.00
  -10    6    0      0.37      0.00
   -9    6    0     -0.32      0.00
   -8    6    0      0.22      0.00
   -7    6    0     -0.43      0.00
   -6    6    0     -0.57      0.00
   -5    6    0     -2.06      0.00
   -4    6    0      0.21      0.00
   -3    6    0     -1.09      0.00
   -2    6    0     -2.97      0.00
   -1    6    0     -3.93      0.00
    0    6    0      3.77      0.00
    1    6    0      9.56      0.00
    2    6    0     -2.15      0.00
    3    6    0      1.14      0.00
    4    6    0     -0.80      0.00
    5    6    0      2.00      0.00
    6    6    0     -0.96      0.00
    7    6    0      0.20      0.00
    8    6    0     -0.18      0.00
    9    6    0     -0.19      0.00
  -11    7    0     -0.15      0.00
  -10    7    0     -0.55      0.00
   -9    7    0     -0.02      0.00
   -8    7    0      0.13      0.00
   -7    7    0     -0.67      0.00
   -6    7    0     -0.23      0.00
   -5    7    0     -1.99      0.00
   -4    7    0      1.11      0.00
   -3    7    0     -2.42      0.00
   -2    7    0     -0.57      0.00
   -1    7    0      1.76      0.00
    0    7    0      0.70      0.00
    1    7    0      1.82      0.00
    2    7    0     -0.48      0.00
    3    7    0      1.42      0.00
    4    7    0     -0.91      0.00
    5    7    0      0.48      0.00
    6    7    0     -0.93      0.00
    7    7    0      0.37      0.00
    8    7    0     -0.03      0.00
  -11    8    0      0.03      0.00
  -10    8    0      0.76      0.00
   -9    8    0     -0.38      0.00
   -8    8    0      0.19      0.00
   -7    8    0     -0.34      0.00
   -6    8    0     -0.16      0.00
   -5    8    0     -1.40      0.00
   -4    8    0      1.24      0.00
   -3    8    0      0.01      0.00
   -2    8    0      2.12      0.00
   -1    8    0     -1.13      0.00
    0    8    0      3.05      0.00
    1    8    0      1.95      0.00
    2    8    0     -1.22      0.00
    3    8    0     -0.52      0.00
    4    8    0     -1.71      0.00
    5    8    0      0.73      0.00
    6    8    0     -0.77      0.00
    7    8    0      0.42      0.00
    8    8    0     -0.04      0.00
  -10    9    0     -1.43      0.00
   -9    9    0     -0.03      0.00
   -8    9    0      0.03      0.00
   -7    9    0      0.31      0.00
   -6    9    0     -0.27      0.00
   -5    9    0     -1.01      0.00
   -4    9    0      2.52      0.00
   -3    9    0      2.06      0.00
   -2    9    0      1.90      0.00
   -1    9    0     -0.13      0.00
    0    9    0      1.03      0.00
    1    9    0     -1.59      0.00
    2    9    0      0.40      0.00
    3    9    0     -0.42      0.00
    4    9    0     -0.37      0.00
    5    9    0      0.74      0.00
    6    9    0     -0.19      0.00
    7    9    0      0.30      0.00
   -9   10    0      0.17      0.00
   -8   10    0      0.29      0.00
   -7   10    0     -0.38      0.00
   -6   10    0      0.25      0.00
   -5   10    0      0.13      0.00
   -4   10    0      1.15      0.00
   -3   10    0      1.35      0.00
   -2   10    0      0.80      0.00
   -1   10    0     -2.19      0.00
    0   10    0     -0.68      0.00
    1   10    0     -0.93      0.00
    2   10    0      0.76      0.00
    3   10    0     -0.89      0.00
    4   10    0      0.10      0.00
    5   10    0     -0.45      0.00
    6   10    0     -0.16      0.00
   -9   11    0      0.26      0.00
   -8   11    0      0.30      0.00
   -7   11    0      1.48      0.00
   -6   11    0     -0.13      0.00
   -5   11    0      0.25      0.00
   -4   11    0      0.42      0.00
   -3   11    0      0.46      0.00
   -2   11    0     -0.14      0.00
   -1   11    0     -1.32      0.00
    0   11    0     -0.81      0.00
    1   11    0     -0.74      0.00
    2   11    0      0.95      0.00
    3   11    0      0.34      0.00
    4   11    0     -0.19      0.00
    5   11    0      0.19      0.00
   -8   12    0      0.03      0.00
   -7   12    0      0.01      0.00
   -6   12    0     -0.50      0.00
   -5   12    0      0.03      0.00
   -4   12    0     -1.25      0.00
   -3   12    0     -0.03      0.00
   -2   12    0     -1.42      0.00
   -1   12    0     -1.20      0.00
    0   12    0     -0.28      0.00
    1   12    0      0.32      0.00
    2   12    0      0.43      0.00
    3   12    0      0.58      0.00
   -6   13    0     -0.41      0.00
   -5   13    0      0.00      0.00
   -4   13    0     -1.32      0.00
   -3   13    0      0.23      0.00
   -2   13    0      0.06      0.00
   -1   13    0      0.40      0.00
    0   13    0     -0.25      0.00
    1   13    0     -0.49      0.00
    2   13    0      0.85      0.00
    2  -14    1     -0.35      0.00
    3  -14    1     -0.86      0.00
   -2  -13    1      0.08      0.00
   -1  -13    1     -0.02      0.00
    0  -13    1      0.11      0.00
    1  -13    1      0.40      0.00
    2  -13    1     -0.37      0.00
    3  -13    1     -0.06      0.00
    4  -13    1      1.42      0.00
    5  -13    1     -0.05      0.00
    6  -13    1      1.14      0.00
   -4  -12    1      0.09      0.00
   -3  -12    1     -0.08      0.00
   -2  -12    1     -0.91      0.00
   -1  -12    1      0.51      0.00
    0  -12    1      0.40      0.00
    1  -12    1      0.14      0.00
    2  -12    1      0.15      0.00
    3  -12    1      0.88      0.00
    4  -12    1      1.09      0.00
    5  -12    1      0.04      0.00
    6  -12    1      0.38      0.00
    7  -12    1     -1.34      0.00
   -5  -11    1      0.46      0.00
   -4  -11    1     -0.10      0.00
   -3  -11    1     -0.51      0.00
   -2  -11    1     -1.09      0.00
   -1  -11    1      0.18      0.00
    0  -11    1      1.36      0.00
    1  -11    1      1.72      0.00
    2  -11    1      0.80      0.00
    3  -11    1     -0.36      0.00
    4  -11    1      0.58      0.00
    5  -11    1     -0.03      0.00
    6  -11    1     -0.21      0.00
    7  -11    1      0.56      0.00
    8  -11    1     -0.04      0.00
   -6  -10    1      0.19      0.00
   -5  -10    1     -0.33      0.00
   -4  -10    1     -0.05      0.00
   -3  -10    1     -0.25      0.00
   -2  -10    1     -0.58      0.00
   -1  -10    1      1.51      0.00
    0  -10    1      0.06      0.00
    1  -10    1      0.98      0.00
    2  -10    1     -1.18      0.00
    3  -10    1     -1.58      0.00
    4  -10    1     -1.40      0.00
    5  -10    1      0.72      0.00
    6  -10    1      0.01      0.00
    7  -10    1     -1.65      0.00
    8  -10    1     -0.52      0.00
    9  -10    1      0.05      0.00
   -7   -9    1     -0.19      0.00
   -6   -9    1      0.47      0.00
   -5   -9    1      0.01      0.00
   -4   -9    1      0.83      0.00
   -3   -9    1      1.15      0.00
   -2   -9    1      0.03      0.00
   -1   -9    1      0.25      0.00
    0   -9    1     -0.55      0.00
    1   -9    1      1.92      0.00
    2   -9    1     -2.88      0.00
    3   -9    1     -1.17      0.00
    4   -9    1     -1.15      0.00
    5   -9    1      0.40      0.00
    6   -9    1     -0.39      0.00
    7   -9    1      0.02      0.00
    8   -9    1     -0.14      0.00
    9   -9    1      0.10      0.00
   10   -9    1     -0.32      0.00
   -8   -8    1     -0.02      0.00
   -7   -8    1     -0.13      0.00
   -6   -8    1      0.53      0.00
   -5   -8    1     -0.57      0.00
   -4   -8    1      1.09      0.00
   -3   -8    1     -0.17      0.00
   -2   -8    1      0.16      0.00
   -1   -8    1      0.02      0.00
    0   -8    1     -0.52      0.00
    1   -8    1     -0.41      0.00
    2   -8    1     -1.82      0.00
    3   -8    1     -0.79      0.00
    4   -8    1     -1.67      0.00
    5   -8    1      1.80      0.00
    6   -8    1     -0.03      0.00
    7   -8    1      0.03      0.00
    8   -8    1     -0.05      0.00
    9   -8    1      0.49      0.00
   10   -8    1      0.38      0.00
   -9   -7    1     -0.04      0.00
   -8   -7    1      0.25      0.00
   -7   -7    1     -0.17      0.00
   -6   -7    1      1.48      0.00
   -5   -7    1     -1.50      0.00
   -4   -7    1      2.10      0.00
   -3   -7    1     -0.54      0.00
   -2   -7    1      1.60      0.00
   -1   -7    1     -6.56      0.00
    0   -7    1     -2.87      0.00
    1   -7    1      1.46      0.00
    2   -7    1     -0.93      0.00
    3   -7    1     -0.07      0.00
    4   -7    1     -0.37      0.00
    5   -7    1      1.82      0.00
    6   -7    1     -0.13      0.00
    7   -7    1      0.37      0.00
    8   -7    1      0.01      0.00
    9   -7    1      0.18      0.00
   10   -7    1     -0.65      0.00
   11   -7    1      0.09      0.00
   -9   -6    1     -0.20      0.00
   -8   -6    1     -0.14      0.00
   -7   -6    1     -0.51      0.00
   -6   -6    1      0.09      0.00
   -5   -6    1     -1.08      0.00
   -4   -6    1      0.97      0.00
   -3   -6    1     -1.70      0.00
   -2   -6    1      0.61      0.00
   -1   -6    1     -4.95      0.00
    0   -6    1      3.04      0.00
    1   -6    1     -4.41      0.00
    2   -6    1      4.64      0.00
    3   -6    1      0.93      0.00
    4   -6    1      0.13      0.00
    5   -6    1      1.80      0.00
    6   -6    1      0.37      0.00
    7   -6    1      0.13      0.00
    8   -6    1     -0.50      0.00
    9   -6    1      0.22      0.00
   10   -6    1      0.44      0.00
   11   -6    1     -0.35      0.00
  -10   -5    1     -0.47      0.00
   -9   -5    1      0.14      0.00
   -8   -5    1     -0.53      0.00
   -7   -5    1      0.72      0.00
   -6   -5    1     -0.49      0.00
   -5   -5    1     -0.69      0.00
   -4   -5    1     -0.07      0.00
   -3   -5    1     -1.20      0.00
   -2   -5    1      2.32      0.00
   -1   -5    1    -12.11      0.00
    0   -5    1      1.53      0.00
    1   -5    1      6.75      0.00
    2   -5    1      7.80      0.00
    3   -5    1     -2.58      0.00
    4   -5    1      1.36      0.00
    5   -5    1      0.70      0.00
    6   -5    1      1.01      0.00
    7   -5    1      0.10      0.00
    8   -5    1      0.10      0.00
    9   -5    1      0.16      0.00
   10   -5    1     -0.36      0.00
   11   -5    1     -0.63      0.00
  -10   -4    1     -0.75      0.00
   -9   -4    1     -0.17      0.00
   -8   -4    1     -0.86      0.00
   -7   -4    1      0.87      0.00
   -6   -4    1     -2.47      0.00
   -5   -4    1      0.24      0.00
   -4   -4    1     -2.79      0.00
   -3   -4    1      1.12      0.00
   -2   -4    1      0.16      0.00
   -1   -4    1     -0.43      0.00
    0   -4    1     16.27      0.00
    1   -4    1      1.63      0.00
    2   -4    1     11.31      0.00
    3   -4    1     -5.13      0.00
    4   -4    1      0.51      0.00
    5   -4    1     -1.24      0.00
    6   -4    1      1.48      0.00
    7   -4    1     -1.20      0.00
    8   -4    1     -1.03      0.00
    9   -4    1      0.09      0.00
   10   -4    1      0.03      0.00
   11   -4    1     -0.35      0.00
  -11   -3    1      0.01      0.00
  -10   -3    1      0.21      0.00
   -9   -3    1     -0.02      0.00
   -8   -3    1     -1.35      0.00
   -7   -3    1      1.72      0.00
   -6   -3    1     -2.16      0.00
   -5   -3    1      0.49      0.00
   -4   -3    1     -3.61      0.00
   -3   -3    1      8.13      0.00
   -2   -3    1      3.58      0.00
   -1   -3    1      1.51      0.00
    0   -3    1    -13.09      0.00
    1   -3    1     10.55      0.00
    2   -3    1      7.04      0.00
    3   -3    1     -9.05      0.00
    4   -3    1     -1.34      0.00
    5   -3    1     -2.62      0.00
    6   -3    1      0.93      0.00
    7   -3    1     -1.52      0.00
    8   -3    1      0.13      0.00
    9   -3    1     -0.02      0.00
   10   -3    1      0.08      0.00
   11   -3    1     -0.73      0.00
  -11   -2    1     -0.15      0.00
  -10   -2    1     -0.21      0.00
   -9   -2    1     -1.01      0.00
   -8   -2    1     -0.92      0.00
   -7   -2    1      1.34      0.00
   -6   -2    1     -1.97      0.00
   -5   -2    1      1.08      0.00
   -4   -2    1     -3.05      0.00
   -3   -2    1     10.67      0.00
   -2   -2    1     -6.16      0.00
   -1   -2    1     13.25      0.00
    0   -2    1      5.79      0.00
    1   -2    1    -10.38      0.00
    2   -2    1     -2.20      0.00
    3   -2    1     -6.70      0.00
    4   -2    1     -1.53      0.00
    5   -2    1     -3.57      0.00
    6   -2    1      2.08      0.00
    7   -2    1     -1.35      0.00
    8   -2    1     -0.37      0.00
    9   -2    1     -0.15      0.00
   10   -2    1      0.14      0.00
   11   -2    1     -0.43      0.00
  -11   -1    1      0.15      0.00
  -10   -1    1      0.12      0.00
   -9   -1    1     -0.86      0.00
   -8   -1    1      0.00      0.00
   -7   -1    1      0.97      0.00
   -6   -1    1      0.53      0.00
   -5   -1    1      0.37      0.00
   -4   -1    1     -4.64      0.00
   -3   -1    1     15.57      0.00
   -2   -1    1     -6.39      0.00
   -1   -1    1      6.64      0.00
    0   -1    1   -119.10      0.00
    1   -1    1     14.77      0.00
    2   -1    1     -6.35      0.00
    3   -1    1     -0.72      0.00
    4   -1    1     -4.53      0.00
    5   -1    1     -0.59      0.00
    6   -1    1      1.50      0.00
    7   -1    1     -0.58      0.00
    8   -1    1      0.01      0.00
    9   -1    1      0.64      0.00
   10   -1    1      0.75      0.00
   11   -1    1     -0.95      0.00
  -11    0    1      0.01      0.00
  -10    0    1      0.45      0.00
   -9    0    1     -0.47      0.00
   -8    0    1      0.58      0.00
   -7    0    1      0.13      0.00
   -6    0    1      1.40      0.00
   -5    0    1     -1.64      0.00
   -4    0    1      0.65      0.00
   -3    0    1      8.64      0.00
   -2    0    1     -8.75      0.00
   -1    0    1    -30.77      0.00
    1    0    1     -8.87      0.00
    2    0    1    -10.26      0.00
    3    0    1      4.40      0.00
    4    0    1     -1.63      0.00
    5    0    1      0.52      0.00
    6    0    1      0.75      0.00
    7    0    1      0.27      0.00
    8    0    1     -0.21      0.00
    9    0    1     -0.38      0.00
   10    0    1      0.44      0.00
   11    0    1     -1.16      0.00
  -12    1    1     -0.45      0.00
  -11    1    1      0.07      0.00
  -10    1    1      0.61      0.00
   -9    1    1     -0.24      0.00
   -8    1    1      0.18      0.00
   -7    1    1     -0.29      0.00
   -6    1    1      2.07      0.00
   -5    1    1     -2.67      0.00
   -4    1    1     -1.46      0.00
   -3    1    1     -1.68      0.00
   -2    1    1    -12.91      0.00
   -1    1    1    -16.89      0.00
    1    1    1     21.76      0.00
    2    1    1      1.09      0.00
    3    1    1     10.52      0.00
    4    1    1     -5.58      0.00
    5    1    1      2.45      0.00
    6    1    1     -0.06      0.00
    7    1    1      1.37      0.00
    8    1    1     -0.49      0.00
    9    1    1      0.38      0.00
   10    1    1     -0.03      0.00
   11    1    1     -0.08      0.00
  -12    2    1     -0.61      0.00
  -11    2    1      0.11      0.00
  -10    2    1      0.36      0.00
   -9    2    1      0.20      0.00
   -8    2    1      0.38      0.00
   -7    2    1     -0.35      0.00
   -6    2    1      2.65      0.00
   -5    2    1     -5.61      0.00
   -4    2    1      0.15      0.00
   -3    2    1     -8.15      0.00
   -2    2    1      3.98      0.00
   -1    2    1    -33.66      0.00
    0    2    1      7.77      0.00
    1    2    1      8.63      0.00
    2    2    1      1.90      0.00
    3    2    1      5.12      0.00
    4    2    1     -3.36      0.00
    5    2    1      2.33      0.00
    6    2    1     -0.42      0.00
    7    2    1      1.90      0.00
    8    2    1     -0.93      0.00
    9    2    1     -1.68      0.00
   10    2    1     -0.22      0.00
   11    2    1     -0.23      0.00
  -12    3    1     -0.05      0.00
  -11    3    1     -0.50      0.00
  -10    3    1      0.22      0.00
   -9    3    1     -0.31      0.00
   -8    3    1     -0.88      0.00
   -7    3    1     -0.79      0.00
   -6    3    1      0.17      0.00
   -5    3    1     -4.07      0.00
   -4    3    1     -2.18      0.00
   -3    3    1    -10.56      0.00
   -2    3    1      8.04      0.00
   -1    3    1     -7.93      0.00
    0    3    1     -4.06      0.00
    1    3    1      4.71      0.00
    2    3    1      7.36      0.00
    3    3    1      2.91      0.00
    4    3    1     -2.72      0.00
    5    3    1      2.03      0.00
    6    3    1     -1.36      0.00
    7    3    1      0.38      0.00
    8    3    1     -0.99      0.00
    9    3    1      0.00      0.00
   10    3    1      0.05      0.00
  -12    4    1     -0.45      0.00
  -11    4    1     -0.30      0.00
  -10    4    1      0.14      0.00
   -9    4    1     -0.14      0.00
   -8    4    1     -1.19      0.00
   -7    4    1      0.04      0.00
   -6    4    1      0.97      0.00
   -5    4    1     -2.91      0.00
   -4    4    1     -1.98      0.00
   -3    4    1     -5.02      0.00
   -2    4    1     11.38      0.00
   -1    4    1     -4.70      0.00
    0    4    1     16.43      0.00
    1    4    1     -2.32      0.00
    2    4    1      5.33      0.00
    3    4    1     -0.27      0.00
    4    4    1     -1.64      0.00
    5    4    1     -0.28      0.00
    6    4    1     -0.96      0.00
    7    4    1      0.13      0.00
    8    4    1     -0.44      0.00
    9    4    1     -1.13      0.00
   10    4    1     -0.76      0.00
  -12    5    1      0.18      0.00
  -11    5    1     -0.42      0.00
  -10    5    1      0.19      0.00
   -9    5    1     -0.03      0.00
   -8    5    1     -0.86      0.00
   -7    5    1      0.12      0.00
   -6    5    1      0.33      0.00
   -5    5    1      0.15      0.00
   -4    5    1     -1.69      0.00
   -3    5    1     -0.85      0.00
   -2    5    1      7.79      0.00
   -1    5    1      5.87      0.00
    0    5    1      0.25      0.00
    1    5    1     -7.73      0.00
    2    5    1      4.25      0.00
    3    5    1     -1.52      0.00
    4    5    1     -0.53      0.00
    5    5    1     -1.75      0.00
    6    5    1      0.01      0.00
    7    5    1     -0.34      0.00
    8    5    1      0.15      0.00
    9    5    1      0.17      0.00
  -11    6    1      0.34      0.00
  -10    6    1      0.13      0.00
   -9    6    1     -0.28      0.00
   -8    6    1     -0.76      0.00
   -7    6    1      1.01      0.00
   -6    6    1     -0.08      0.00
   -5    6    1      1.49      0.00
   -4    6    1     -1.08      0.00
   -3    6    1      3.89      0.00
   -2    6    1      4.86      0.00
   -1    6    1     -2.58      0.00
    0    6    1      2.85      0.00
    1    6    1     -3.24      0.00
    2    6    1      1.18      0.00
    3    6    1     -3.04      0.00
    4    6    1      0.56      0.00
    5    6    1     -0.61      0.00
    6    6    1      0.52      0.00
    7    6    1     -0.79      0.00
    8    6    1     -0.04      0.00
    9    6    1     -0.37      0.00
  -11    7    1      0.05      0.00
  -10    7    1     -0.60      0.00
   -9    7    1      0.39      0.00
   -8    7    1     -0.44      0.00
   -7    7    1      0.61      0.00
   -6    7    1      0.53      0.00
   -5    7    1      2.17      0.00
   -4    7    1     -0.64      0.00
   -3    7    1      2.48      0.00
   -2    7    1      0.07      0.00
   -1    7    1      1.67      0.00
    0    7    1     -5.36      0.00
    1    7    1     -5.10      0.00
    2    7    1      1.51      0.00
    3    7    1     -0.65      0.00
    4    7    1      1.50      0.00
    5    7    1     -1.90      0.00
    6    7    1      0.56      0.00
    7    7    1     -0.14      0.00
    8    7    1      0.17      0.00
  -11    8    1     -0.13      0.00
  -10    8    1      0.70      0.00
   -9    8    1     -0.08      0.00
   -8    8    1      0.52      0.00
   -7    8    1      0.44      0.00
   -6    8    1      0.41      0.00
   -5    8    1      1.30      0.00
   -4    8    1     -1.78      0.00
   -3    8    1      1.27      0.00
   -2    8    1     -1.46      0.00
   -1    8    1     -0.76      0.00
    0    8    1     -2.52      0.00
    1    8    1      0.68      0.00
    2    8    1     -0.22      0.00
    3    8    1      0.28      0.00
    4    8    1      0.46      0.00
    5    8    1     -0.52      0.00
    6    8    1      0.72      0.00
    7    8    1     -0.18      0.00
  -10    9    1     -0.43      0.00
   -9    9    1      0.29      0.00
   -8    9    1     -0.42      0.00
   -7    9    1      0.50      0.00
   -6    9    1      0.44      0.00
   -5    9    1      0.21      0.00
   -4    9    1     -1.88      0.00
   -3    9    1     -0.98      0.00
   -2    9    1     -2.06      0.00
   -1    9    1      1.38      0.00
    0    9    1     -1.64      0.00
    1    9    1      0.76      0.00
    2    9    1      0.05      0.00
    3    9    1      0.97      0.00
    4    9    1      0.42      0.00
    5    9    1     -0.44      0.00
    6    9    1      0.11      0.00
    7    9    1     -0.55      0.00
  -10   10    1      1.14      0.00
   -9   10    1     -0.34      0.00
   -8   10    1     -0.08      0.00
   -7   10    1     -0.63      0.00
   -6   10    1     -0.02      0.00
   -5   10    1     -0.41      0.00
   -4   10    1     -2.06      0.00
   -3   10    1     -2.11      0.00
   -2   10    1     -0.31      0.00
   -1   10    1      0.70      0.00
    0   10    1      0.20      0.00
    1   10    1      1.41      0.00
    2   10    1     -0.71      0.00
    3   10    1      0.29      0.00
    4   10    1      0.03      0.00
    5   10    1     -0.87      0.00
    6   10    1     -0.01      0.00
   -9   11    1     -0.30      0.00
   -8   11    1     -0.15      0.00
   -7   11    1      0.01      0.00
   -6   11    1      0.05      0.00
   -5   11    1     -0.34      0.00
   -4   11    1     -0.10      0.00
   -3   11    1     -0.79      0.00
   -2   11    1      1.76      0.00
   -1   11    1      1.99      0.00
    0   11    1      0.29      0.00
    1   11    1      0.19      0.00
    2   11    1     -0.59      0.00
    3   11    1      0.55      0.00
    4   11    1     -0.03      0.00
   -8   12    1     -0.03      0.00
   -7   12    1     -0.96      0.00
   -6   12    1     -0.03      0.00
   -5   12    1     -0.18      0.00
   -4   12    1      0.70      0.00
   -3   12    1      0.45      0.00
   -2   12    1      0.72      0.00
   -1   12    1      0.48      0.00
    0   12    1      0.59      0.00
    1   12    1      0.21      0.00
    2   12    1     -1.08      0.00
    3   12    1      0.16      0.00
   -6   13    1      0.65      0.00
   -5   13    1     -0.01      0.00
   -4   13    1      0.67      0.00
   -3   13    1      0.21      0.00
   -2   13    1      0.07      0.00
   -1   13    1      0.36      0.00
    0   13    1     -0.41      0.00
    1   13    1     -0.07      0.00
    1  -14    2     -0.18      0.00
    2  -14    2      1.09      0.00
    3  -14    2      0.53      0.00
   -2  -13    2      0.23      0.00
   -1  -13    2     -0.48      0.00
    0  -13    2     -0.15      0.00
    1  -13    2      1.15      0.00
    2  -13    2     -0.07      0.00
    3  -13    2     -0.32      0.00
    4  -13    2     -1.06      0.00
    5  -13    2     -0.10      0.00
    6  -13    2      0.02      0.00
   -4  -12    2     -0.11      0.00
   -3  -12    2      1.27      0.00
   -2  -12    2      0.48      0.00
   -1  -12    2     -0.08      0.00
    0  -12    2     -0.77      0.00
    1  -12    2     -0.79      0.00
    2  -12    2     -0.50      0.00
    3  -12    2     -0.41      0.00
    4  -12    2     -1.69      0.00
    5  -12    2      0.08      0.00
    6  -12    2     -0.78      0.00
    7  -12    2     -0.61      0.00
   -5  -11    2     -0.22      0.00
   -4  -11    2      0.37      0.00
   -3  -11    2      0.46      0.00
   -2  -11    2      0.65      0.00
   -1  -11    2     -1.07      0.00
    0  -11    2     -0.09      0.00
    1  -11    2     -1.00      0.00
    2  -11    2      0.11      0.00
    3  -11    2     -0.78      0.00
    4  -11    2      0.08      0.00
    5  -11    2     -0.06      0.00
    6  -11    2      0.15      0.00
    7  -11    2      2.21      0.00
    8  -11    2      0.26      0.00
   -6  -10    2      0.03      0.00
   -5  -10    2     -0.11      0.00
   -4  -10    2      0.00      0.00
   -3  -10    2     -0.43      0.00
   -2  -10    2      1.21      0.00
   -1  -10    2     -0.47      0.00
    0  -10    2     -0.99      0.00
    1  -10    2     -1.93      0.00
    2  -10    2      1.71      0.00
    3  -10    2      0.67      0.00
    4  -10    2      0.02      0.00
    5  -10    2     -0.09      0.00
    6  -10    2      0.55      0.00
    7  -10    2     -0.43      0.00
    8  -10    2      0.03      0.00
    9  -10    2     -0.22      0.00
   -7   -9    2      0.36      0.00
   -6   -9    2     -0.07      0.00
   -5   -9    2      0.32      0.00
   -4   -9    2     -0.89      0.00
   -3   -9    2      0.14      0.00
   -2   -9    2      0.35      0.00
   -1   -9    2     -1.00      0.00
    0   -9    2     -0.37      0.00
    1   -9    2     -0.12      0.00
    2   -9    2      1.63      0.00
    3   -9    2      1.67      0.00
    4   -9    2      1.19      0.00
    5   -9    2     -1.30      0.00
    6   -9    2      0.47      0.00
    7   -9    2      0.95      0.00
    8   -9    2      0.29      0.00
    9   -9    2     -0.37      0.00
   10   -9    2      0.23      0.00
   -8   -8    2      0.28      0.00
   -7   -8    2      0.10      0.00
   -6   -8    2     -1.08      0.00
   -5   -8    2      0.81      0.00
   -4   -8    2     -2.04      0.00
   -3   -8    2      0.42      0.00
   -2   -8    2     -0.93      0.00
   -1   -8    2      2.23      0.00
    0   -8    2      0.39      0.00
    1   -8    2     -1.55      0.00
    2   -8    2      2.95      0.00
    3   -8    2      1.36      0.00
    4   -8    2      0.73      0.00
    5   -8    2     -0.81      0.00
    6   -8    2      0.74      0.00
    7   -8    2      0.31      0.00
    8   -8    2     -0.08      0.00
    9   -8    2     -0.11      0.00
   10   -8    2      0.21      0.00
   -9   -7    2      0.41      0.00
   -8   -7    2     -0.25      0.00
   -7   -7    2      0.17      0.00
   -6   -7    2     -0.58      0.00
   -5   -7    2      0.95      0.00
   -4   -7    2     -1.69      0.00
   -3   -7    2      0.79      0.00
   -2   -7    2     -0.93      0.00
   -1   -7    2      2.00      0.00
    0   -7    2     -1.17      0.00
    1   -7    2      3.27      0.00
    2   -7    2      0.24      0.00
    3   -7    2      0.73      0.00
    4   -7    2      0.08      0.00
    5   -7    2     -1.49      0.00
    6   -7    2      0.24      0.00
    7   -7    2     -0.38      0.00
    8   -7    2     -0.02      0.00
    9   -7    2     -0.30      0.00
   10   -7    2      0.53      0.00
  -10   -6    2      1.11      0.00
   -9   -6    2      0.00      0.00
   -8   -6    2     -0.21      0.00
   -7   -6    2     -0.46      0.00
   -6   -6    2     -0.29      0.00
   -5   -6    2      1.29      0.00
   -4   -6    2     -1.72      0.00
   -3   -6    2      1.34      0.00
   -2   -6    2     -0.83      0.00
   -1   -6    2     11.19      0.00
    0   -6    2      0.91      0.00
    1   -6    2     -2.22      0.00
    2   -6    2     -1.48      0.00
    3   -6    2      1.46      0.00
    4   -6    2     -1.77      0.00
    5   -6    2     -1.24      0.00
    6   -6    2     -0.45      0.00
    7   -6    2     -0.74      0.00
    8   -6    2      0.04      0.00
    9   -6    2     -0.26      0.00
   10   -6    2      0.49      0.00
   11   -6    2      0.32      0.00
  -10   -5    2      0.66      0.00
   -9   -5    2     -0.37      0.00
   -8   -5    2      0.77      0.00
   -7   -5    2     -0.55      0.00
   -6   -5    2      1.85      0.00
   -5   -5    2      0.15      0.00
   -4   -5    2      0.23      0.00
   -3   -5    2      0.96      0.00
   -2   -5    2      1.26      0.00
   -1   -5    2      6.09      0.00
    0   -5    2     -7.93      0.00
    1   -5    2      2.58      0.00
    2   -5    2     -8.27      0.00
    3   -5    2      1.14      0.00
    4   -5    2     -1.60      0.00
    5   -5    2     -1.11      0.00
    6   -5    2     -1.10      0.00
    7   -5    2      0.76      0.00
    8   -5    2      0.30      0.00
    9   -5    2     -0.24      0.00
   10   -5    2      0.16      0.00
   11   -5    2      0.62      0.00
  -10   -4    2      0.05      0.00
   -9   -4    2     -0.53      0.00
   -8   -4    2      0.95      0.00
   -7   -4    2     -2.04      0.00
   -6   -4    2      2.45      0.00
   -5   -4    2     -0.59      0.00
   -4   -4    2      1.32      0.00
   -3   -4    2     -2.22      0.00
   -2   -4    2      0.01      0.00
   -1   -4    2      7.75      0.00
    0   -4    2     -4.67      0.00
    1   -4    2    -12.19      0.00
    2   -4    2     -8.54      0.00
    3   -4    2      5.20      0.00
    4   -4    2     -2.24      0.00
    5   -4    2      0.96      0.00
    6   -4    2     -1.45      0.00
    7   -4    2      0.70      0.00
    8   -4    2     -0.36      0.00
    9   -4    2     -0.01      0.00
   10   -4    2      0.40      0.00
   11   -4    2      0.44      0.00
  -11   -3    2      0.37      0.00
  -10   -3    2      0.27      0.00
   -9   -3    2     -0.04      0.00
   -8   -3    2      1.08      0.00
   -7   -3    2     -1.22      0.00
   -6   -3    2      3.32      0.00
   -5   -3    2     -0.88      0.00
   -4   -3    2      3.86      0.00
   -3   -3    2     -6.46      0.00
   -2   -3    2      6.53      0.00
   -1   -3    2    -11.13      0.00
    0   -3    2    -15.56      0.00
    1   -3    2     -7.02      0.00
    2   -3    2     -3.56      0.00
    3   -3    2      6.70      0.00
    4   -3    2     -0.13      0.00
    5   -3    2      1.97      0.00
    6   -3    2     -1.60      0.00
    7   -3    2      1.62      0.00
    8   -3    2      0.82      0.00
    9   -3    2      0.30      0.00
   10   -3    2      0.18      0.00
   11   -3    2     -0.19      0.00
  -11   -2    2     -0.12      0.00
  -10   -2    2     -0.08      0.00
   -9   -2    2      0.64      0.00
   -8   -2    2      0.28      0.00
   -7   -2    2     -1.09      0.00
   -6   -2    2      1.31      0.00
   -5   -2    2     -0.18      0.00
   -4   -2    2      3.91      0.00
   -3   -2    2    -13.86      0.00
   -2   -2    2      3.72      0.00
   -1   -2    2     -7.09      0.00
    0   -2    2     43.65      0.00
    1   -2    2    -19.69      0.00
    2   -2    2      0.77      0.00
    3   -2    2      5.55      0.00
    4   -2    2      2.55      0.00
    5   -2    2      1.49      0.00
    6   -2    2     -1.14      0.00
    7   -2    2      1.76      0.00
    8   -2    2     -0.06      0.00
    9   -2    2     -0.53      0.00
   10   -2    2     -0.49      0.00
   11   -2    2      0.65      0.00
  -11   -1    2     -0.16      0.00
  -10   -1    2      0.01      0.00
   -9   -1    2      1.03      0.00
   -8   -1    2     -0.23      0.00
   -7   -1    2     -0.16      0.00
   -6   -1    2      0.76      0.00
   -5   -1    2      1.05      0.00
   -4   -1    2     -0.22      0.00
   -3   -1    2    -13.48      0.00
   -2   -1    2     10.17      0.00
   -1   -1    2      4.04      0.00
    0   -1    2      5.69      0.00
    1   -1    2      0.79      0.00
    2   -1    2      9.95      0.00
    3   -1    2      1.97      0.00
    4   -1    2      2.29      0.00
    5   -1    2      0.69      0.00
    6   -1    2     -0.51      0.00
    7   -1    2      1.00      0.00
    8   -1    2      0.24      0.00
    9   -1    2      0.14      0.00
   10   -1    2     -0.46      0.00
   11   -1    2      0.47      0.00
  -12    0    2      0.13      0.00
  -11    0    2     -0.82      0.00
  -10    0    2     -0.43      0.00
   -9    0    2      0.80      0.00
   -8    0    2     -0.84      0.00
   -7    0    2      0.31      0.00
   -6    0    2     -1.71      0.00
   -5    0    2      1.32      0.00
   -4    0    2     -0.15      0.00
   -3    0    2     -7.19      0.00
   -2    0    2     12.97      0.00
   -1    0    2     12.30      0.00
    0    0    2     94.46      0.00
    1    0    2    -24.53      0.00
    2    0    2      3.15      0.00
    3    0    2     -2.99      0.00
    4    0    2      5.05      0.00
    5    0    2     -2.28      0.00
    6    0    2      0.01      0.00
    7    0    2     -0.37      0.00
    8    0    2      0.04      0.00
    9    0    2     -0.98      0.00
   10    0    2     -0.26      0.00
   11    0    2      0.60      0.00
  -12    1    2      0.15      0.00
  -11    1    2     -0.84      0.00
  -10    1    2     -0.21      0.00
   -9    1    2      0.26      0.00
   -8    1    2     -1.13      0.00
   -7    1    2     -0.06      0.00
   -6    1    2     -2.57      0.00
   -5    1    2      4.61      0.00
   -4    1    2     -3.88      0.00
   -3    1    2      0.38      0.00
   -2    1    2     -0.14      0.00
   -1    1    2     42.88      0.00
    0    1    2      3.52      0.00
    1    1    2     -4.62      0.00
    2    1    2      3.72      0.00
    3    1    2     -3.56      0.00
    4    1    2      2.88      0.00
    5    1    2     -2.58      0.00
    6    1    2      0.12      0.00
    7    1    2     -1.28      0.00
    8    1    2      0.35      0.00
    9    1    2      0.71      0.00
   10    1    2     -0.39      0.00
   11    1    2      0.58      0.00
  -12    2    2      0.21      0.00
  -11    2    2     -0.71      0.00
  -10    2    2     -0.15      0.00
   -9    2    2      0.28      0.00
   -8    2    2      0.43      0.00
   -7    2    2      0.23      0.00
   -6    2    2     -1.12      0.00
   -5    2    2      4.69      0.00
   -4    2    2     -1.33      0.00
   -3    2    2      7.13      0.00
   -2    2    2      1.24      0.00
   -1    2    2     23.99      0.00
    0    2    2     23.11      0.00
    1    2    2    -12.38      0.00
    2    2    2     -4.21      0.00
    3    2    2     -3.81      0.00
    4    2    2      3.27      0.00
    5    2    2     -3.70      0.00
    6    2    2      1.04      0.00
    7    2    2     -1.04      0.00
    8    2    2      0.47      0.00
    9    2    2     -0.17      0.00
   10    2    2      0.30      0.00
  -12    3    2      0.23      0.00
  -11    3    2      0.60      0.00
  -10    3    2      0.05      0.00
   -9    3    2      0.15      0.00
   -8    3    2      0.31      0.00
   -7    3    2     -0.32      0.00
   -6    3    2     -1.58      0.00
   -5    3    2      5.37      0.00
   -4    3    2      0.15      0.00
   -3    3    2      7.84      0.00
   -2    3    2     -7.61      0.00
   -1    3    2     16.87      0.00
    0    3    2    -15.06      0.00
    1    3    2      0.17      0.00
    2    3    2     -6.78      0.00
    3    3    2     -1.50      0.00
    4    3    2      1.92      0.00
    5    3    2     -1.28      0.00
    6    3    2     -0.16      0.00
    7    3    2     -0.83      0.00
    8    3    2      0.49      0.00
    9    3    2      1.45      0.00
   10    3    2      0.41      0.00
  -12    4    2     -0.01      0.00
  -11    4    2      0.45      0.00
  -10    4    2     -0.05      0.00
   -9    4    2      0.47      0.00
   -8    4    2      1.35      0.00
   -7    4    2     -0.45      0.00
   -6    4    2      0.51      0.00
   -5    4    2      2.79      0.00
   -4    4    2      2.54      0.00
   -3    4    2      4.73      0.00
   -2    4    2     -9.14      0.00
   -1    4    2      0.39      0.00
    0    4    2     -4.76      0.00
    1    4    2      1.73      0.00
    2    4    2     -7.09      0.00
    3    4    2      0.83      0.00
    4    4    2      1.06      0.00
    5    4    2      0.19      0.00
    6    4    2      0.38      0.00
    7    4    2     -0.01      0.00
    8    4    2     -0.17      0.00
    9    4    2      0.34      0.00
  -12    5    2      0.25      0.00
  -11    5    2      0.27      0.00
  -10    5    2      0.12      0.00
   -9    5    2      0.25      0.00
   -8    5    2      1.21      0.00
   -7    5    2     -1.05      0.00
   -6    5    2      0.55      0.00
   -5    5    2      0.68      0.00
   -4    5    2      2.98      0.00
   -3    5    2     -1.56      0.00
   -2    5    2     -7.13      0.00
   -1    5    2      2.93      0.00
    0    5    2     -9.39      0.00
    1    5    2      2.51      0.00
    2    5    2     -2.94      0.00
    3    5    2      3.45      0.00
    4    5    2     -0.40      0.00
    5    5    2      0.53      0.00
    6    5    2     -0.07      0.00
    7    5    2      0.72      0.00
    8    5    2      0.42      0.00
    9    5    2      0.49      0.00
  -11    6    2     -0.03      0.00
  -10    6    2      0.19      0.00
   -9    6    2      0.08      0.00
   -8    6    2      0.83      0.00
   -7    6    2     -0.77      0.00
   -6    6    2     -0.13      0.00
   -5    6    2     -1.06      0.00
   -4    6    2      1.06      0.00
   -3    6    2     -3.55      0.00
   -2    6    2     -2.27      0.00
   -1    6    2     -4.31      0.00
    0    6    2      4.91      0.00
    1    6    2      5.85      0.00
    2    6    2     -2.56      0.00
    3    6    2      1.23      0.00
    4    6    2     -0.43      0.00
    5    6    2      2.73      0.00
    6    6    2     -0.23      0.00
    7    6    2     -0.37      0.00
    8    6    2     -0.41      0.00
  -11    7    2     -0.01      0.00
  -10    7    2      0.22      0.00
   -9    7    2     -0.06      0.00
   -8    7    2     -0.07      0.00
   -7    7    2     -0.65      0.00
   -6    7    2      0.03      0.00
   -5    7    2     -1.58      0.00
   -4    7    2      0.44      0.00
   -3    7    2     -4.86      0.00
   -2    7    2     -0.70      0.00
   -1    7    2      1.05      0.00
    0    7    2      1.64      0.00
    1    7    2      0.80      0.00
    2    7    2     -0.11      0.00
    3    7    2      1.24      0.00
    4    7    2     -0.43      0.00
    5    7    2      0.23      0.00
    6    7    2     -0.90      0.00
    7    7    2      0.45      0.00
    8    7    2     -0.19      0.00
  -11    8    2      0.06      0.00
  -10    8    2      0.51      0.00
   -9    8    2     -0.21      0.00
   -8    8    2      0.55      0.00
   -7    8    2     -0.53      0.00
   -6    8    2     -0.69      0.00
   -5    8    2     -0.98      0.00
   -4    8    2      1.07      0.00
   -3    8    2     -1.46      0.00
   -2    8    2      1.26      0.00
   -1    8    2     -0.41      0.00
    0    8    2      4.38      0.00
    1    8    2      0.84      0.00
    2    8    2     -0.40      0.00
    3    8    2      0.23      0.00
    4    8    2     -0.86      0.00
    5    8    2      1.60      0.00
    6    8    2     -0.17      0.00
    7    8    2      0.15      0.00
  -10    9    2     -0.60      0.00
   -9    9    2      0.25      0.00
   -8    9    2     -0.24      0.00
   -7    9    2      0.05      0.00
   -6    9    2     -0.35      0.00
   -5    9    2      0.07      0.00
   -4    9    2      1.97      0.00
   -3    9    2      0.85      0.00
   -2    9    2      1.27      0.00
   -1    9    2      0.74      0.00
    0    9    2      1.58      0.00
    1    9    2     -1.88      0.00
    2    9    2      0.73      0.00
    3    9    2     -1.13      0.00
    4    9    2      0.42      0.00
    5    9    2      0.91      0.00
    6    9    2     -0.59      0.00
  -10   10    2      0.30      0.00
   -9   10    2      0.10      0.00
   -8   10    2      0.16      0.00
   -7   10    2     -0.23      0.00
   -6   10    2     -0.43      0.00
   -5   10    2      0.55      0.00
   -4   10    2      1.43      0.00
   -3   10    2      1.22      0.00
   -2   10    2     -0.11      0.00
   -1   10    2     -1.75      0.00
    0   10    2      0.92      0.00
    1   10    2     -0.75      0.00
    2   10    2      0.41      0.00
    3   10    2     -1.23      0.00
    4   10    2      0.18      0.00
    5   10    2      0.10      0.00
   -9   11    2      0.21      0.00
   -8   11    2      0.13      0.00
   -7   11    2      0.85      0.00
   -6   11    2      0.10      0.00
   -5   11    2      0.37      0.00
   -4   11    2      0.74      0.00
   -3   11    2      0.17      0.00
   -2   11    2     -1.04      0.00
   -1   11    2     -0.40      0.00
    0   11    2     -0.47      0.00
    1   11    2     -0.49      0.00
    2   11    2      0.67      0.00
    3   11    2     -0.13      0.00
    4   11    2      0.07      0.00
   -8   12    2     -0.12      0.00
   -7   12    2      0.45      0.00
   -6   12    2     -0.46      0.00
   -5   12    2      0.41      0.00
   -4   12    2     -0.55      0.00
   -3   12    2      0.02      0.00
   -2   12    2     -1.40      0.00
   -1   12    2     -0.74      0.00
    0   12    2      0.26      0.00
    1   12    2     -0.10      0.00
    2   12    2     -0.13      0.00
    3   12    2     -1.07      0.00
   -6   13    2      0.27      0.00
   -5   13    2     -0.45      0.00
   -4   13    2     -0.70      0.00
   -3   13    2     -0.03      0.00
   -2   13    2     -0.15      0.00
   -1   13    2     -0.21      0.00
    0   13    2     -0.09      0.00
    1   13    2     -0.16      0.00
    1  -14    3     -0.96      0.00
    2  -14    3      0.09      0.00
   -2  -13    3      0.14      0.00
   -1  -13    3      0.63      0.00
    0  -13    3      0.21      0.00
    1  -13    3      0.27      0.00
    2  -13    3     -0.74      0.00
    3  -13    3      0.41      0.00
    4  -13    3      1.64      0.00
    5  -13    3     -0.32      0.00
    6  -13    3      1.24      0.00
   -4  -12    3     -0.04      0.00
   -3  -12    3     -0.15      0.00
   -2  -12    3     -0.33      0.00
   -1  -12    3      0.55      0.00
    0  -12    3      0.03      0.00
    1  -12    3     -0.12      0.00
    2  -12    3      0.50      0.00
    3  -12    3      1.35      0.00
    4  -12    3      0.25      0.00
    5  -12    3     -0.36      0.00
    6  -12    3     -0.50      0.00
    7  -12    3     -1.22      0.00
   -6  -11    3     -0.42      0.00
   -5  -11    3     -0.06      0.00
   -4  -11    3     -0.08      0.00
   -3  -11    3     -0.64      0.00
   -2  -11    3     -1.27      0.00
   -1  -11    3      0.09      0.00
    0  -11    3      1.22      0.00
    1  -11    3      1.18      0.00
    2  -11    3     -0.25      0.00
    3  -11    3      0.21      0.00
    4  -11    3      0.92      0.00
    5  -11    3     -0.03      0.00
    6  -11    3      0.00      0.00
    7  -11    3      1.08      0.00
    8  -11    3      0.18      0.00
   -7  -10    3     -0.58      0.00
   -6  -10    3      0.14      0.00
   -5  -10    3      0.33      0.00
   -4  -10    3      0.26      0.00
   -3  -10    3     -0.60      0.00
   -2  -10    3     -0.74      0.00
   -1  -10    3      1.53      0.00
    0  -10    3      0.44      0.00
    1  -10    3      0.50      0.00
    2  -10    3     -0.47      0.00
    3  -10    3     -0.17      0.00
    4  -10    3     -0.65      0.00
    5  -10    3      0.18      0.00
    6  -10    3     -0.47      0.00
    7  -10    3     -1.69      0.00
    8  -10    3     -0.15      0.00
    9  -10    3     -0.08      0.00
   -8   -9    3     -1.25      0.00
   -7   -9    3      0.29      0.00
   -6   -9    3      0.32      0.00
   -5   -9    3     -0.29      0.00
   -4   -9    3      0.96      0.00
   -3   -9    3     -0.56      0.00
   -2   -9    3     -0.20      0.00
   -1   -9    3      0.22      0.00
    0   -9    3      0.86      0.00
    1   -9    3      1.87      0.00
    2   -9    3     -3.12      0.00
    3   -9    3     -0.96      0.00
    4   -9    3     -0.06      0.00
    5   -9    3      0.25      0.00
    6   -9    3     -0.77      0.00
    7   -9    3     -0.28      0.00
    8   -9    3      0.14      0.00
    9   -9    3      0.49      0.00
   -8   -8    3      0.99      0.00
   -7   -8    3     -0.30      0.00
   -6   -8    3      0.45      0.00
   -5   -8    3     -0.64      0.00
   -4   -8    3      1.88      0.00
   -3   -8    3     -0.49      0.00
   -2   -8    3      1.04      0.00
   -1   -8    3      0.12      0.00
    0   -8    3      1.47      0.00
    1   -8    3     -1.46      0.00
    2   -8    3     -1.57      0.00
    3   -8    3     -1.76      0.00
    4   -8    3     -0.07      0.00
    5   -8    3      0.92      0.00
    6   -8    3     -0.84      0.00
    7   -8    3      0.22      0.00
    8   -8    3     -0.19      0.00
    9   -8    3     -0.18      0.00
   10   -8    3     -1.37      0.00
   -9   -7    3     -0.05      0.00
   -8   -7    3      0.02      0.00
   -7   -7    3     -0.30      0.00
   -6   -7    3      0.53      0.00
   -5   -7    3     -1.37      0.00
   -4   -7    3      2.53      0.00
   -3   -7    3     -1.56      0.00
   -2   -7    3      0.85      0.00
   -1   -7    3     -6.04      0.00
    0   -7    3      1.17      0.00
    1   -7    3      0.34      0.00
    2   -7    3     -2.49      0.00
    3   -7    3     -2.09      0.00
    4   -7    3      0.63      0.00
    5   -7    3      0.80      0.00
    6   -7    3     -0.61      0.00
    7   -7    3      0.21      0.00
    8   -7    3      0.00      0.00
    9   -7    3      0.24      0.00
   10   -7    3     -0.21      0.00
  -10   -6    3     -0.73      0.00
   -9   -6    3     -0.02      0.00
   -8   -6    3     -0.01      0.00
   -7   -6    3      0.40      0.00
   -6   -6    3     -0.66      0.00
   -5   -6    3     -0.11      0.00
   -4   -6    3      1.64      0.00
   -3   -6    3     -1.28      0.00
   -2   -6    3     -0.21      0.00
   -1   -6    3     -4.03      0.00
    0   -6    3      2.56      0.00
    1   -6    3     -6.31      0.00
    2   -6    3      2.99      0.00
    3   -6    3     -0.41      0.00
    4   -6    3      1.57      0.00
    5   -6    3      1.02      0.00
    6   -6    3      0.45      0.00
    7   -6    3      0.19      0.00
    8   -6    3      0.27      0.00
    9   -6    3     -0.02      0.00
   10   -6    3     -0.71      0.00
  -10   -5    3     -0.84      0.00
   -9   -5    3      0.73      0.00
   -8   -5    3     -0.32      0.00
   -7   -5    3      1.46      0.00
   -6   -5    3     -1.97      0.00
   -5   -5    3      0.45      0.00
   -4   -5    3      0.58      0.00
   -3   -5    3     -0.99      0.00
   -2   -5    3     -1.73      0.00
   -1   -5    3    -10.87      0.00
    0   -5    3      2.52      0.00
    1   -5    3      5.72      0.00
    2   -5    3      4.00      0.00
    3   -5    3     -3.07      0.00
    4   -5    3      3.88      0.00
    5   -5    3      0.39      0.00
    6   -5    3      1.27      0.00
    7   -5    3      0.47      0.00
    8   -5    3      0.11      0.00
    9   -5    3      0.39      0.00
   10   -5    3     -0.41      0.00
   11   -5    3     -0.31      0.00
  -11   -4    3     -0.57      0.00
  -10   -4    3     -0.13      0.00
   -9   -4    3      1.04      0.00
   -8   -4    3     -1.13      0.00
   -7   -4    3      1.29      0.00
   -6   -4    3     -3.40      0.00
   -5   -4    3      1.32      0.00
   -4   -4    3     -2.09      0.00
   -3   -4    3      1.57      0.00
   -2   -4    3     -5.77      0.00
   -1   -4    3      0.20      0.00
    0   -4    3     11.98      0.00
    1   -4    3      3.87      0.00
    2   -4    3      5.99      0.00
    3   -4    3     -3.22      0.00
    4   -4    3      1.99      0.00
    5   -4    3      0.18      0.00
    6   -4    3      1.25      0.00
    7   -4    3     -1.10      0.00
    8   -4    3     -0.12      0.00
    9   -4    3      0.06      0.00
   10   -4    3     -0.35      0.00
   11   -4    3      0.15      0.00
  -11   -3    3      0.00      0.00
  -10   -3    3      0.11      0.00
   -9   -3    3      0.26      0.00
   -8   -3    3     -0.54      0.00
   -7   -3    3      1.42      0.00
   -6   -3    3     -2.38      0.00
   -5   -3    3      0.85      0.00
   -4   -3    3     -2.41      0.00
   -3   -3    3      7.44      0.00
   -2   -3    3     -4.58      0.00
   -1   -3    3      3.18      0.00
    0   -3    3     -0.05      0.00
    1   -3    3     16.24      0.00
    2   -3    3      2.09      0.00
    3   -3    3     -4.97      0.00
    4   -3    3      0.94      0.00
    5   -3    3     -1.10      0.00
    6   -3    3      1.41      0.00
    7   -3    3     -1.61      0.00
    8   -3    3      0.42      0.00
    9   -3    3      0.17      0.00
   10   -3    3      0.12      0.00
   11   -3    3      0.02      0.00
  -11   -2    3     -0.46      0.00
  -10   -2    3     -0.08      0.00
   -9   -2    3     -0.67      0.00
   -8   -2    3     -0.12      0.00
   -7   -2    3      0.09      0.00
   -6   -2    3     -2.73      0.00
   -5   -2    3     -0.05      0.00
   -4   -2    3     -1.58      0.00
   -3   -2    3     10.73      0.00
   -2   -2    3    -11.36      0.00
   -1   -2    3     13.63      0.00
    0   -2    3      8.27      0.00
    1   -2    3      8.39      0.00
    2   -2    3     -5.42      0.00
    3   -2    3     -5.30      0.00
    4   -2    3     -1.01      0.00
    5   -2    3     -0.72      0.00
    6   -2    3      0.16      0.00
    7   -2    3     -1.42      0.00
    8   -2    3     -0.28      0.00
    9   -2    3     -0.27      0.00
   10   -2    3      0.42      0.00
   11   -2    3      0.64      0.00
  -12   -1    3     -0.01      0.00
  -11   -1    3      0.49      0.00
  -10   -1    3      0.18      0.00
   -9   -1    3     -0.99      0.00
   -8   -1    3      0.94      0.00
   -7   -1    3     -0.74      0.00
   -6   -1    3      0.14      0.00
   -5   -1    3     -0.23      0.00
   -4   -1    3     -0.19      0.00
   -3   -1    3     10.74      0.00
   -2   -1    3     -7.46      0.00
   -1   -1    3      2.21      0.00
    0   -1    3    -44.30      0.00
    1   -1    3     21.25      0.00
    2   -1    3     -5.24      0.00
    3   -1    3     -2.49      0.00
    4   -1    3     -3.61      0.00
    5   -1    3      1.25      0.00
    6   -1    3     -0.14      0.00
    7   -1    3     -1.10      0.00
    8   -1    3      0.08      0.00
    9   -1    3      0.79      0.00
   10   -1    3      0.36      0.00
   11   -1    3     -0.61      0.00
  -12    0    3     -0.63      0.00
  -11    0    3      0.79      0.00
  -10    0    3     -0.23      0.00
   -9    0    3     -1.08      0.00
   -8    0    3      1.32      0.00
   -7    0    3     -0.25      0.00
   -6    0    3      1.18      0.00
   -5    0    3     -3.10      0.00
   -4    0    3      5.65      0.00
   -3    0    3      6.75      0.00
   -2    0    3     -3.38      0.00
   -1    0    3    -22.39      0.00
    0    0    3     -3.27      0.00
    1    0    3      4.05      0.00
    2    0    3     -8.72      0.00
    3    0    3      0.55      0.00
    4    0    3     -2.86      0.00
    5    0    3      1.75      0.00
    6    0    3     -1.18      0.00
    7    0    3      0.08      0.00
    8    0    3      0.30      0.00
    9    0    3      0.14      0.00
   10    0    3      0.66      0.00
  -12    1    3      0.31      0.00
  -11    1    3      1.71      0.00
  -10    1    3      0.25      0.00
   -9    1    3     -0.29      0.00
   -8    1    3      0.89      0.00
   -7    1    3     -0.54      0.00
   -6    1    3      1.87      0.00
   -5    1    3     -3.22      0.00
   -4    1    3      5.37      0.00
   -3    1    3      0.56      0.00
   -2    1    3     -5.61      0.00
   -1    1    3    -23.93      0.00
    0    1    3    -30.78      0.00
    1    1    3     13.82      0.00
    2    1    3     -1.88      0.00
    3    1    3      1.54      0.00
    4    1    3     -3.79      0.00
    5    1    3      3.93      0.00
    6    1    3     -1.05      0.00
    7    1    3      0.88      0.00
    8    1    3     -0.08      0.00
    9    1    3      0.34      0.00
   10    1    3     -0.30      0.00
  -12    2    3      0.23      0.00
  -11    2    3     -0.16      0.00
  -10    2    3     -0.21      0.00
   -9    2    3     -0.25      0.00
   -8    2    3      0.74      0.00
   -7    2    3      0.55      0.00
   -6    2    3      2.15      0.00
   -5    2    3     -5.10      0.00
   -4    2    3      6.10      0.00
   -3    2    3     -6.17      0.00
   -2    2    3      3.27      0.00
   -1    2    3    -28.28      0.00
    0    2    3      7.34      0.00
    1    2    3     -0.92      0.00
    2    2    3      3.08      0.00
    3    2    3      2.31      0.00
    4    2    3     -1.82      0.00
    5    2    3      2.37      0.00
    6    2    3      0.48      0.00
    7    2    3      0.87      0.00
    8    2    3      0.01      0.00
    9    2    3     -0.72      0.00
   10    2    3      0.19      0.00
  -12    3    3     -0.01      0.00
  -11    3    3      0.28      0.00
  -10    3    3     -0.27      0.00
   -9    3    3     -0.35      0.00
   -8    3    3     -0.78      0.00
   -7    3    3      0.92      0.00
   -6    3    3     -0.45      0.00
   -5    3    3     -3.97      0.00
   -4    3    3     -0.11      0.00
   -3    3    3     -5.73      0.00
   -2    3    3      4.69      0.00
   -1    3    3    -13.42      0.00
    0    3    3      2.60      0.00
    1    3    3      3.38      0.00
    2    3    3      6.87      0.00
    3    3    3      0.17      0.00
    4    3    3     -1.50      0.00
    5    3    3      1.95      0.00
    6    3    3     -0.26      0.00
    7    3    3      0.71      0.00
    8    3    3     -0.05      0.00
    9    3    3     -0.65      0.00
   10    3    3     -0.31      0.00
  -12    4    3     -0.30      0.00
  -11    4    3     -1.16      0.00
  -10    4    3     -0.10      0.00
   -9    4    3     -0.35      0.00
   -8    4    3     -0.93      0.00
   -7    4    3      0.96      0.00
   -6    4    3     -0.69      0.00
   -5    4    3     -3.30      0.00
   -4    4    3     -3.28      0.00
   -3    4    3     -2.24      0.00
   -2    4    3      4.54      0.00
   -1    4    3     -7.11      0.00
    0    4    3     13.31      0.00
    1    4    3     -1.19      0.00
    2    4    3      4.72      0.00
    3    4    3     -2.37      0.00
    4    4    3      0.82      0.00
    5    4    3      0.32      0.00
    6    4    3      0.58      0.00
    7    4    3     -0.28      0.00
    8    4    3     -0.60      0.00
    9    4    3     -0.51      0.00
  -12    5    3      0.00      0.00
  -11    5    3     -0.24      0.00
  -10    5    3     -0.27      0.00
   -9    5    3     -0.33      0.00
   -8    5    3     -1.07      0.00
   -7    5    3      1.25      0.00
   -6    5    3     -1.25      0.00
   -5    5    3     -1.62      0.00
   -4    5    3     -2.46      0.00
   -3    5    3      1.24      0.00
   -2    5    3      2.66      0.00
   -1    5    3      4.76      0.00
    0    5    3     -1.60      0.00
    1    5    3     -2.58      0.00
    2    5    3      5.37      0.00
    3    5    3     -1.17      0.00
    4    5    3     -0.41      0.00
    5    5    3     -2.22      0.00
    6    5    3      0.36      0.00
    7    5    3      0.81      0.00
    8    5    3      0.36      0.00
    9    5    3     -0.24      0.00
  -12    6    3      0.00      0.00
  -11    6    3     -0.06      0.00
  -10    6    3     -0.31      0.00
   -9    6    3      0.13      0.00
   -8    6    3     -0.88      0.00
   -7    6    3      0.90      0.00
   -6    6    3     -1.04      0.00
   -5    6    3      0.78      0.00
   -4    6    3     -1.20      0.00
   -3    6    3      4.93      0.00
   -2    6    3      3.20      0.00
   -1    6    3     -0.83      0.00
    0    6    3      3.06      0.00
    1    6    3     -1.11      0.00
    2    6    3      0.66      0.00
    3    6    3     -2.95      0.00
    4    6    3      0.60      0.00
    5    6    3     -0.15      0.00
    6    6    3      0.54      0.00
    7    6    3     -0.57      0.00
    8    6    3     -0.20      0.00
  -11    7    3     -0.12      0.00
  -10    7    3     -0.34      0.00
   -9    7    3     -0.29      0.00
   -8    7    3     -0.48      0.00
   -7    7    3      0.54      0.00
   -6    7    3      0.05      0.00
   -5    7    3      1.13      0.00
   -4    7    3     -0.39      0.00
   -3    7    3      4.25      0.00
   -2    7    3      0.48      0.00
   -1    7    3      1.43      0.00
    0    7    3     -5.17      0.00
    1    7    3     -2.26      0.00
    2    7    3      0.68      0.00
    3    7    3     -1.36      0.00
    4    7    3      0.73      0.00
    5    7    3     -2.06      0.00
    6    7    3      0.28      0.00
    7    7    3      0.49      0.00
  -11    8    3     -0.25      0.00
  -10    8    3     -0.24      0.00
   -9    8    3      0.00      0.00
   -8    8    3     -0.04      0.00
   -7    8    3     -0.03      0.00
   -6    8    3      0.51      0.00
   -5    8    3      0.52      0.00
   -4    8    3     -0.49      0.00
   -3    8    3      2.75      0.00
   -2    8    3     -1.70      0.00
   -1    8    3     -0.99      0.00
    0    8    3     -2.74      0.00
    1    8    3      1.34      0.00
    2    8    3     -0.71      0.00
    3    8    3      1.14      0.00
    4    8    3     -0.46      0.00
    5    8    3     -0.65      0.00
    6    8    3      1.03      0.00
    7    8    3     -0.54      0.00
  -10    9    3     -0.55      0.00
   -9    9    3     -0.20      0.00
   -8    9    3     -0.27      0.00
   -7    9    3      0.15      0.00
   -6    9    3      0.75      0.00
   -5    9    3     -0.28      0.00
   -4    9    3     -1.25      0.00
   -3    9    3      0.14      0.00
   -2    9    3     -1.28      0.00
   -1    9    3      0.77      0.00
    0    9    3     -2.97      0.00
    1    9    3      0.84      0.00
    2    9    3     -0.36      0.00
    3    9    3      0.79      0.00
    4    9    3     -0.27      0.00
    5    9    3     -1.27      0.00
    6    9    3      0.09      0.00
  -10   10    3     -0.16      0.00
   -9   10    3     -0.29      0.00
   -8   10    3     -0.25      0.00
   -7   10    3     -0.08      0.00
   -6   10    3      0.68      0.00
   -5   10    3     -0.46      0.00
   -4   10    3     -1.32      0.00
   -3   10    3     -0.87      0.00
   -2   10    3      0.20      0.00
   -1   10    3     -0.81      0.00
    0   10    3     -0.38      0.00
    1   10    3      1.22      0.00
    2   10    3     -0.41      0.00
    3   10    3      0.31      0.00
    4   10    3     -0.91      0.00
    5   10    3     -0.02      0.00
   -9   11    3     -0.05      0.00
   -8   11    3      0.37      0.00
   -7   11    3     -0.07      0.00
   -6   11    3      0.56      0.00
   -5   11    3     -0.87      0.00
   -4   11    3     -0.30      0.00
   -3   11    3     -0.81      0.00
   -2   11    3      1.57      0.00
   -1   11    3      0.49      0.00
    0   11    3     -0.35      0.00
    1   11    3      0.40      0.00
    2   11    3      0.54      0.00
    3   11    3      1.67      0.00
    4   11    3      0.01      0.00
   -8   12    3     -0.04      0.00
   -7   12    3     -0.84      0.00
   -6   12    3     -0.43      0.00
   -5   12    3      0.49      0.00
   -4   12    3     -0.06      0.00
   -3   12    3      0.61      0.00
   -2   12    3      0.44      0.00
   -1   12    3      0.02      0.00
    0   12    3      0.09      0.00
    1   12    3      0.34      0.00
    2   12    3     -0.16      0.00
   -6   13    3      0.49      0.00
   -5   13    3     -0.18      0.00
   -4   13    3     -0.19      0.00
   -3   13    3      0.30      0.00
   -2   13    3      0.32      0.00
   -1   13    3      0.15      0.00
    0   13    3      0.03      0.00
   -2  -13    4     -0.02      0.00
   -1  -13    4      0.17      0.00
    0  -13    4     -0.06      0.00
    1  -13    4      1.09      0.00
    2  -13    4     -0.46      0.00
    3  -13    4     -0.36      0.00
    4  -13    4     -0.13      0.00
    5  -13    4      0.22      0.00
   -4  -12    4     -0.04      0.00
   -3  -12    4      0.85      0.00
   -2  -12    4      0.62      0.00
   -1  -12    4     -0.28      0.00
    0  -12    4     -0.43      0.00
    1  -12    4     -0.54      0.00
    2  -12    4      0.03      0.00
    3  -12    4     -0.57      0.00
    4  -12    4     -1.02      0.00
    5  -12    4      0.37      0.00
    6  -12    4     -0.71      0.00
    7  -12    4     -0.80      0.00
   -6  -11    4     -0.36      0.00
   -5  -11    4     -0.47      0.00
   -4  -11    4      0.23      0.00
   -3  -11    4      0.67      0.00
   -2  -11    4      0.59      0.00
   -1  -11    4     -1.41      0.00
    0  -11    4     -0.15      0.00
    1  -11    4     -0.49      0.00
    2  -11    4     -0.13      0.00
    3  -11    4     -0.79      0.00
    4  -11    4      0.47      0.00
    5  -11    4      0.61      0.00
    6  -11    4      0.33      0.00
    7  -11    4      1.33      0.00
    8  -11    4     -0.19      0.00
   -7  -10    4     -0.65      0.00
   -6  -10    4      0.24      0.00
   -5  -10    4      0.08      0.00
   -4  -10    4     -0.19      0.00
   -3  -10    4      0.75      0.00
   -2  -10    4      1.01      0.00
   -1  -10    4     -0.40      0.00
    0  -10    4     -1.31      0.00
    1  -10    4     -1.26      0.00
    2  -10    4      1.73      0.00
    3  -10    4     -0.13      0.00
    4  -10    4     -0.52      0.00
    5  -10    4     -0.01      0.00
    6  -10    4      0.33      0.00
    7  -10    4     -0.78      0.00
    8  -10    4      0.00      0.00
   -8   -9    4     -1.22      0.00
   -7   -9    4      0.73      0.00
   -6   -9    4     -0.19      0.00
   -5   -9    4      0.09      0.00
   -4   -9    4     -1.37      0.00
   -3   -9    4      0.92      0.00
   -2   -9    4     -0.40      0.00
   -1   -9    4     -1.44      0.00
    0   -9    4     -1.21      0.00
    1   -9    4      0.64      0.00
    2   -9    4      0.78      0.00
    3   -9    4      0.77      0.00
    4   -9    4      0.15      0.00
    5   -9    4     -0.38      0.00
    6   -9    4      0.77      0.00
    7   -9    4      0.68      0.00
    8   -9    4      0.42      0.00
    9   -9    4      0.54      0.00
   -9   -8    4      0.02      0.00
   -8   -8    4      1.03      0.00
   -7   -8    4      0.48      0.00
   -6   -8    4     -0.59      0.00
   -5   -8    4      0.74      0.00
   -4   -8    4     -2.15      0.00
   -3   -8    4      1.82      0.00
   -2   -8    4     -0.90      0.00
   -1   -8    4      1.13      0.00
    0   -8    4     -2.26      0.00
    1   -8    4     -0.65      0.00
    2   -8    4      3.60      0.00
    3   -8    4      1.40      0.00
    4   -8    4     -0.24      0.00
    5   -8    4     -0.11      0.00
    6   -8    4      0.97      0.00
    7   -8    4      0.42      0.00
    8   -8    4     -0.24      0.00
    9   -8    4     -0.30      0.00
   -9   -7    4      0.47      0.00
   -8   -7    4     -1.27      0.00
   -7   -7    4      0.17      0.00
   -6   -7    4     -0.46      0.00
   -5   -7    4      0.09      0.00
   -4   -7    4     -1.91      0.00
   -3   -7    4      1.14      0.00
   -2   -7    4     -1.50      0.00
   -1   -7    4      0.23      0.00
    0   -7    4     -1.23      0.00
    1   -7    4      4.64      0.00
    2   -7    4      0.35      0.00
    3   -7    4      0.99      0.00
    4   -7    4     -1.13      0.00
    5   -7    4     -0.16      0.00
    6   -7    4      0.47      0.00
    7   -7    4     -0.81      0.00
    8   -7    4      0.09      0.00
    9   -7    4      0.63      0.00
   10   -7    4      1.02      0.00
  -10   -6    4      1.39      0.00
   -9   -6    4     -0.52      0.00
   -8   -6    4      0.18      0.00
   -7   -6    4     -0.15      0.00
   -6   -6    4      1.14      0.00
   -5   -6    4      0.16      0.00
   -4   -6    4     -1.62      0.00
   -3   -6    4      1.70      0.00
   -2   -6    4      0.85      0.00
   -1   -6    4      8.34      0.00
    0   -6    4     -1.70      0.00
    1   -6    4     -0.83      0.00
    2   -6    4      0.88      0.00
    3   -6    4      2.77      0.00
    4   -6    4     -2.78      0.00
    5   -6    4     -0.78      0.00
    6   -6    4     -0.22      0.00
    7   -6    4     -0.74      0.00
    8   -6    4      0.06      0.00
    9   -6    4     -0.62      0.00
   10   -6    4      0.22      0.00
  -10   -5    4      0.26      0.00
   -9   -5    4     -1.13      0.00
   -8   -5    4      0.62      0.00
   -7   -5    4     -1.24      0.00
   -6   -5    4      2.33      0.00
   -5   -5    4     -1.84      0.00
   -4   -5    4     -0.29      0.00
   -3   -5    4      0.88      0.00
   -2   -5    4      3.38      0.00
   -1   -5    4      3.37      0.00
    0   -5    4     -4.80      0.00
    1   -5    4      4.77      0.00
    2   -5    4     -4.59      0.00
    3   -5    4      0.16      0.00
    4   -5    4     -2.47      0.00
    5   -5    4     -0.46      0.00
    6   -5    4     -0.86      0.00
    7   -5    4      0.10      0.00
    8   -5    4     -0.70      0.00
    9   -5    4     -0.14      0.00
   10   -5    4      0.60      0.00
  -11   -4    4     -0.09      0.00
  -10   -4    4      0.32      0.00
   -9   -4    4     -0.92      0.00
   -8   -4    4      0.64      0.00
   -7   -4    4     -1.34      0.00
   -6   -4    4      2.46      0.00
   -5   -4    4     -1.59      0.00
   -4   -4    4      0.94      0.00
   -3   -4    4     -1.67      0.00
   -2   -4    4      5.54      0.00
   -1   -4    4      2.87      0.00
    0   -4    4     -5.08      0.00
    1   -4    4     -8.85      0.00
    2   -4    4     -1.77      0.00
    3   -4    4      3.53      0.00
    4   -4    4     -3.77      0.00
    5   -4    4     -0.13      0.00
    6   -4    4     -1.41      0.00
    7   -4    4      0.41      0.00
    8   -4    4     -0.69      0.00
    9   -4    4     -0.22      0.00
   10   -4    4     -0.13      0.00
  -11   -3    4      0.63      0.00
  -10   -3    4     -0.36      0.00
   -9   -3    4     -0.47      0.00
   -8   -3    4      0.39      0.00
   -7   -3    4     -0.48      0.00
   -6   -3    4      3.30      0.00
   -5   -3    4     -1.93      0.00
   -4   -3    4      2.10      0.00
   -3   -3    4     -4.86      0.00
   -2   -3    4     10.04      0.00
   -1   -3    4     -9.93      0.00
    0   -3    4    -10.30      0.00
    1   -3    4     -4.84      0.00
    2   -3    4      0.24      0.00
    3   -3    4      3.99      0.00
    4   -3    4     -1.29      0.00
    5   -3    4     -0.10      0.00
    6   -3    4     -0.18      0.00
    7   -3    4      0.82      0.00
    8   -3    4     -0.24      0.00
    9   -3    4      0.01      0.00
   10   -3    4     -0.23      0.00
  -11   -2    4      0.17      0.00
  -10   -2    4     -0.05      0.00
   -9   -2    4      0.53      0.00
   -8   -2    4     -0.42      0.00
   -7   -2    4      0.61      0.00
   -6   -2    4      1.12      0.00
   -5   -2    4     -0.75      0.00
   -4   -2    4      1.14      0.00
   -3   -2    4     -8.59      0.00
   -2   -2    4      5.84      0.00
   -1   -2    4     -8.77      0.00
    0   -2    4      6.37      0.00
    1   -2    4    -14.78      0.00
    2   -2    4      5.37      0.00
    3   -2    4      3.23      0.00
    4   -2    4      0.96      0.00
    5   -2    4     -0.66      0.00
    6   -2    4     -0.27      0.00
    7   -2    4      1.55      0.00
    8   -2    4     -0.51      0.00
    9   -2    4     -0.25      0.00
   10   -2    4     -0.33      0.00
  -12   -1    4      1.67      0.00
  -11   -1    4      0.13      0.00
  -10   -1    4      0.17      0.00
   -9   -1    4      1.50      0.00
   -8   -1    4     -1.12      0.00
   -7   -1    4      0.72      0.00
   -6   -1    4      0.67      0.00
   -5   -1    4      1.20      0.00
   -4   -1    4     -3.37      0.00
   -3   -1    4     -7.68      0.00
   -2   -1    4      7.39      0.00
   -1   -1    4     -4.20      0.00
    0   -1    4     -3.40      0.00
    1   -1    4     -3.88      0.00
    2   -1    4      8.47      0.00
    3   -1    4      1.81      0.00
    4   -1    4      1.77      0.00
    5   -1    4     -0.93      0.00
    6   -1    4      1.76      0.00
    7   -1    4      0.56      0.00
    8   -1    4     -0.61      0.00
    9   -1    4     -0.11      0.00
   10   -1    4     -0.63      0.00
  -12    0    4     -0.39      0.00
  -11    0    4     -1.11      0.00
  -10    0    4     -0.21      0.00
   -9    0    4      0.62      0.00
   -8    0    4     -1.66      0.00
   -7    0    4      1.63      0.00
   -6    0    4     -1.16      0.00
   -5    0    4      1.48      0.00
   -4    0    4     -5.55      0.00
   -3    0    4     -5.42      0.00
   -2    0    4      3.50      0.00
   -1    0    4      8.90      0.00
    0    0    4     20.38      0.00
    1    0    4    -12.03      0.00
    2    0    4      6.74      0.00
    3    0    4      0.79      0.00
    4    0    4      3.74      0.00
    5    0    4     -2.93      0.00
    6    0    4      1.13      0.00
    7    0    4      0.18      0.00
    8    0    4     -0.06      0.00
    9    0    4     -0.10      0.00
   10    0    4      0.24      0.00
  -12    1    4      0.18      0.00
  -11    1    4     -0.37      0.00
  -10    1    4      0.42      0.00
   -9    1    4      0.52      0.00
   -8    1    4     -1.46      0.00
   -7    1    4     -0.01      0.00
   -6    1    4     -2.01      0.00
   -5    1    4      3.28      0.00
   -4    1    4    -10.80      0.00
   -3    1    4      2.58      0.00
   -2    1    4     -0.49      0.00
   -1    1    4     22.69      0.00
    0    1    4     -2.75      0.00
    1    1    4      1.91      0.00
    2    1    4      3.08      0.00
    3    1    4     -2.01      0.00
    4    1    4      2.05      0.00
    5    1    4     -2.13      0.00
    6    1    4      0.84      0.00
    7    1    4     -0.39      0.00
    8    1    4     -0.52      0.00
    9    1    4     -0.04      0.00
   10    1    4     -0.48      0.00
  -12    2    4     -0.69      0.00
  -11    2    4     -1.13      0.00
  -10    2    4      0.01      0.00
   -9    2    4     -0.06      0.00
   -8    2    4     -0.59      0.00
   -7    2    4     -0.25      0.00
   -6    2    4     -0.60      0.00
   -5    2    4      2.91      0.00
   -4    2    4     -3.70      0.00
   -3    2    4      3.04      0.00
   -2    2    4      0.74      0.00
   -1    2    4     20.35      0.00
    0    2    4      3.80      0.00
    1    2    4     -5.02      0.00
    2    2    4     -2.44      0.00
    3    2    4     -0.30      0.00
    4    2    4      2.46      0.00
    5    2    4     -2.87      0.00
    6    2    4      0.34      0.00
    7    2    4     -0.64      0.00
    8    2    4      0.40      0.00
    9    2    4      0.48      0.00
   10    2    4      0.15      0.00
  -12    3    4     -0.17      0.00
  -11    3    4      1.21      0.00
  -10    3    4      0.12      0.00
   -9    3    4      0.23      0.00
   -8    3    4      0.07      0.00
   -7    3    4     -0.92      0.00
   -6    3    4      0.27      0.00
   -5    3    4      3.94      0.00
   -4    3    4     -1.44      0.00
   -3    3    4      5.17      0.00
   -2    3    4      0.24      0.00
   -1    3    4     14.52      0.00
    0    3    4    -11.94      0.00
    1    3    4      1.90      0.00
    2    3    4     -4.07      0.00
    3    3    4      1.06      0.00
    4    3    4     -1.16      0.00
    5    3    4     -1.25      0.00
    6    3    4     -1.03      0.00
    7    3    4      0.15      0.00
    8    3    4      0.32      0.00
    9    3    4      0.14      0.00
  -12    4    4      0.21      0.00
  -11    4    4      0.17      0.00
  -10    4    4      0.41      0.00
   -9    4    4      0.04      0.00
   -8    4    4      0.85      0.00
   -7    4    4     -1.47      0.00
   -6    4    4      2.53      0.00
   -5    4    4      3.36      0.00
   -4    4    4      3.14      0.00
   -3    4    4      2.57      0.00
   -2    4    4      0.13      0.00
   -1    4    4      0.78      0.00
    0    4    4     -0.31      0.00
    1    4    4     -1.89      0.00
    2    4    4     -7.27      0.00
    3    4    4      0.96      0.00
    4    4    4      0.68      0.00
    5    4    4      0.49      0.00
    6    4    4     -0.58      0.00
    7    4    4     -0.93      0.00
    8    4    4      0.10      0.00
    9    4    4      0.62      0.00
  -12    5    4      0.18      0.00
  -11    5    4      0.37      0.00
  -10    5    4      0.09      0.00
   -9    5    4      0.19      0.00
   -8    5    4      1.13      0.00
   -7    5    4     -1.09      0.00
   -6    5    4      2.23      0.00
   -5    5    4      1.06      0.00
   -4    5    4      3.22      0.00
   -3    5    4     -2.01      0.00
   -2    5    4     -2.97      0.00
   -1    5    4      2.37      0.00
    0    5    4     -9.14      0.00
    1    5    4      0.11      0.00
    2    5    4     -1.40      0.00
    3    5    4      3.58      0.00
    4    5    4     -1.23      0.00
    5    5    4     -0.13      0.00
    6    5    4     -0.45      0.00
    7    5    4      0.22      0.00
    8    5    4      0.56      0.00
  -12    6    4      0.11      0.00
  -11    6    4      0.25      0.00
  -10    6    4      0.23      0.00
   -9    6    4      0.32      0.00
   -8    6    4      0.36      0.00
   -7    6    4     -0.82      0.00
   -6    6    4      1.29      0.00
   -5    6    4      0.06      0.00
   -4    6    4      1.10      0.00
   -3    6    4     -4.76      0.00
   -2    6    4     -0.91      0.00
   -1    6    4     -3.75      0.00
    0    6    4      2.83      0.00
    1    6    4      1.80      0.00
    2    6    4     -1.75      0.00
    3    6    4      1.93      0.00
    4    6    4     -0.49      0.00
    5    6    4      1.50      0.00
    6    6    4     -0.47      0.00
    7    6    4     -0.80      0.00
    8    6    4      0.33      0.00
  -11    7    4      0.07      0.00
  -10    7    4      0.37      0.00
   -9    7    4     -0.07      0.00
   -8    7    4      0.53      0.00
   -7    7    4     -0.35      0.00
   -6    7    4      0.17      0.00
   -5    7    4     -0.58      0.00
   -4    7    4     -0.21      0.00
   -3    7    4     -4.87      0.00
   -2    7    4      0.92      0.00
   -1    7    4     -0.34      0.00
    0    7    4      1.52      0.00
    1    7    4     -0.18      0.00
    2    7    4      0.42      0.00
    3    7    4     -0.38      0.00
    4    7    4      0.09      0.00
    5    7    4      0.74      0.00
    6    7    4     -0.82      0.00
    7    7    4      0.74      0.00
  -11    8    4      0.32      0.00
  -10    8    4      0.30      0.00
   -9    8    4      0.56      0.00
   -8    8    4      0.12      0.00
   -7    8    4      0.08      0.00
   -6    8    4     -0.22      0.00
   -5    8    4     -0.23      0.00
   -4    8    4      0.25      0.00
   -3    8    4     -2.88      0.00
   -2    8    4      0.84      0.00
   -1    8    4     -0.61      0.00
    0    8    4      4.32      0.00
    1    8    4     -0.63      0.00
    2    8    4      0.52      0.00
    3    8    4      0.14      0.00
    4    8    4      0.25      0.00
    5    8    4      1.54      0.00
    6    8    4     -0.50      0.00
  -10    9    4      0.56      0.00
   -9    9    4      0.31      0.00
   -8    9    4      0.47      0.00
   -7    9    4     -0.21      0.00
   -6    9    4     -1.09      0.00
   -5    9    4      0.47      0.00
   -4    9    4      0.64      0.00
   -3    9    4     -0.22      0.00
   -2    9    4      1.17      0.00
   -1    9    4      1.47      0.00
    0    9    4      1.32      0.00
    1    9    4     -1.76      0.00
    2    9    4      0.37      0.00
    3    9    4     -0.51      0.00
    4    9    4      1.29      0.00
    5    9    4     -0.40      0.00
  -10   10    4      0.61      0.00
   -9   10    4      0.25      0.00
   -8   10    4     -0.37      0.00
   -7   10    4     -0.24      0.00
   -6   10    4     -0.98      0.00
   -5   10    4      0.93      0.00
   -4   10    4      0.60      0.00
   -3   10    4      0.81      0.00
   -2   10    4     -0.30      0.00
   -1   10    4      0.14      0.00
    0   10    4      0.87      0.00
    1   10    4     -0.72      0.00
    2   10    4     -0.42      0.00
    3   10    4     -1.37      0.00
    4   10    4      0.35      0.00
   -9   11    4      0.05      0.00
   -8   11    4     -0.10      0.00
   -7   11    4      0.07      0.00
   -6   11    4     -0.39      0.00
   -5   11    4     -0.01      0.00
   -4   11    4      0.68      0.00
   -3   11    4     -0.04      0.00
   -2   11    4     -0.24      0.00
   -1   11    4      0.70      0.00
    0   11    4      0.20      0.00
    1   11    4     -0.49      0.00
    2   11    4     -0.18      0.00
    3   11    4      0.22      0.00
   -7   12    4      0.35      0.00
   -6   12    4     -0.37      0.00
   -5   12    4      1.00      0.00
   -4   12    4      0.40      0.00
   -3   12    4      0.14      0.00
   -2   12    4     -1.40      0.00
   -1   12    4      0.14      0.00
    0   12    4     -0.55      0.00
    1   12    4     -0.51      0.00
   -5   13    4     -0.62      0.00
   -4   13    4     -0.18      0.00
   -3   13    4     -0.41      0.00
   -2   13    4      0.28      0.00
   -1   13    4     -0.15      0.00
   -2  -13    5     -0.07      0.00
   -1  -13    5      0.51      0.00
    0  -13    5     -0.27      0.00
    1  -13    5      0.14      0.00
    2  -13    5     -0.27      0.00
    3  -13    5      0.45      0.00
    4  -13    5      0.60      0.00
    5  -13    5     -0.42      0.00
   -4  -12    5     -0.13      0.00
   -3  -12    5     -0.45      0.00
   -2  -12    5     -0.44      0.00
   -1  -12    5      0.22      0.00
    0  -12    5     -0.04      0.00
    1  -12    5     -0.26      0.00
    2  -12    5      0.09      0.00
    3  -12    5      0.50      0.00
    4  -12    5      0.06      0.00
    5  -12    5     -0.29      0.00
    6  -12    5     -0.50      0.00
   -6  -11    5     -0.52      0.00
   -5  -11    5      0.01      0.00
   -4  -11    5     -0.04      0.00
   -3  -11    5     -0.91      0.00
   -2  -11    5     -1.16      0.00
   -1  -11    5      0.09      0.00
    0  -11    5      1.02      0.00
    1  -11    5      0.37      0.00
    2  -11    5     -0.45      0.00
    3  -11    5      0.55      0.00
    4  -11    5      0.37      0.00
    5  -11    5     -0.27      0.00
    6  -11    5      0.29      0.00
    7  -11    5      1.28      0.00
   -7  -10    5     -0.68      0.00
   -6  -10    5      0.02      0.00
   -5  -10    5      0.16      0.00
   -4  -10    5      0.37      0.00
   -3  -10    5     -1.06      0.00
   -2  -10    5     -0.16      0.00
   -1  -10    5      2.22      0.00
    0  -10    5      0.26      0.00
    1  -10    5     -0.19      0.00
    2  -10    5     -0.15      0.00
    3  -10    5      0.45      0.00
    4  -10    5     -0.30      0.00
    5  -10    5     -0.16      0.00
    6  -10    5     -0.29      0.00
    7  -10    5     -1.29      0.00
    8  -10    5     -0.18      0.00
   -8   -9    5     -1.35      0.00
   -7   -9    5     -0.03      0.00
   -6   -9    5      0.74      0.00
   -5   -9    5     -0.09      0.00
   -4   -9    5      1.25      0.00
   -3   -9    5     -1.81      0.00
   -2   -9    5      0.42      0.00
   -1   -9    5      0.79      0.00
    0   -9    5      1.49      0.00
    1   -9    5      0.86      0.00
    2   -9    5     -2.37      0.00
    3   -9    5      0.23      0.00
    4   -9    5      0.38      0.00
    5   -9    5     -0.35      0.00
    6   -9    5     -0.56      0.00
    7   -9    5     -0.12      0.00
    8   -9    5     -0.01      0.00
    9   -9    5      0.22      0.00
   -9   -8    5     -0.38      0.00
   -8   -8    5      1.75      0.00
   -7   -8    5     -0.88      0.00
   -6   -8    5      0.89      0.00
   -5   -8    5     -0.32      0.00
   -4   -8    5      1.25      0.00
   -3   -8    5     -1.28      0.00
   -2   -8    5      2.02      0.00
   -1   -8    5      1.41      0.00
    0   -8    5      0.95      0.00
    1   -8    5     -2.00      0.00
    2   -8    5     -0.94      0.00
    3   -8    5     -0.56      0.00
    4   -8    5      0.39      0.00
    5   -8    5     -0.10      0.00
    6   -8    5     -1.10      0.00
    7   -8    5      0.19      0.00
    8   -8    5     -0.53      0.00
    9   -8    5     -0.67      0.00
   -9   -7    5      0.21      0.00
   -8   -7    5     -0.46      0.00
   -7   -7    5     -0.62      0.00
   -6   -7    5     -0.04      0.00
   -5   -7    5     -0.30      0.00
   -4   -7    5      1.96      0.00
   -3   -7    5     -1.55      0.00
   -2   -7    5      0.47      0.00
   -1   -7    5     -3.48      0.00
    0   -7    5      2.76      0.00
    1   -7    5     -0.64      0.00
    2   -7    5     -3.23      0.00
    3   -7    5     -1.78      0.00
    4   -7    5      1.02      0.00
    5   -7    5      0.08      0.00
    6   -7    5     -0.47      0.00
    7   -7    5      0.14      0.00
    8   -7    5      0.14      0.00
    9   -7    5      0.50      0.00
  -10   -6    5     -0.35      0.00
   -9   -6    5      0.54      0.00
   -8   -6    5      0.38      0.00
   -7   -6    5      0.51      0.00
   -6   -6    5     -0.71      0.00
   -5   -6    5      1.54      0.00
   -4   -6    5      1.00      0.00
   -3   -6    5     -1.55      0.00
   -2   -6    5     -0.47      0.00
   -1   -6    5     -0.06      0.00
    0   -6    5      1.17      0.00
    1   -6    5     -6.42      0.00
    2   -6    5      1.70      0.00
    3   -6    5      0.44      0.00
    4   -6    5      1.76      0.00
    5   -6    5     -0.41      0.00
    6   -6    5      0.17      0.00
    7   -6    5      0.82      0.00
    8   -6    5      0.63      0.00
    9   -6    5     -0.38      0.00
   10   -6    5     -0.64      0.00
  -10   -5    5     -1.14      0.00
   -9   -5    5      0.96      0.00
   -8   -5    5     -0.75      0.00
   -7   -5    5      0.71      0.00
   -6   -5    5     -1.86      0.00
   -5   -5    5      1.55      0.00
   -4   -5    5     -0.19      0.00
   -3   -5    5     -1.07      0.00
   -2   -5    5     -3.74      0.00
   -1   -5    5     -5.56      0.00
    0   -5    5      1.66      0.00
    1   -5    5      3.24      0.00
    2   -5    5      0.07      0.00
    3   -5    5     -2.72      0.00
    4   -5    5      3.98      0.00
    5   -5    5      0.87      0.00
    6   -5    5      0.80      0.00
    7   -5    5      0.61      0.00
    8   -5    5      0.57      0.00
    9   -5    5      0.36      0.00
   10   -5    5      0.19      0.00
  -11   -4    5     -0.19      0.00
  -10   -4    5      0.50      0.00
   -9   -4    5      1.36      0.00
   -8   -4    5     -0.45      0.00
   -7   -4    5      0.96      0.00
   -6   -4    5     -2.64      0.00
   -5   -4    5      3.47      0.00
   -4   -4    5     -1.16      0.00
   -3   -4    5      1.01      0.00
   -2   -4    5     -6.73      0.00
   -1   -4    5      2.19      0.00
    0   -4    5      4.92      0.00
    1   -4    5     -3.01      0.00
    2   -4    5      2.52      0.00
    3   -4    5     -0.19      0.00
    4   -4    5      2.38      0.00
    5   -4    5      0.17      0.00
    6   -4    5      0.38      0.00
    7   -4    5     -0.02      0.00
    8   -4    5      0.80      0.00
    9   -4    5      0.11      0.00
   10   -4    5     -0.29      0.00
  -11   -3    5     -0.11      0.00
  -10   -3    5     -0.07      0.00
   -9   -3    5      0.25      0.00
   -8   -3    5     -0.14      0.00
   -7   -3    5     -0.04      0.00
   -6   -3    5     -1.45      0.00
   -5   -3    5      1.76      0.00
   -4   -3    5     -1.48      0.00
   -3   -3    5      4.01      0.00
   -2   -3    5     -7.61      0.00
   -1   -3    5      4.64      0.00
    0   -3    5      2.28      0.00
    1   -3    5      9.45      0.00
    2   -3    5     -3.59      0.00
    3   -3    5     -2.10      0.00
    4   -3    5      2.10      0.00
    5   -3    5      0.60      0.00
    6   -3    5      0.69      0.00
    7   -3    5     -0.77      0.00
    8   -3    5      1.17      0.00
    9   -3    5     -0.13      0.00
   10   -3    5      0.44      0.00
  -12   -2    5     -1.50      0.00
  -11   -2    5     -0.55      0.00
  -10   -2    5      0.48      0.00
   -9   -2    5     -0.94      0.00
   -8   -2    5      0.75      0.00
   -7   -2    5     -0.49      0.00
   -6   -2    5     -1.61      0.00
   -5   -2    5      1.44      0.00
   -4   -2    5     -0.06      0.00
   -3   -2    5      4.34      0.00
   -2   -2    5     -9.66      0.00
   -1   -2    5     12.59      0.00
    0   -2    5      5.28      0.00
    1   -2    5     -0.17      0.00
    2   -2    5     -4.38      0.00
    3   -2    5     -1.36      0.00
    4   -2    5      0.11      0.00
    5   -2    5      0.64      0.00
    6   -2    5     -1.11      0.00
    7   -2    5     -0.47      0.00
    8   -2    5      0.62      0.00
    9   -2    5     -0.01      0.00
   10   -2    5      0.44      0.00
  -12   -1    5     -0.39      0.00
  -11   -1    5     -0.24      0.00
  -10   -1    5      0.06      0.00
   -9   -1    5     -0.77      0.00
   -8   -1    5      1.43      0.00
   -7   -1    5     -2.13      0.00
   -6   -1    5     -0.13      0.00
   -5   -1    5     -0.27      0.00
   -4   -1    5      2.61      0.00
   -3   -1    5      5.20      0.00
   -2   -1    5     -2.48      0.00
   -1   -1    5      3.72      0.00
    0   -1    5     -7.92      0.00
    1   -1    5     10.64      0.00
    2   -1    5     -8.51      0.00
    3   -1    5     -1.03      0.00
    4   -1    5     -2.27      0.00
    5   -1    5      1.78      0.00
    6   -1    5     -0.74      0.00
    7   -1    5     -0.68      0.00
    8   -1    5      0.41      0.00
    9   -1    5     -0.19      0.00
   10   -1    5     -0.21      0.00
  -12    0    5     -1.24      0.00
  -11    0    5      0.25      0.00
  -10    0    5     -0.26      0.00
   -9    0    5     -1.11      0.00
   -8    0    5      1.52      0.00
   -7    0    5     -1.09      0.00
   -6    0    5      1.02      0.00
   -5    0    5     -1.66      0.00
   -4    0    5      9.01      0.00
   -3    0    5     -0.25      0.00
   -2    0    5     -2.09      0.00
   -1    0    5     -5.13      0.00
    0    0    5      3.34      0.00
    1    0    5     -2.63      0.00
    2    0    5     -6.46      0.00
    3    0    5      1.41      0.00
    4    0    5     -1.91      0.00
    5    0    5      1.33      0.00
    6    0    5     -1.85      0.00
    7    0    5     -0.02      0.00
    8    0    5      0.60      0.00
    9    0    5      0.10      0.00
   10    0    5      0.33      0.00
  -12    1    5      0.95      0.00
  -11    1    5      0.75      0.00
  -10    1    5      0.20      0.00
   -9    1    5     -0.14      0.00
   -8    1    5      1.44      0.00
   -7    1    5     -1.51      0.00
   -6    1    5      1.13      0.00
   -5    1    5     -1.76      0.00
   -4    1    5      5.39      0.00
   -3    1    5     -0.67      0.00
   -2    1    5     -1.88      0.00
   -1    1    5    -14.45      0.00
    0    1    5     -7.18      0.00
    1    1    5      5.66      0.00
    2    1    5     -3.18      0.00
    3    1    5      0.07      0.00
    4    1    5     -3.18      0.00
    5    1    5      2.13      0.00
    6    1    5     -0.54      0.00
    7    1    5     -0.11      0.00
    8    1    5     -0.55      0.00
    9    1    5     -0.33      0.00
  -12    2    5      0.33      0.00
  -11    2    5     -0.55      0.00
  -10    2    5     -0.27      0.00
   -9    2    5      0.18      0.00
   -8    2    5      0.64      0.00
   -7    2    5      0.37      0.00
   -6    2    5      0.46      0.00
   -5    2    5     -2.58      0.00
   -4    2    5      7.48      0.00
   -3    2    5     -6.68      0.00
   -2    2    5     -2.58      0.00
   -1    2    5    -16.56      0.00
    0    2    5      9.00      0.00
    1    2    5     -3.89      0.00
    2    2    5      0.54      0.00
    3    2    5     -0.40      0.00
    4    2    5      0.42      0.00
    5    2    5      1.48      0.00
    6    2    5      0.20      0.00
    7    2    5     -0.37      0.00
    8    2    5     -0.11      0.00
    9    2    5      0.22      0.00
  -12    3    5      0.13      0.00
  -11    3    5      0.19      0.00
  -10    3    5     -0.03      0.00
   -9    3    5      0.31      0.00
   -8    3    5     -0.23      0.00
   -7    3    5      0.72      0.00
   -6    3    5     -2.31      0.00
   -5    3    5     -2.84      0.00
   -4    3    5     -2.54      0.00
   -3    3    5     -5.19      0.00
   -2    3    5     -4.07      0.00
   -1    3    5     -8.20      0.00
    0    3    5     -1.24      0.00
    1    3    5      3.97      0.00
    2    3    5      5.38      0.00
    3    3    5     -0.87      0.00
    4    3    5     -0.86      0.00
    5    3    5      0.82      0.00
    6    3    5      0.23      0.00
    7    3    5      0.35      0.00
    8    3    5     -0.67      0.00
    9    3    5     -0.29      0.00
  -12    4    5      0.05      0.00
  -11    4    5     -0.36      0.00
  -10    4    5     -0.08      0.00
   -9    4    5     -0.05      0.00
   -8    4    5     -0.59      0.00
   -7    4    5      0.99      0.00
   -6    4    5     -2.82      0.00
   -5    4    5     -2.15      0.00
   -4    4    5     -2.94      0.00
   -3    4    5     -1.73      0.00
   -2    4    5     -0.37      0.00
   -1    4    5     -6.88      0.00
    0    4    5     12.91      0.00
    1    4    5     -0.33      0.00
    2    4    5      1.62      0.00
    3    4    5     -3.34      0.00
    4    4    5      2.01      0.00
    5    4    5      0.62      0.00
    6    4    5      0.51      0.00
    7    4    5     -0.06      0.00
    8    4    5     -0.55      0.00
  -12    5    5     -0.18      0.00
  -11    5    5     -0.15      0.00
  -10    5    5     -0.29      0.00
   -9    5    5      0.06      0.00
   -8    5    5     -0.53      0.00
   -7    5    5      0.90      0.00
   -6    5    5     -2.74      0.00
   -5    5    5     -1.53      0.00
   -4    5    5     -2.43      0.00
   -3    5    5      2.34      0.00
   -2    5    5     -1.25      0.00
   -1    5    5      3.69      0.00
    0    5    5      0.43      0.00
    1    5    5     -0.12      0.00
    2    5    5      2.94      0.00
    3    5    5     -1.86      0.00
    4    5    5      0.77      0.00
    5    5    5     -0.44      0.00
    6    5    5      0.44      0.00
    7    5    5      0.66      0.00
    8    5    5     -0.43      0.00
  -12    6    5      0.07      0.00
  -11    6    5      0.11      0.00
  -10    6    5     -0.15      0.00
   -9    6    5     -0.03      0.00
   -8    6    5     -0.40      0.00
   -7    6    5      1.02      0.00
   -6    6    5     -1.51      0.00
   -5    6    5     -0.01      0.00
   -4    6    5     -0.77      0.00
   -3    6    5      3.79      0.00
   -2    6    5     -0.42      0.00
   -1    6    5      1.36      0.00
    0    6    5      2.00      0.00
    1    6    5     -0.58      0.00
    2    6    5      0.13      0.00
    3    6    5     -0.38      0.00
    4    6    5      0.19      0.00
    5    6    5     -0.88      0.00
    6    6    5      0.39      0.00
    7    6    5     -0.28      0.00
  -11    7    5     -0.44      0.00
  -10    7    5      0.20      0.00
   -9    7    5     -0.54      0.00
   -8    7    5      0.42      0.00
   -7    7    5      0.15      0.00
   -6    7    5     -0.78      0.00
   -5    7    5      0.54      0.00
   -4    7    5      0.06      0.00
   -3    7    5      4.96      0.00
   -2    7    5      0.32      0.00
   -1    7    5      1.81      0.00
    0    7    5     -3.62      0.00
    1    7    5      0.41      0.00
    2    7    5     -0.49      0.00
    3    7    5     -1.07      0.00
    4    7    5      0.06      0.00
    5    7    5     -0.80      0.00
    6    7    5      0.62      0.00
    7    7    5      0.45      0.00
  -11    8    5     -0.12      0.00
  -10    8    5     -0.40      0.00
   -9    8    5     -0.30      0.00
   -8    8    5     -0.34      0.00
   -7    8    5      0.13      0.00
   -6    8    5      0.25      0.00
   -5    8    5     -0.61      0.00
   -4    8    5      0.06      0.00
   -3    8    5      2.27      0.00
   -2    8    5     -1.90      0.00
   -1    8    5     -0.53      0.00
    0    8    5     -1.65      0.00
    1    8    5      1.65      0.00
    2    8    5     -0.39      0.00
    3    8    5      0.54      0.00
    4    8    5     -0.83      0.00
    5    8    5      0.09      0.00
    6    8    5      0.91      0.00
  -10    9    5     -0.54      0.00
   -9    9    5     -0.54      0.00
   -8    9    5      0.34      0.00
   -7    9    5      0.01      0.00
   -6    9    5      0.81      0.00
   -5    9    5     -0.81      0.00
   -4    9    5      0.16      0.00
   -3    9    5      0.61      0.00
   -2    9    5     -0.87      0.00
   -1    9    5     -0.12      0.00
    0    9    5     -1.60      0.00
    1    9    5      0.95      0.00
    2    9    5     -0.40      0.00
    3    9    5      0.82      0.00
    4    9    5     -0.56      0.00
    5    9    5     -0.75      0.00
  -10   10    5     -0.44      0.00
   -9   10    5     -0.03      0.00
   -8   10    5     -0.06      0.00
   -7   10    5      0.71      0.00
   -6   10    5      1.20      0.00
   -5   10    5     -0.62      0.00
   -4   10    5     -0.19      0.00
   -3   10    5     -0.70      0.00
   -2   10    5     -0.12      0.00
   -1   10    5     -1.45      0.00
    0   10    5     -0.43      0.00
    1   10    5      0.55      0.00
    2   10    5      0.56      0.00
    3   10    5     -0.34      0.00
    4   10    5     -0.79      0.00
   -9   11    5      0.02      0.00
   -8   11    5      0.46      0.00
   -7   11    5      0.42      0.00
   -6   11    5      0.48      0.00
   -5   11    5     -1.29      0.00
   -4   11    5     -0.35      0.00
   -3   11    5     -0.84      0.00
   -2   11    5      1.63      0.00
   -1   11    5     -0.76      0.00
    0   11    5      1.05      0.00
    1   11    5      0.71      0.00
    2   11    5      0.94      0.00
    3   11    5      0.66      0.00
   -7   12    5     -0.56      0.00
   -6   12    5     -0.83      0.00
   -5   12    5      0.40      0.00
   -4   12    5     -0.30      0.00
   -3   12    5      0.43      0.00
   -2   12    5     -0.37      0.00
   -1   12    5     -0.04      0.00
    0   12    5     -0.28      0.00
    1   12    5      0.24      0.00
   -4   13    5     -0.50      0.00
   -3   13    5      0.43      0.00
   -2  -13    6      0.71      0.00
   -1  -13    6      0.97      0.00
    0  -13    6      0.07      0.00
    1  -13    6      0.52      0.00
    2  -13    6     -0.08      0.00
    3  -13    6     -0.14      0.00
    4  -13    6     -0.73      0.00
   -4  -12    6      0.10      0.00
   -3  -12    6      0.75      0.00
   -2  -12    6      0.64      0.00
   -1  -12    6     -0.37      0.00
    0  -12    6      0.07      0.00
    1  -12    6      0.29      0.00
    2  -12    6      0.02      0.00
    3  -12    6     -0.43      0.00
    4  -12    6     -0.22      0.00
    5  -12    6      0.41      0.00
    6  -12    6     -0.46      0.00
   -6  -11    6      0.01      0.00
   -5  -11    6      0.10      0.00
   -4  -11    6      0.35      0.00
   -3  -11    6      0.70      0.00
   -2  -11    6      0.34      0.00
   -1  -11    6     -1.38      0.00
    0  -11    6      0.49      0.00
    1  -11    6      0.09      0.00
    2  -11    6      0.09      0.00
    3  -11    6     -0.69      0.00
    4  -11    6     -0.09      0.00
    5  -11    6      0.21      0.00
    6  -11    6      0.17      0.00
    7  -11    6      0.82      0.00
   -7  -10    6     -0.16      0.00
   -6  -10    6     -0.60      0.00
   -5  -10    6      0.00      0.00
   -4  -10    6     -0.40      0.00
   -3  -10    6      1.55      0.00
   -2  -10    6      0.33      0.00
   -1  -10    6     -0.37      0.00
    0  -10    6     -0.87      0.00
    1  -10    6     -0.45      0.00
    2  -10    6      0.72      0.00
    3  -10    6     -0.93      0.00
    4  -10    6     -0.31      0.00
    5  -10    6      0.36      0.00
    6  -10    6     -0.03      0.00
    7  -10    6     -0.44      0.00
    8  -10    6      0.51      0.00
   -8   -9    6     -1.04      0.00
   -7   -9    6      0.93      0.00
   -6   -9    6     -0.42      0.00
   -5   -9    6      0.53      0.00
   -4   -9    6     -0.58      0.00
   -3   -9    6      1.15      0.00
   -2   -9    6     -1.15      0.00
   -1   -9    6     -2.13      0.00
    0   -9    6     -0.22      0.00
    1   -9    6      0.63      0.00
    2   -9    6      0.25      0.00
    3   -9    6     -0.62      0.00
    4   -9    6      0.29      0.00
    5   -9    6      0.24      0.00
    6   -9    6      0.92      0.00
    7   -9    6      0.83      0.00
    8   -9    6      0.34      0.00
   -9   -8    6     -0.06      0.00
   -8   -8    6      0.18      0.00
   -7   -8    6      0.54      0.00
   -6   -8    6     -1.04      0.00
   -5   -8    6      0.06      0.00
   -4   -8    6     -1.64      0.00
   -3   -8    6      1.68      0.00
   -2   -8    6     -1.04      0.00
   -1   -8    6      0.03      0.00
    0   -8    6     -1.53      0.00
    1   -8    6      0.29      0.00
    2   -8    6      2.31      0.00
    3   -8    6      0.09      0.00
    4   -8    6     -0.09      0.00
    5   -8    6      0.79      0.00
    6   -8    6      0.43      0.00
    7   -8    6      0.49      0.00
    8   -8    6     -0.12      0.00
    9   -8    6     -0.23      0.00
   -9   -7    6     -0.04      0.00
   -8   -7    6     -0.87      0.00
   -7   -7    6      0.51      0.00
   -6   -7    6     -0.50      0.00
   -5   -7    6     -0.39      0.00
   -4   -7    6     -0.31      0.00
   -3   -7    6      1.73      0.00
   -2   -7    6     -1.71      0.00
   -1   -7    6     -1.82      0.00
    0   -7    6     -0.60      0.00
    1   -7    6      3.74      0.00
    2   -7    6      0.37      0.00
    3   -7    6      0.15      0.00
    4   -7    6     -0.53      0.00
    5   -7    6      0.70      0.00
    6   -7    6      0.77      0.00
    7   -7    6     -0.87      0.00
    8   -7    6     -0.16      0.00
    9   -7    6      0.52      0.00
  -10   -6    6      1.46      0.00
   -9   -6    6     -0.73      0.00
   -8   -6    6      0.75      0.00
   -7   -6    6     -0.31      0.00
   -6   -6    6      0.76      0.00
   -5   -6    6     -1.04      0.00
   -4   -6    6     -0.04      0.00
   -3   -6    6      1.25      0.00
   -2   -6    6      1.00      0.00
   -1   -6    6      3.85      0.00
    0   -6    6     -1.55      0.00
    1   -6    6      0.19      0.00
    2   -6    6      1.72      0.00
    3   -6    6      1.63      0.00
    4   -6    6     -1.90      0.00
    5   -6    6     -0.34      0.00
    6   -6    6     -0.35      0.00
    7   -6    6     -0.68      0.00
    8   -6    6     -0.30      0.00
    9   -6    6     -0.36      0.00
  -10   -5    6     -0.28      0.00
   -9   -5    6     -1.32      0.00
   -8   -5    6      0.31      0.00
   -7   -5    6     -0.80      0.00
   -6   -5    6      1.64      0.00
   -5   -5    6     -3.11      0.00
   -4   -5    6      0.42      0.00
   -3   -5    6      0.38      0.00
   -2   -5    6      2.94      0.00
   -1   -5    6     -1.58      0.00
    0   -5    6     -1.15      0.00
    1   -5    6      5.58      0.00
    2   -5    6     -2.06      0.00
    3   -5    6     -1.52      0.00
    4   -5    6     -1.91      0.00
    5   -5    6      0.46      0.00
    6   -5    6     -0.41      0.00
    7   -5    6     -0.53      0.00
    8   -5    6     -0.85      0.00
    9   -5    6      0.43      0.00
  -11   -4    6     -0.32      0.00
  -10   -4    6      0.54      0.00
   -9   -4    6     -0.72      0.00
   -8   -4    6      0.63      0.00
   -7   -4    6     -0.41      0.00
   -6   -4    6      1.28      0.00
   -5   -4    6     -2.40      0.00
   -4   -4    6      1.61      0.00
   -3   -4    6     -0.24      0.00
   -2   -4    6      6.78      0.00
   -1   -4    6      0.57      0.00
    0   -4    6     -0.52      0.00
    1   -4    6     -5.79      0.00
    2   -4    6      1.19      0.00
    3   -4    6      1.05      0.00
    4   -4    6     -3.39      0.00
    5   -4    6     -0.46      0.00
    6   -4    6     -0.80      0.00
    7   -4    6     -0.22      0.00
    8   -4    6     -1.21      0.00
    9   -4    6      0.47      0.00
   10   -4    6     -0.37      0.00
  -11   -3    6      0.19      0.00
  -10   -3    6     -0.68      0.00
   -9   -3    6     -0.15      0.00
   -8   -3    6     -0.30      0.00
   -7   -3    6     -0.16      0.00
   -6   -3    6      1.46      0.00
   -5   -3    6     -3.70      0.00
   -4   -3    6      1.73      0.00
   -3   -3    6     -1.43      0.00
   -2   -3    6      8.79      0.00
   -1   -3    6     -8.20      0.00
    0   -3    6     -2.34      0.00
    1   -3    6      3.45      0.00
    2   -3    6      0.55      0.00
    3   -3    6     -1.43      0.00
    4   -3    6     -1.19      0.00
    5   -3    6     -0.28      0.00
    6   -3    6      0.13      0.00
    7   -3    6      0.32      0.00
    8   -3    6     -0.32      0.00
    9   -3    6      0.10      0.00
   10   -3    6     -0.05      0.00
  -12   -2    6      0.92      0.00
  -11   -2    6      0.59      0.00
  -10   -2    6     -0.14      0.00
   -9   -2    6      0.21      0.00
   -8   -2    6     -0.84      0.00
   -7   -2    6      1.42      0.00
   -6   -2    6      0.65      0.00
   -5   -2    6     -0.96      0.00
   -4   -2    6      0.48      0.00
   -3   -2    6     -2.27      0.00
   -2   -2    6      5.19      0.00
   -1   -2    6     -5.72      0.00
    0   -2    6      3.26      0.00
    1   -2    6     -9.92      0.00
    2   -2    6      6.59      0.00
    3   -2    6      0.15      0.00
    4   -2    6     -0.26      0.00
    5   -2    6     -0.75      0.00
    6   -2    6      0.09      0.00
    7   -2    6      0.33      0.00
    8   -2    6     -0.87      0.00
    9   -2    6      0.32      0.00
   10   -2    6      0.01      0.00
  -12   -1    6      1.39      0.00
  -11   -1    6      0.08      0.00
  -10   -1    6     -0.34      0.00
   -9   -1    6      1.45      0.00
   -8   -1    6     -1.18      0.00
   -7   -1    6      1.48      0.00
   -6   -1    6     -0.04      0.00
   -5   -1    6      0.30      0.00
   -4   -1    6     -3.41      0.00
   -3   -1    6     -0.18      0.00
   -2   -1    6      4.90      0.00
   -1   -1    6     -6.94      0.00
    0   -1    6     -3.82      0.00
    1   -1    6      3.41      0.00
    2   -1    6      5.74      0.00
    3   -1    6     -1.82      0.00
    4   -1    6      1.07      0.00
    5   -1    6     -0.84      0.00
    6   -1    6      1.32      0.00
    7   -1    6      0.40      0.00
    8   -1    6     -0.36      0.00
    9   -1    6     -0.14      0.00
  -12    0    6     -0.09      0.00
  -11    0    6      0.30      0.00
  -10    0    6     -0.07      0.00
   -9    0    6      0.61      0.00
   -8    0    6     -1.40      0.00
   -7    0    6      2.82      0.00
   -6    0    6     -0.61      0.00
   -5    0    6      1.48      0.00
   -4    0    6     -4.42      0.00
   -3    0    6      0.65      0.00
   -2    0    6      0.29      0.00
   -1    0    6      3.31      0.00
    0    0    6      6.52      0.00
    1    0    6     -7.05      0.00
    2    0    6      6.60      0.00
    3    0    6     -0.31      0.00
    4    0    6      2.49      0.00
    5    0    6     -0.87      0.00
    6    0    6      0.46      0.00
    7    0    6      0.29      0.00
    8    0    6      0.25      0.00
    9    0    6      0.22      0.00
  -12    1    6      0.04      0.00
  -11    1    6      0.10      0.00
  -10    1    6      0.36      0.00
   -9    1    6      0.11      0.00
   -8    1    6     -0.68      0.00
   -7    1    6      1.07      0.00
   -6    1    6     -0.71      0.00
   -5    1    6      1.38      0.00
   -4    1    6     -8.99      0.00
   -3    1    6      6.01      0.00
   -2    1    6      1.72      0.00
   -1    1    6      9.64      0.00
    0    1    6     -7.54      0.00
    1    1    6      4.95      0.00
    2    1    6      3.22      0.00
    3    1    6     -0.12      0.00
    4    1    6      0.80      0.00
    5    1    6     -1.27      0.00
    6    1    6      0.90      0.00
    7    1    6      0.40      0.00
    8    1    6      0.03      0.00
    9    1    6     -0.24      0.00
  -12    2    6     -0.35      0.00
  -11    2    6      0.14      0.00
  -10    2    6     -0.17      0.00
   -9    2    6     -0.15      0.00
   -8    2    6     -0.14      0.00
   -7    2    6      0.81      0.00
   -6    2    6      0.90      0.00
   -5    2    6      1.65      0.00
   -4    2    6      0.87      0.00
   -3    2    6      6.13      0.00
   -2    2    6      4.57      0.00
   -1    2    6     10.11      0.00
    0    2    6      2.97      0.00
    1    2    6     -3.65      0.00
    2    2    6     -0.83      0.00
    3    2    6      0.75      0.00
    4    2    6      1.12      0.00
    5    2    6     -0.67      0.00
    6    2    6      0.21      0.00
    7    2    6      0.37      0.00
    8    2    6      1.02      0.00
    9    2    6     -0.15      0.00
  -12    3    6     -0.19      0.00
  -11    3    6      0.09      0.00
  -10    3    6      0.14      0.00
   -9    3    6     -0.70      0.00
   -8    3    6      0.19      0.00
   -7    3    6     -0.63      0.00
   -6    3    6      2.11      0.00
   -5    3    6      1.54      0.00
   -4    3    6     -0.12      0.00
   -3    3    6      4.96      0.00
   -2    3    6      3.14      0.00
   -1    3    6     10.60      0.00
    0    3    6    -13.30      0.00
    1    3    6      2.80      0.00
    2    3    6     -0.44      0.00
    3    3    6      2.88      0.00
    4    3    6     -2.02      0.00
    5    3    6     -0.98      0.00
    6    3    6      0.04      0.00
    7    3    6      0.43      0.00
    8    3    6      0.34      0.00
  -12    4    6      0.01      0.00
  -11    4    6     -0.12      0.00
  -10    4    6      0.22      0.00
   -9    4    6     -0.37      0.00
   -8    4    6      0.65      0.00
   -7    4    6     -0.59      0.00
   -6    4    6      3.18      0.00
   -5    4    6      1.60      0.00
   -4    4    6      3.34      0.00
   -3    4    6      1.46      0.00
   -2    4    6      4.60      0.00
   -1    4    6     -0.05      0.00
    0    4    6     -1.76      0.00
    1    4    6     -0.48      0.00
    2    4    6     -2.73      0.00
    3    4    6      1.19      0.00
    4    4    6     -1.25      0.00
    5    4    6     -0.16      0.00
    6    4    6      0.13      0.00
    7    4    6     -0.07      0.00
    8    4    6      0.47      0.00
  -12    5    6     -0.04      0.00
  -11    5    6     -0.52      0.00
  -10    5    6      0.04      0.00
   -9    5    6     -0.35      0.00
   -8    5    6     -0.08      0.00
   -7    5    6     -1.04      0.00
   -6    5    6      2.66      0.00
   -5    5    6      0.26      0.00
   -4    5    6      1.99      0.00
   -3    5    6     -0.92      0.00
   -2    5    6      1.91      0.00
   -1    5    6     -0.09      0.00
    0    5    6     -5.77      0.00
    1    5    6      1.38      0.00
    2    5    6     -0.84      0.00
    3    5    6      0.66      0.00
    4    5    6     -0.48      0.00
    5    5    6      0.65      0.00
    6    5    6      0.02      0.00
    7    5    6     -0.36      0.00
  -12    6    6     -0.07      0.00
  -11    6    6      0.38      0.00
  -10    6    6     -0.22      0.00
   -9    6    6      0.14      0.00
   -8    6    6     -0.64      0.00
   -7    6    6     -0.50      0.00
   -6    6    6      1.41      0.00
   -5    6    6     -0.77      0.00
   -4    6    6      0.37      0.00
   -3    6    6     -4.64      0.00
   -2    6    6      0.10      0.00
   -1    6    6     -2.62      0.00
    0    6    6      1.28      0.00
    1    6    6     -0.33      0.00
    2    6    6     -0.05      0.00
    3    6    6      1.50      0.00
    4    6    6     -0.72      0.00
    5    6    6      0.10      0.00
    6    6    6     -0.51      0.00
    7    6    6     -0.43      0.00
  -11    7    6     -0.05      0.00
  -10    7    6     -0.14      0.00
   -9    7    6      0.15      0.00
   -8    7    6     -0.31      0.00
   -7    7    6     -0.24      0.00
   -6    7    6      1.13      0.00
   -5    7    6      0.77      0.00
   -4    7    6      0.28      0.00
   -3    7    6     -3.05      0.00
   -2    7    6      2.41      0.00
   -1    7    6     -1.31      0.00
    0    7    6      1.09      0.00
    1    7    6     -1.04      0.00
    2    7    6      0.42      0.00
    3    7    6     -0.39      0.00
    4    7    6      0.45      0.00
    5    7    6      0.74      0.00
    6    7    6     -0.60      0.00
  -11    8    6      0.17      0.00
  -10    8    6     -0.01      0.00
   -9    8    6      0.45      0.00
   -8    8    6     -0.78      0.00
   -7    8    6      0.28      0.00
   -6    8    6      0.23      0.00
   -5    8    6      0.67      0.00
   -4    8    6     -0.90      0.00
   -3    8    6     -2.38      0.00
   -2    8    6      1.02      0.00
   -1    8    6     -0.89      0.00
    0    8    6      2.19      0.00
    1    8    6     -0.94      0.00
    2    8    6      1.10      0.00
    3    8    6     -0.38      0.00
    4    8    6      0.41      0.00
    5    8    6      0.42      0.00
  -10    9    6      0.24      0.00
   -9    9    6      0.24      0.00
   -8    9    6      0.15      0.00
   -7    9    6     -0.41      0.00
   -6    9    6     -0.67      0.00
   -5    9    6      0.94      0.00
   -4    9    6     -0.82      0.00
   -3    9    6      0.27      0.00
   -2    9    6     -0.06      0.00
   -1    9    6      1.69      0.00
    0    9    6      0.36      0.00
    1    9    6     -0.78      0.00
    2    9    6     -0.61      0.00
    3    9    6      0.46      0.00
    4    9    6      0.70      0.00
   -9   10    6      0.17      0.00
   -8   10    6     -0.57      0.00
   -7   10    6     -0.77      0.00
   -6   10    6     -0.73      0.00
   -5   10    6      0.94      0.00
   -4   10    6     -0.36      0.00
   -3   10    6      0.97      0.00
   -2   10    6     -0.79      0.00
   -1   10    6      0.96      0.00
    0   10    6     -0.98      0.00
    1   10    6     -0.57      0.00
    2   10    6     -0.03      0.00
    3   10    6     -0.22      0.00
   -8   11    6     -0.30      0.00
   -7   11    6     -0.41      0.00
   -6   11    6     -0.03      0.00
   -5   11    6      0.26      0.00
   -4   11    6      0.27      0.00
   -3   11    6      0.15      0.00
   -2   11    6      0.52      0.00
   -1   11    6      0.57      0.00
    0   11    6      0.58      0.00
    1   11    6     -0.17      0.00
    2   11    6     -0.56      0.00
   -7   12    6      0.03      0.00
   -6   12    6      0.32      0.00
   -5   12    6      0.75      0.00
   -4   12    6      0.09      0.00
   -3   12    6     -0.25      0.00
   -2   12    6     -1.36      0.00
   -1   12    6      0.04      0.00
    0   12    6     -0.68      0.00
   -2  -13    7      0.29      0.00
   -1  -13    7      0.61      0.00
    0  -13    7     -0.78      0.00
    1  -13    7     -0.43      0.00
    2  -13    7      0.29      0.00
    3  -13    7      0.35      0.00
   -4  -12    7     -0.48      0.00
   -3  -12    7     -0.24      0.00
   -2  -12    7     -0.60      0.00
   -1  -12    7     -0.29      0.00
    0  -12    7     -0.36      0.00
    1  -12    7      0.00      0.00
    2  -12    7      0.05      0.00
    3  -12    7      0.46      0.00
    4  -12    7      0.75      0.00
    5  -12    7      0.16      0.00
   -6  -11    7      0.24      0.00
   -5  -11    7     -0.07      0.00
   -4  -11    7     -0.05      0.00
   -3  -11    7     -0.97      0.00
   -2  -11    7     -0.63      0.00
   -1  -11    7     -0.10      0.00
    0  -11    7      0.14      0.00
    1  -11    7     -0.35      0.00
    2  -11    7     -0.12      0.00
    3  -11    7      0.71      0.00
    4  -11    7      0.43      0.00
    5  -11    7     -0.29      0.00
    6  -11    7      0.23      0.00
   -7  -10    7     -0.38      0.00
   -6  -10    7     -0.25      0.00
   -5  -10    7     -0.52      0.00
   -4  -10    7      0.22      0.00
   -3  -10    7     -0.69      0.00
   -2  -10    7      0.24      0.00
   -1  -10    7      2.03      0.00
    0  -10    7     -0.67      0.00
    1  -10    7     -0.17      0.00
    2  -10    7      0.35      0.00
    3  -10    7      1.00      0.00
    4  -10    7     -0.39      0.00
    5  -10    7     -0.44      0.00
    6  -10    7     -0.19      0.00
    7  -10    7     -0.81      0.00
   -8   -9    7      0.65      0.00
   -7   -9    7     -0.41      0.00
   -6   -9    7      1.41      0.00
   -5   -9    7     -0.18      0.00
   -4   -9    7      0.81      0.00
   -3   -9    7     -1.84      0.00
   -2   -9    7      0.94      0.00
   -1   -9    7      0.48      0.00
    0   -9    7      0.21      0.00
    1   -9    7      0.48      0.00
    2   -9    7     -0.24      0.00
    3   -9    7      0.79      0.00
    4   -9    7      0.19      0.00
    5   -9    7     -0.79      0.00
    6   -9    7     -0.23      0.00
    7   -9    7     -0.64      0.00
    8   -9    7     -0.18      0.00
   -9   -8    7     -0.05      0.00
   -8   -8    7      0.52      0.00
   -7   -8    7     -0.84      0.00
   -6   -8    7      0.67      0.00
   -5   -8    7     -0.53      0.00
   -4   -8    7     -0.14      0.00
   -3   -8    7     -1.37      0.00
   -2   -8    7      1.81      0.00
   -1   -8    7      1.43      0.00
    0   -8    7      0.58      0.00
    1   -8    7     -1.42      0.00
    2   -8    7     -0.42      0.00
    3   -8    7      0.04      0.00
    4   -8    7     -0.42      0.00
    5   -8    7     -0.55      0.00
    6   -8    7     -1.06      0.00
    7   -8    7      0.30      0.00
    8   -8    7     -0.02      0.00
   -9   -7    7      0.56      0.00
   -8   -7    7     -0.09      0.00
   -7   -7    7      0.27      0.00
   -6   -7    7      0.38      0.00
   -5   -7    7      0.41      0.00
   -4   -7    7      0.26      0.00
   -3   -7    7     -1.05      0.00
   -2   -7    7      0.64      0.00
   -1   -7    7     -1.03      0.00
    0   -7    7      0.88      0.00
    1   -7    7     -1.50      0.00
    2   -7    7     -1.60      0.00
    3   -7    7     -0.41      0.00
    4   -7    7     -0.08      0.00
    5   -7    7     -0.69      0.00
    6   -7    7      0.19      0.00
    7   -7    7     -0.03      0.00
    8   -7    7      0.09      0.00
    9   -7    7      0.30      0.00
  -10   -6    7      0.27      0.00
   -9   -6    7      0.75      0.00
   -8   -6    7     -0.27      0.00
   -7   -6    7      0.14      0.00
   -6   -6    7     -0.81      0.00
   -5   -6    7      1.38      0.00
   -4   -6    7     -0.58      0.00
   -3   -6    7     -1.12      0.00
   -2   -6    7      0.46      0.00
   -1   -6    7      2.57      0.00
    0   -6    7      0.58      0.00
    1   -6    7     -4.58      0.00
    2   -6    7      0.20      0.00
    3   -6    7      0.28      0.00
    4   -6    7      0.86      0.00
    5   -6    7     -0.61      0.00
    6   -6    7     -0.11      0.00
    7   -6    7      0.65      0.00
    8   -6    7      0.57      0.00
    9   -6    7     -0.77      0.00
  -10   -5    7     -0.98      0.00
   -9   -5    7      0.84      0.00
   -8   -5    7     -0.98      0.00
   -7   -5    7      0.76      0.00
   -6   -5    7     -0.87      0.00
   -5   -5    7      2.19      0.00
   -4   -5    7     -1.88      0.00
   -3   -5    7     -0.82      0.00
   -2   -5    7     -2.88      0.00
   -1   -5    7     -1.51      0.00
    0   -5    7      0.23      0.00
    1   -5    7      1.81      0.00
    2   -5    7     -0.59      0.00
    3   -5    7     -0.34      0.00
    4   -5    7      1.92      0.00
    5   -5    7     -0.08      0.00
    6   -5    7      0.83      0.00
    7   -5    7      0.58      0.00
    8   -5    7      0.58      0.00
    9   -5    7     -0.54      0.00
  -11   -4    7      0.13      0.00
  -10   -4    7      0.24      0.00
   -9   -4    7      0.78      0.00
   -8   -4    7     -0.28      0.00
   -7   -4    7      0.39      0.00
   -6   -4    7     -1.18      0.00
   -5   -4    7      4.01      0.00
   -4   -4    7     -1.68      0.00
   -3   -4    7      0.65      0.00
   -2   -4    7     -5.24      0.00
   -1   -4    7      5.09      0.00
    0   -4    7      0.17      0.00
    1   -4    7     -3.57      0.00
    2   -4    7      0.50      0.00
    3   -4    7      2.71      0.00
    4   -4    7      1.21      0.00
    5   -4    7     -0.33      0.00
    6   -4    7      0.43      0.00
    7   -4    7     -0.28      0.00
    8   -4    7      0.05      0.00
    9   -4    7     -0.56      0.00
  -11   -3    7     -0.03      0.00
  -10   -3    7      0.11      0.00
   -9   -3    7      0.43      0.00
   -8   -3    7      0.15      0.00
   -7   -3    7     -0.34      0.00
   -6   -3    7     -0.51      0.00
   -5   -3    7      2.20      0.00
   -4   -3    7     -2.28      0.00
   -3   -3    7     -0.31      0.00
   -2   -3    7     -6.57      0.00
   -1   -3    7      3.03      0.00
    0   -3    7     -1.80      0.00
    1   -3    7      7.78      0.00
    2   -3    7     -2.57      0.00
    3   -3    7      0.73      0.00
    4   -3    7      1.74      0.00
    5   -3    7     -0.14      0.00
    6   -3    7      0.56      0.00
    7   -3    7      0.02      0.00
    8   -3    7      0.80      0.00
    9   -3    7     -0.53      0.00
  -12   -2    7     -0.51      0.00
  -11   -2    7     -0.22      0.00
  -10   -2    7      0.45      0.00
   -9   -2    7     -0.97      0.00
   -8   -2    7      0.75      0.00
   -7   -2    7     -0.90      0.00
   -6   -2    7     -0.13      0.00
   -5   -2    7      1.36      0.00
   -4   -2    7     -0.85      0.00
   -3   -2    7     -0.39      0.00
   -2   -2    7     -6.32      0.00
   -1   -2    7      9.04      0.00
    0   -2    7      2.19      0.00
    1   -2    7     -2.61      0.00
    2   -2    7     -3.35      0.00
    3   -2    7      3.21      0.00
    4   -2    7     -0.25      0.00
    5   -2    7      0.54      0.00
    6   -2    7     -0.24      0.00
    7   -2    7     -0.86      0.00
    8   -2    7     -0.17      0.00
    9   -2    7      0.31      0.00
  -12   -1    7     -0.78      0.00
  -11   -1    7     -0.58      0.00
  -10   -1    7      0.21      0.00
   -9   -1    7     -0.33      0.00
   -8   -1    7      1.20      0.00
   -7   -1    7     -2.48      0.00
   -6   -1    7      0.27      0.00
   -5   -1    7     -0.80      0.00
   -4   -1    7      2.00      0.00
   -3   -1    7     -1.75      0.00
   -2   -1    7     -0.27      0.00
   -1   -1    7      3.52      0.00
    0   -1    7     -4.38      0.00
    1   -1    7      7.58      0.00
    2   -1    7     -6.03      0.00
    3   -1    7      0.88      0.00
    4   -1    7     -0.57      0.00
    5   -1    7      0.04      0.00
    6   -1    7     -0.33      0.00
    7   -1    7      0.03      0.00
    8   -1    7      0.06      0.00
    9   -1    7      0.03      0.00
  -12    0    7     -0.30      0.00
  -11    0    7     -0.05      0.00
  -10    0    7     -0.11      0.00
   -9    0    7     -0.95      0.00
   -8    0    7      0.51      0.00
   -7    0    7     -2.33      0.00
   -6    0    7      0.44      0.00
   -5    0    7     -1.34      0.00
   -4    0    7      5.84      0.00
   -3    0    7     -3.72      0.00
   -2    0    7     -0.19      0.00
   -1    0    7     -0.35      0.00
    0    0    7      6.34      0.00
    1    0    7     -4.11      0.00
    2    0    7     -4.74      0.00
    3    0    7      1.44      0.00
    4    0    7     -1.26      0.00
    5    0    7      0.96      0.00
    6    0    7     -1.11      0.00
    7    0    7     -0.31      0.00
    8    0    7      0.16      0.00
    9    0    7      0.42      0.00
  -12    1    7     -0.03      0.00
  -11    1    7     -0.72      0.00
  -10    1    7     -0.12      0.00
   -9    1    7     -0.27      0.00
   -8    1    7      0.07      0.00
   -7    1    7     -2.22      0.00
   -6    1    7      0.28      0.00
   -5    1    7     -1.36      0.00
   -4    1    7      1.70      0.00
   -3    1    7     -5.63      0.00
   -2    1    7     -0.68      0.00
   -1    1    7     -5.53      0.00
    0    1    7     -2.24      0.00
    1    1    7      2.63      0.00
    2    1    7     -2.84      0.00
    3    1    7     -0.36      0.00
    4    1    7     -0.99      0.00
    5    1    7     -0.17      0.00
    6    1    7     -0.25      0.00
    7    1    7     -0.21      0.00
    8    1    7     -0.81      0.00
    9    1    7      0.34      0.00
  -12    2    7      0.06      0.00
  -11    2    7     -0.21      0.00
  -10    2    7     -0.33      0.00
   -9    2    7      0.65      0.00
   -8    2    7     -0.47      0.00
   -7    2    7     -0.20      0.00
   -6    2    7     -0.79      0.00
   -5    2    7     -0.43      0.00
   -4    2    7      3.12      0.00
   -3    2    7     -6.06      0.00
   -2    2    7     -2.17      0.00
   -1    2    7     -9.09      0.00
    0    2    7     11.41      0.00
    1    2    7     -5.22      0.00
    2    2    7     -1.47      0.00
    3    2    7     -1.99      0.00
    4    2    7      0.99      0.00
    5    2    7      1.05      0.00
    6    2    7     -0.79      0.00
    7    2    7     -0.44      0.00
    8    2    7      0.07      0.00
  -12    3    7     -0.25      0.00
  -11    3    7     -0.16      0.00
  -10    3    7     -0.20      0.00
   -9    3    7      0.47      0.00
   -8    3    7     -0.62      0.00
   -7    3    7      0.22      0.00
   -6    3    7     -2.17      0.00
   -5    3    7     -0.45      0.00
   -4    3    7     -2.99      0.00
   -3    3    7     -4.44      0.00
   -2    3    7     -5.38      0.00
   -1    3    7     -3.71      0.00
    0    3    7      1.66      0.00
    1    3    7     -0.75      0.00
    2    3    7      1.06      0.00
    3    3    7     -0.62      0.00
    4    3    7      1.22      0.00
    5    3    7      0.05      0.00
    6    3    7     -0.71      0.00
    7    3    7     -0.45      0.00
    8    3    7     -0.66      0.00
  -12    4    7     -0.05      0.00
  -11    4    7      0.94      0.00
  -10    4    7      0.05      0.00
   -9    4    7      1.15      0.00
   -8    4    7      0.12      0.00
   -7    4    7      0.71      0.00
   -6    4    7     -2.46      0.00
   -5    4    7      0.50      0.00
   -4    4    7     -1.92      0.00
   -3    4    7     -1.92      0.00
   -2    4    7     -4.04      0.00
   -1    4    7     -2.47      0.00
    0    4    7      7.76      0.00
    1    4    7     -3.13      0.00
    2    4    7      1.05      0.00
    3    4    7     -0.58      0.00
    4    4    7      0.93      0.00
    5    4    7     -0.29      0.00
    6    4    7     -0.54      0.00
    7    4    7      0.36      0.00
  -12    5    7      0.63      0.00
  -11    5    7     -0.20      0.00
  -10    5    7     -0.09      0.00
   -9    5    7      0.33      0.00
   -8    5    7      0.46      0.00
   -7    5    7      0.59      0.00
   -6    5    7     -1.20      0.00
   -5    5    7      1.46      0.00
   -4    5    7     -0.92      0.00
   -3    5    7      2.10      0.00
   -2    5    7     -2.48      0.00
   -1    5    7      1.60      0.00
    0    5    7      0.71      0.00
    1    5    7     -0.10      0.00
    2    5    7      0.73      0.00
    3    5    7     -1.02      0.00
    4    5    7      1.32      0.00
    5    5    7     -0.10      0.00
    6    5    7      0.15      0.00
    7    5    7      0.10      0.00
  -12    6    7     -0.24      0.00
  -11    6    7      0.40      0.00
  -10    6    7      0.47      0.00
   -9    6    7      0.28      0.00
   -8    6    7      0.72      0.00
   -7    6    7      0.18      0.00
   -6    6    7     -1.90      0.00
   -5    6    7     -0.37      0.00
   -4    6    7     -1.23      0.00
   -3    6    7      1.88      0.00
   -2    6    7     -3.95      0.00
   -1    6    7      2.41      0.00
    0    6    7      0.04      0.00
    1    6    7      0.21      0.00
    2    6    7      0.08      0.00
    3    6    7      0.35      0.00
    4    6    7     -0.48      0.00
    5    6    7     -1.14      0.00
    6    6    7      0.27      0.00
  -11    7    7     -0.33      0.00
  -10    7    7      0.28      0.00
   -9    7    7     -0.06      0.00
   -8    7    7      1.24      0.00
   -7    7    7     -0.29      0.00
   -6    7    7     -1.11      0.00
   -5    7    7     -0.15      0.00
   -4    7    7      0.75      0.00
   -3    7    7      2.66      0.00
   -2    7    7     -0.98      0.00
   -1    7    7      2.07      0.00
    0    7    7     -2.06      0.00
    1    7    7      1.13      0.00
    2    7    7     -0.93      0.00
    3    7    7     -0.16      0.00
    4    7    7      0.01      0.00
    5    7    7     -0.12      0.00
    6    7    7      0.27      0.00
  -11    8    7      0.30      0.00
  -10    8    7      0.16      0.00
   -9    8    7     -0.35      0.00
   -8    8    7      0.14      0.00
   -7    8    7     -0.48      0.00
   -6    8    7     -0.77      0.00
   -5    8    7     -0.95      0.00
   -4    8    7      1.05      0.00
   -3    8    7      0.82      0.00
   -2    8    7      0.33      0.00
   -1    8    7     -1.18      0.00
    0    8    7     -0.10      0.00
    1    8    7      1.02      0.00
    2    8    7     -0.25      0.00
    3    8    7     -0.66      0.00
    4    8    7     -0.45      0.00
    5    8    7      0.43      0.00
  -10    9    7     -0.39      0.00
   -9    9    7     -0.03      0.00
   -8    9    7      0.62      0.00
   -7    9    7      0.10      0.00
   -6    9    7      0.46      0.00
   -5    9    7     -0.74      0.00
   -4    9    7      1.25      0.00
   -3    9    7     -0.23      0.00
   -2    9    7     -0.19      0.00
   -1    9    7     -0.41      0.00
    0    9    7      0.07      0.00
    1    9    7      0.06      0.00
    2    9    7     -0.91      0.00
    3    9    7      0.42      0.00
    4    9    7      0.19      0.00
   -9   10    7      0.00      0.00
   -8   10    7      0.30      0.00
   -7   10    7      0.93      0.00
   -6   10    7      0.84      0.00
   -5   10    7     -0.67      0.00
   -4   10    7      0.74      0.00
   -3   10    7     -0.47      0.00
   -2   10    7     -0.30      0.00
   -1   10    7     -1.36      0.00
    0   10    7     -0.22      0.00
    1   10    7      0.24      0.00
    2   10    7      0.75      0.00
    3   10    7      0.01      0.00
   -8   11    7      0.13      0.00
   -7   11    7      0.77      0.00
   -6   11    7     -0.35      0.00
   -5   11    7      0.06      0.00
   -4   11    7      0.42      0.00
   -3   11    7     -0.52      0.00
   -2   11    7      1.20      0.00
   -1   11    7     -0.08      0.00
    0   11    7      0.74      0.00
    1   11    7      0.11      0.00
   -6   12    7     -0.86      0.00
   -5   12    7      0.47      0.00
   -4   12    7     -0.48      0.00
   -3   12    7      0.14      0.00
   -2   12    7     -0.10      0.00
   -1   12    7     -0.25      0.00
   -2  -13    8      0.77      0.00
   -1  -13    8      0.73      0.00
    0  -13    8     -0.22      0.00
    1  -13    8     -0.39      0.00
    2  -13    8     -0.20      0.00
   -4  -12    8     -0.04      0.00
   -3  -12    8      0.17      0.00
   -2  -12    8      0.09      0.00
   -1  -12    8     -0.04      0.00
    0  -12    8      0.75      0.00
    1  -12    8      0.70      0.00
    2  -12    8     -0.15      0.00
    3  -12    8     -0.51      0.00
    4  -12    8     -0.52      0.00
    5  -12    8      0.39      0.00
   -6  -11    8      0.45      0.00
   -5  -11    8      0.32      0.00
   -4  -11    8     -0.03      0.00
   -3  -11    8      0.26      0.00
   -2  -11    8     -0.15      0.00
   -1  -11    8     -0.70      0.00
    0  -11    8      0.86      0.00
    1  -11    8     -0.03      0.00
    2  -11    8     -0.56      0.00
    3  -11    8     -0.50      0.00
    4  -11    8     -0.03      0.00
    5  -11    8      0.16      0.00
    6  -11    8     -0.39      0.00
   -7  -10    8      0.51      0.00
   -6  -10    8     -1.06      0.00
   -5  -10    8      0.47      0.00
   -4  -10    8     -0.03      0.00
   -3  -10    8      1.19      0.00
   -2  -10    8     -0.43      0.00
   -1  -10    8      0.39      0.00
    0  -10    8     -0.03      0.00
    1  -10    8     -0.41      0.00
    2  -10    8     -0.40      0.00
    3  -10    8     -0.63      0.00
    4  -10    8     -0.86      0.00
    5  -10    8      0.37      0.00
    6  -10    8      0.25      0.00
    7  -10    8      0.47      0.00
   -8   -9    8     -0.11      0.00
   -7   -9    8      0.46      0.00
   -6   -9    8     -0.21      0.00
   -5   -9    8      0.58      0.00
   -4   -9    8     -0.20      0.00
   -3   -9    8      0.60      0.00
   -2   -9    8     -0.71      0.00
   -1   -9    8     -1.17      0.00
    0   -9    8     -0.02      0.00
    1   -9    8      0.36      0.00
    2   -9    8     -0.59      0.00
    3   -9    8     -0.45      0.00
    4   -9    8      0.54      0.00
    5   -9    8      0.56      0.00
    6   -9    8      0.19      0.00
    7   -9    8     -0.09      0.00
   -9   -8    8     -0.38      0.00
   -8   -8    8     -0.87      0.00
   -7   -8    8      0.02      0.00
   -6   -8    8     -0.93      0.00
   -5   -8    8      0.24      0.00
   -4   -8    8     -0.45      0.00
   -3   -8    8      1.35      0.00
   -2   -8    8     -1.32      0.00
   -1   -8    8     -0.03      0.00
    0   -8    8      0.14      0.00
    1   -8    8      0.68      0.00
    2   -8    8     -0.21      0.00
    3   -8    8     -0.30      0.00
    4   -8    8      0.25      0.00
    5   -8    8      0.98      0.00
    6   -8    8      0.12      0.00
    7   -8    8      0.64      0.00
    8   -8    8      0.03      0.00
   -9   -7    8     -0.38      0.00
   -8   -7    8      0.30      0.00
   -7   -7    8      0.20      0.00
   -6   -7    8      0.21      0.00
   -5   -7    8      0.00      0.00
   -4   -7    8      0.95      0.00
   -3   -7    8      1.50      0.00
   -2   -7    8     -1.78      0.00
   -1   -7    8     -1.15      0.00
    0   -7    8     -0.78      0.00
    1   -7    8      2.93      0.00
    2   -7    8      0.04      0.00
    3   -7    8      0.66      0.00
    4   -7    8     -0.11      0.00
    5   -7    8      0.24      0.00
    6   -7    8      0.59      0.00
    7   -7    8     -0.48      0.00
    8   -7    8     -0.17      0.00
  -10   -6    8      0.72      0.00
   -9   -6    8     -0.90      0.00
   -8   -6    8      0.80      0.00
   -7   -6    8     -1.06      0.00
   -6   -6    8      0.30      0.00
   -5   -6    8     -1.28      0.00
   -4   -6    8      1.63      0.00
   -3   -6    8      0.40      0.00
   -2   -6    8     -0.38      0.00
   -1   -6    8      0.49      0.00
    0   -6    8      0.20      0.00
    1   -6    8      1.37      0.00
    2   -6    8      0.86      0.00
    3   -6    8      0.13      0.00
    4   -6    8      0.07      0.00
    5   -6    8      0.67      0.00
    6   -6    8     -0.64      0.00
    7   -6    8     -0.18      0.00
    8   -6    8      0.08      0.00
  -10   -5    8     -0.02      0.00
   -9   -5    8     -0.71      0.00
   -8   -5    8      0.77      0.00
   -7   -5    8     -0.31      0.00
   -6   -5    8      1.12      0.00
   -5   -5    8     -2.50      0.00
   -4   -5    8      1.42      0.00
   -3   -5    8     -0.51      0.00
   -2   -5    8      0.69      0.00
   -1   -5    8     -4.05      0.00
    0   -5    8      0.14      0.00
    1   -5    8      3.64      0.00
    2   -5    8      0.14      0.00
    3   -5    8     -1.04      0.00
    4   -5    8     -0.94      0.00
    5   -5    8      0.68      0.00
    6   -5    8     -0.24      0.00
    7   -5    8      0.30      0.00
    8   -5    8     -0.14      0.00
    9   -5    8      0.81      0.00
  -11   -4    8     -0.38      0.00
  -10   -4    8      0.05      0.00
   -9   -4    8     -0.55      0.00
   -8   -4    8      0.63      0.00
   -7   -4    8     -0.39      0.00
   -6   -4    8      0.46      0.00
   -5   -4    8     -2.57      0.00
   -4   -4    8      2.86      0.00
   -3   -4    8      0.45      0.00
   -2   -4    8      3.84      0.00
   -1   -4    8     -1.56      0.00
    0   -4    8      0.74      0.00
    1   -4    8     -3.40      0.00
    2   -4    8      0.38      0.00
    3   -4    8     -1.03      0.00
    4   -4    8     -0.94      0.00
    5   -4    8      0.75      0.00
    6   -4    8     -1.03      0.00
    7   -4    8     -0.07      0.00
    8   -4    8     -0.36      0.00
    9   -4    8      0.51      0.00
  -11   -3    8      0.17      0.00
  -10   -3    8      0.24      0.00
   -9   -3    8      0.23      0.00
   -8   -3    8     -0.07      0.00
   -7   -3    8      0.32      0.00
   -6   -3    8     -0.07      0.00
   -5   -3    8     -2.73      0.00
   -4   -3    8      2.19      0.00
   -3   -3    8      0.33      0.00
   -2   -3    8      4.81      0.00
   -1   -3    8     -7.64      0.00
    0   -3    8     -0.16      0.00
    1   -3    8      1.42      0.00
    2   -3    8      1.58      0.00
    3   -3    8     -3.29      0.00
    4   -3    8     -0.16      0.00
    5   -3    8     -0.06      0.00
    6   -3    8     -0.47      0.00
    7   -3    8      0.85      0.00
    8   -3    8      0.51      0.00
    9   -3    8     -0.04      0.00
  -12   -2    8      0.64      0.00
  -11   -2    8      0.32      0.00
  -10   -2    8     -0.47      0.00
   -9   -2    8     -0.27      0.00
   -8   -2    8     -0.90      0.00
   -7   -2    8      1.20      0.00
   -6   -2    8     -0.67      0.00
   -5   -2    8     -0.70      0.00
   -4   -2    8      0.63      0.00
   -3   -2    8      2.37      0.00
   -2   -2    8      1.92      0.00
   -1   -2    8     -4.66      0.00
    0   -2    8      2.12      0.00
    1   -2    8     -5.70      0.00
    2   -2    8      2.68      0.00
    3   -2    8     -1.42      0.00
    4   -2    8     -0.74      0.00
    5   -2    8      0.16      0.00
    6   -2    8      0.08      0.00
    7   -2    8     -0.08      0.00
    8   -2    8      0.06      0.00
    9   -2    8     -0.20      0.00
  -12   -1    8      0.33      0.00
  -11   -1    8      0.21      0.00
  -10   -1    8     -0.23      0.00
   -9   -1    8      1.04      0.00
   -8   -1    8     -0.65      0.00
   -7   -1    8      2.28      0.00
   -6   -1    8     -0.63      0.00
   -5   -1    8      1.21      0.00
   -4   -1    8     -1.70      0.00
   -3   -1    8      2.35      0.00
   -2   -1    8     -0.08      0.00
   -1   -1    8     -4.98      0.00
    0   -1    8     -3.77      0.00
    1   -1    8      1.95      0.00
    2   -1    8      3.81      0.00
    3   -1    8     -3.09      0.00
    4   -1    8      0.82      0.00
    5   -1    8     -0.61      0.00
    6   -1    8      0.71      0.00
    7   -1    8      0.51      0.00
    8   -1    8     -0.01      0.00
    9   -1    8     -0.74      0.00
  -12    0    8      0.43      0.00
  -11    0    8      0.50      0.00
  -10    0    8      0.04      0.00
   -9    0    8      0.20      0.00
   -8    0    8     -0.29      0.00
   -7    0    8      2.43      0.00
   -6    0    8     -1.18      0.00
   -5    0    8      1.25      0.00
   -4    0    8     -3.39      0.00
   -3    0    8      4.38      0.00
   -2    0    8     -2.89      0.00
   -1    0    8     -0.24      0.00
    0    0    8      0.32      0.00
    1    0    8     -1.57      0.00
    2    0    8      3.31      0.00
    3    0    8     -0.37      0.00
    4    0    8      0.28      0.00
    5    0    8      0.55      0.00
    6    0    8      0.44      0.00
    7    0    8     -0.31      0.00
    8    0    8      0.34      0.00
  -12    1    8     -0.10      0.00
  -11    1    8      0.42      0.00
  -10    1    8      0.36      0.00
   -9    1    8      0.28      0.00
   -8    1    8      0.64      0.00
   -7    1    8      1.36      0.00
   -6    1    8     -0.03      0.00
   -5    1    8      0.43      0.00
   -4    1    8     -3.98      0.00
   -3    1    8      4.77      0.00
   -2    1    8     -1.44      0.00
   -1    1    8      3.55      0.00
    0    1    8     -8.10      0.00
    1    1    8      5.22      0.00
    2    1    8      2.28      0.00
    3    1    8      0.15      0.00
    4    1    8      0.28      0.00
    5    1    8     -0.71      0.00
    6    1    8      1.04      0.00
    7    1    8     -0.24      0.00
    8    1    8     -0.67      0.00
  -12    2    8      0.73      0.00
  -11    2    8      0.69      0.00
  -10    2    8      0.46      0.00
   -9    2    8     -0.40      0.00
   -8    2    8      0.83      0.00
   -7    2    8      0.32      0.00
   -6    2    8      0.71      0.00
   -5    2    8     -0.40      0.00
   -4    2    8      0.73      0.00
   -3    2    8      5.01      0.00
   -2    2    8      1.80      0.00
   -1    2    8      4.21      0.00
    0    2    8     -2.04      0.00
    1    2    8      2.21      0.00
    2    2    8      0.54      0.00
    3    2    8      0.59      0.00
    4    2    8     -0.66      0.00
    5    2    8      0.24      0.00
    6    2    8      0.59      0.00
    7    2    8      0.02      0.00
    8    2    8      0.74      0.00
  -12    3    8      0.40      0.00
  -11    3    8     -0.48      0.00
  -10    3    8      0.04      0.00
   -9    3    8     -1.19      0.00
   -8    3    8      0.44      0.00
   -7    3    8     -0.60      0.00
   -6    3    8      1.13      0.00
   -5    3    8     -1.52      0.00
   -4    3    8      0.65      0.00
   -3    3    8      3.43      0.00
   -2    3    8      3.77      0.00
   -1    3    8      3.24      0.00
    0    3    8     -7.54      0.00
    1    3    8      4.92      0.00
    2    3    8     -0.37      0.00
    3    3    8      0.34      0.00
    4    3    8     -1.07      0.00
    5    3    8      0.16      0.00
    6    3    8      0.60      0.00
    7    3    8     -0.08      0.00
  -12    4    8     -0.34      0.00
  -11    4    8      0.15      0.00
  -10    4    8      0.27      0.00
   -9    4    8     -0.71      0.00
   -8    4    8     -0.24      0.00
   -7    4    8     -0.79      0.00
   -6    4    8      0.43      0.00
   -5    4    8     -2.52      0.00
   -4    4    8      1.32      0.00
   -3    4    8      0.69      0.00
   -2    4    8      4.25      0.00
   -1    4    8      0.27      0.00
    0    4    8     -1.26      0.00
    1    4    8      1.32      0.00
    2    4    8     -0.93      0.00
    3    4    8      0.27      0.00
    4    4    8     -1.30      0.00
    5    4    8      0.38      0.00
    6    4    8      0.42      0.00
    7    4    8      0.39      0.00
  -12    5    8     -0.01      0.00
  -11    5    8     -0.77      0.00
  -10    5    8     -0.45      0.00
   -9    5    8     -0.80      0.00
   -8    5    8     -0.53      0.00
   -7    5    8      0.03      0.00
   -6    5    8      1.45      0.00
   -5    5    8     -0.99      0.00
   -4    5    8      1.74      0.00
   -3    5    8      0.24      0.00
   -2    5    8      5.77      0.00
   -1    5    8     -2.15      0.00
    0    5    8     -1.07      0.00
    1    5    8      0.84      0.00
    2    5    8     -1.07      0.00
    3    5    8     -0.43      0.00
    4    5    8      0.38      0.00
    5    5    8      0.97      0.00
    6    5    8      0.04      0.00
  -11    6    8      0.68      0.00
  -10    6    8     -0.11      0.00
   -9    6    8     -0.30      0.00
   -8    6    8     -1.07      0.00
   -7    6    8      0.30      0.00
   -6    6    8      0.81      0.00
   -5    6    8     -0.99      0.00
   -4    6    8      0.15      0.00
   -3    6    8     -1.18      0.00
   -2    6    8      1.66      0.00
   -1    6    8     -2.48      0.00
    0    6    8      1.40      0.00
    1    6    8     -1.69      0.00
    2    6    8      0.19      0.00
    3    6    8      0.66      0.00
    4    6    8     -0.55      0.00
    5    6    8      0.25      0.00
    6    6    8     -0.38      0.00
  -11    7    8     -0.09      0.00
  -10    7    8     -0.37      0.00
   -9    7    8      0.33      0.00
   -8    7    8     -0.19      0.00
   -7    7    8      1.16      0.00
   -6    7    8      1.64      0.00
   -5    7    8      0.73      0.00
   -4    7    8     -0.23      0.00
   -3    7    8     -1.12      0.00
   -2    7    8      0.67      0.00
   -1    7    8      0.27      0.00
    0    7    8     -0.32      0.00
    1    7    8     -0.94      0.00
    2    7    8      1.23      0.00
    3    7    8      0.65      0.00
    4    7    8      0.23      0.00
    5    7    8      0.13      0.00
  -11    8    8     -0.19      0.00
  -10    8    8      0.28      0.00
   -9    8    8     -0.17      0.00
   -8    8    8     -0.66      0.00
   -7    8    8      0.90      0.00
   -6    8    8      0.46      0.00
   -5    8    8      0.98      0.00
   -4    8    8     -1.50      0.00
   -3    8    8     -0.35      0.00
   -2    8    8      0.77      0.00
   -1    8    8     -0.74      0.00
    0    8    8      0.92      0.00
    1    8    8      0.11      0.00
    2    8    8      0.92      0.00
    3    8    8     -0.81      0.00
    4    8    8     -0.31      0.00
  -10    9    8      0.17      0.00
   -9    9    8     -0.03      0.00
   -8    9    8     -0.25      0.00
   -7    9    8     -0.28      0.00
   -6    9    8     -0.66      0.00
   -5    9    8      0.47      0.00
   -4    9    8     -1.86      0.00
   -3    9    8      0.20      0.00
   -2    9    8     -0.50      0.00
   -1    9    8      1.76      0.00
    0    9    8     -0.41      0.00
    1    9    8     -0.50      0.00
    2    9    8     -0.07      0.00
    3    9    8      0.03      0.00
   -9   10    8     -0.10      0.00
   -8   10    8     -0.06      0.00
   -7   10    8     -0.95      0.00
   -6   10    8     -0.18      0.00
   -5   10    8     -0.75      0.00
   -4   10    8     -0.86      0.00
   -3   10    8      0.82      0.00
   -2   10    8     -0.63      0.00
   -1   10    8      0.32      0.00
    0   10    8      0.03      0.00
    1   10    8      0.11      0.00
    2   10    8      0.37      0.00
   -7   11    8     -0.69      0.00
   -6   11    8      0.27      0.00
   -5   11    8     -0.05      0.00
   -4   11    8      0.35      0.00
   -3   11    8     -0.19      0.00
   -2   11    8      0.67      0.00
   -1   11    8      0.46      0.00
    0   11    8      0.32      0.00
   -4   12    8     -0.34      0.00
    0  -13    9     -0.75      0.00
    1  -13    9     -0.29      0.00
   -4  -12    9     -0.05      0.00
   -3  -12    9      0.18      0.00
   -2  -12    9      0.25      0.00
   -1  -12    9     -0.37      0.00
    0  -12    9     -0.30      0.00
    1  -12    9      0.37      0.00
    2  -12    9      0.54      0.00
    3  -12    9      0.08      0.00
    4  -12    9      0.35      0.00
   -5  -11    9     -0.44      0.00
   -4  -11    9     -0.10      0.00
   -3  -11    9     -0.20      0.00
   -2  -11    9     -0.02      0.00
   -1  -11    9     -0.83      0.00
    0  -11    9     -0.18      0.00
    1  -11    9     -0.17      0.00
    2  -11    9      0.13      0.00
    3  -11    9      0.28      0.00
    4  -11    9      1.11      0.00
    5  -11    9     -0.24      0.00
   -7  -10    9     -0.17      0.00
   -6  -10    9     -0.07      0.00
   -5  -10    9     -0.16      0.00
   -4  -10    9      0.70      0.00
   -3  -10    9     -0.06      0.00
   -2  -10    9      0.44      0.00
   -1  -10    9      0.69      0.00
    0  -10    9     -0.61      0.00
    1  -10    9     -0.04      0.00
    2  -10    9      1.05      0.00
    3  -10    9      0.18      0.00
    4  -10    9      0.05      0.00
    5  -10    9     -0.31      0.00
    6  -10    9      0.76      0.00
   -8   -9    9      1.00      0.00
   -7   -9    9     -0.40      0.00
   -6   -9    9      0.89      0.00
   -5   -9    9     -0.67      0.00
   -4   -9    9      0.20      0.00
   -3   -9    9     -1.08      0.00
   -2   -9    9      1.26      0.00
   -1   -9    9     -0.33      0.00
    0   -9    9      0.22      0.00
    1   -9    9      0.31      0.00
    2   -9    9      0.99      0.00
    3   -9    9      0.45      0.00
    4   -9    9      0.67      0.00
    5   -9    9     -0.67      0.00
    6   -9    9     -0.53      0.00
    7   -9    9     -0.58      0.00
   -9   -8    9      0.33      0.00
   -8   -8    9     -0.03      0.00
   -7   -8    9     -0.10      0.00
   -6   -8    9      0.22      0.00
   -5   -8    9     -0.40      0.00
   -4   -8    9     -0.65      0.00
   -3   -8    9     -0.91      0.00
   -2   -8    9      0.96      0.00
   -1   -8    9     -0.07      0.00
    0   -8    9      0.49      0.00
    1   -8    9     -1.03      0.00
    2   -8    9      1.35      0.00
    3   -8    9     -0.24      0.00
    4   -8    9     -0.06      0.00
    5   -8    9     -0.20      0.00
    6   -8    9     -0.16      0.00
    7   -8    9      0.45      0.00
   -9   -7    9      0.80      0.00
   -8   -7    9     -0.24      0.00
   -7   -7    9      0.88      0.00
   -6   -7    9      0.16      0.00
   -5   -7    9      0.27      0.00
   -4   -7    9     -0.50      0.00
   -3   -7    9     -0.59      0.00
   -2   -7    9      1.50      0.00
   -1   -7    9     -0.32      0.00
    0   -7    9     -0.53      0.00
    1   -7    9     -1.64      0.00
    2   -7    9      0.00      0.00
    3   -7    9      0.00      0.00
    4   -7    9     -0.38      0.00
    5   -7    9     -0.82      0.00
    6   -7    9      0.12      0.00
    7   -7    9     -0.33      0.00
    8   -7    9     -0.32      0.00
  -10   -6    9      0.07      0.00
   -9   -6    9      0.53      0.00
   -8   -6    9     -0.77      0.00
   -7   -6    9      0.42      0.00
   -6   -6    9     -0.93      0.00
   -5   -6    9      0.80      0.00
   -4   -6    9     -1.61      0.00
   -3   -6    9     -0.16      0.00
   -2   -6    9      1.84      0.00
   -1   -6    9      1.72      0.00
    0   -6    9     -0.11      0.00
    1   -6    9     -3.40      0.00
    2   -6    9      0.44      0.00
    3   -6    9     -0.50      0.00
    4   -6    9      0.60      0.00
    5   -6    9     -0.48      0.00
    6   -6    9     -0.27      0.00
    7   -6    9     -0.37      0.00
    8   -6    9      0.16      0.00
  -10   -5    9      0.11      0.00
   -9   -5    9      0.50      0.00
   -8   -5    9     -1.02      0.00
   -7   -5    9      0.88      0.00
   -6   -5    9     -0.37      0.00
   -5   -5    9      1.94      0.00
   -4   -5    9     -2.42      0.00
   -3   -5    9      0.87      0.00
   -2   -5    9     -0.09      0.00
   -1   -5    9      0.89      0.00
    0   -5    9     -1.24      0.00
    1   -5    9     -0.56      0.00
    2   -5    9     -0.64      0.00
    3   -5    9      0.58      0.00
    4   -5    9     -0.17      0.00
    5   -5    9     -1.04      0.00
    6   -5    9      0.82      0.00
    7   -5    9     -0.15      0.00
    8   -5    9     -0.03      0.00
  -11   -4    9      0.14      0.00
  -10   -4    9     -0.70      0.00
   -9   -4    9      0.09      0.00
   -8   -4    9     -0.62      0.00
   -7   -4    9      0.11      0.00
   -6   -4    9     -0.04      0.00
   -5   -4    9      2.67      0.00
   -4   -4    9     -2.14      0.00
   -3   -4    9      0.90      0.00
   -2   -4    9     -1.11      0.00
   -1   -4    9      5.51      0.00
    0   -4    9     -1.24      0.00
    1   -4    9     -2.22      0.00
    2   -4    9     -0.58      0.00
    3   -4    9      1.30      0.00
    4   -4    9      0.28      0.00
    5   -4    9     -0.60      0.00
    6   -4    9      0.48      0.00
    7   -4    9     -0.39      0.00
    8   -4    9     -0.12      0.00
  -11   -3    9     -0.22      0.00
  -10   -3    9      0.56      0.00
   -9   -3    9      0.18      0.00
   -8   -3    9      0.18      0.00
   -7   -3    9     -0.28      0.00
   -6   -3    9      0.80      0.00
   -5   -3    9      1.61      0.00
   -4   -3    9     -2.19      0.00
   -3   -3    9     -1.16      0.00
   -2   -3    9     -2.28      0.00
   -1   -3    9      3.35      0.00
    0   -3    9     -1.27      0.00
    1   -3    9      2.30      0.00
    2   -3    9     -0.46      0.00
    3   -3    9      1.56      0.00
    4   -3    9      0.30      0.00
    5   -3    9     -0.12      0.00
    6   -3    9      0.52      0.00
    7   -3    9      0.10      0.00
    8   -3    9     -0.09      0.00
  -12   -2    9     -0.37      0.00
  -11   -2    9     -0.36      0.00
  -10   -2    9     -0.02      0.00
   -9   -2    9     -0.45      0.00
   -8   -2    9      0.60      0.00
   -7   -2    9     -1.45      0.00
   -6   -2    9      1.28      0.00
   -5   -2    9     -0.10      0.00
   -4   -2    9     -1.02      0.00
   -3   -2    9     -2.03      0.00
   -2   -2    9     -0.32      0.00
   -1   -2    9      6.00      0.00
    0   -2    9      0.27      0.00
    1   -2    9     -0.67      0.00
    2   -2    9     -1.69      0.00
    3   -2    9      3.12      0.00
    4   -2    9     -0.25      0.00
    5   -2    9      0.39      0.00
    6   -2    9     -0.11      0.00
    7   -2    9     -0.41      0.00
    8   -2    9     -0.41      0.00
  -12   -1    9     -0.50      0.00
  -11   -1    9     -0.11      0.00
  -10   -1    9      0.49      0.00
   -9   -1    9      0.15      0.00
   -8   -1    9      0.84      0.00
   -7   -1    9     -1.58      0.00
   -6   -1    9      2.29      0.00
   -5   -1    9     -0.58      0.00
   -4   -1    9      2.26      0.00
   -3   -1    9     -3.50      0.00
   -2   -1    9      2.41      0.00
   -1   -1    9      2.78      0.00
    0   -1    9      0.48      0.00
    1   -1    9      0.68      0.00
    2   -1    9     -1.56      0.00
    3   -1    9      1.12      0.00
    4   -1    9      0.30      0.00
    5   -1    9      0.01      0.00
    6   -1    9     -0.77      0.00
    7   -1    9      0.27      0.00
    8   -1    9     -0.21      0.00
  -12    0    9      0.17      0.00
  -11    0    9     -0.19      0.00
  -10    0    9      0.18      0.00
   -9    0    9     -0.59      0.00
   -8    0    9     -0.07      0.00
   -7    0    9     -1.90      0.00
   -6    0    9      0.74      0.00
   -5    0    9     -1.20      0.00
   -4    0    9      2.64      0.00
   -3    0    9     -3.66      0.00
   -2    0    9      3.78      0.00
   -1    0    9      1.14      0.00
    0    0    9      3.83      0.00
    1    0    9     -3.17      0.00
    2    0    9     -1.25      0.00
    3    0    9      2.00      0.00
    4    0    9     -0.81      0.00
    5    0    9      0.08      0.00
    6    0    9     -1.10      0.00
    7    0    9      0.59      0.00
    8    0    9      0.67      0.00
  -12    1    9     -0.65      0.00
  -11    1    9     -0.47      0.00
  -10    1    9     -0.40      0.00
   -9    1    9      0.33      0.00
   -8    1    9     -0.89      0.00
   -7    1    9     -0.82      0.00
   -6    1    9      0.63      0.00
   -5    1    9      0.26      0.00
   -4    1    9      1.83      0.00
   -3    1    9     -3.91      0.00
   -2    1    9      2.67      0.00
   -1    1    9     -2.14      0.00
    0    1    9      2.68      0.00
    1    1    9     -2.28      0.00
    2    1    9     -0.88      0.00
    3    1    9     -0.63      0.00
    4    1    9      0.03      0.00
    5    1    9     -0.38      0.00
    6    1    9     -0.29      0.00
    7    1    9      0.73      0.00
    8    1    9     -0.40      0.00
  -12    2    9     -0.33      0.00
  -11    2    9     -0.27      0.00
  -10    2    9     -0.22      0.00
   -9    2    9      0.35      0.00
   -8    2    9     -0.97      0.00
   -7    2    9      0.29      0.00
   -6    2    9     -0.16      0.00
   -5    2    9      1.37      0.00
   -4    2    9      0.60      0.00
   -3    2    9     -3.30      0.00
   -2    2    9     -0.56      0.00
   -1    2    9     -1.38      0.00
    0    2    9      5.78      0.00
    1    2    9     -5.15      0.00
    2    2    9     -0.27      0.00
    3    2    9      0.12      0.00
    4    2    9      0.56      0.00
    5    2    9     -0.27      0.00
    6    2    9     -0.01      0.00
    7    2    9      0.36      0.00
  -12    3    9     -0.57      0.00
  -11    3    9     -0.28      0.00
  -10    3    9     -0.42      0.00
   -9    3    9      0.67      0.00
   -8    3    9     -0.33      0.00
   -7    3    9      0.91      0.00
   -6    3    9     -0.02      0.00
   -5    3    9      2.95      0.00
   -4    3    9     -1.05      0.00
   -3    3    9     -1.85      0.00
   -2    3    9     -2.99      0.00
   -1    3    9     -1.17      0.00
    0    3    9      1.06      0.00
    1    3    9     -2.37      0.00
    2    3    9      0.52      0.00
    3    3    9     -0.16      0.00
    4    3    9      0.67      0.00
    5    3    9     -0.28      0.00
    6    3    9     -0.66      0.00
    7    3    9     -0.24      0.00
  -12    4    9     -0.15      0.00
  -11    4    9      0.42      0.00
  -10    4    9      0.13      0.00
   -9    4    9      0.90      0.00
   -8    4    9      0.14      0.00
   -7    4    9      0.17      0.00
   -6    4    9     -0.31      0.00
   -5    4    9      2.55      0.00
   -4    4    9     -1.46      0.00
   -3    4    9     -1.79      0.00
   -2    4    9     -5.45      0.00
   -1    4    9      1.54      0.00
    0    4    9      1.70      0.00
    1    4    9     -1.98      0.00
    2    4    9      1.36      0.00
    3    4    9      0.25      0.00
    4    4    9      0.16      0.00
    5    4    9     -0.85      0.00
    6    4    9      0.17      0.00
  -12    5    9      0.84      0.00
  -11    5    9     -0.75      0.00
  -10    5    9     -0.03      0.00
   -9    5    9      0.42      0.00
   -8    5    9      0.56      0.00
   -7    5    9     -0.20      0.00
   -6    5    9      0.50      0.00
   -5    5    9      2.49      0.00
   -4    5    9     -1.23      0.00
   -3    5    9     -0.35      0.00
   -2    5    9     -2.46      0.00
   -1    5    9      2.13      0.00
    0    5    9     -1.18      0.00
    1    5    9      1.66      0.00
    2    5    9      0.30      0.00
    3    5    9     -0.82      0.00
    4    5    9      0.77      0.00
    5    5    9     -0.56      0.00
    6    5    9      0.07      0.00
  -11    6    9     -0.42      0.00
  -10    6    9      0.26      0.00
   -9    6    9     -0.25      0.00
   -8    6    9     -0.15      0.00
   -7    6    9     -1.25      0.00
   -6    6    9     -1.16      0.00
   -5    6    9      0.00      0.00
   -4    6    9     -0.84      0.00
   -3    6    9      0.28      0.00
   -2    6    9     -2.54      0.00
   -1    6    9      0.31      0.00
    0    6    9      0.82      0.00
    1    6    9      0.45      0.00
    2    6    9     -1.10      0.00
    3    6    9     -0.45      0.00
    4    6    9     -0.01      0.00
    5    6    9     -0.11      0.00
  -11    7    9     -0.27      0.00
  -10    7    9     -0.26      0.00
   -9    7    9      0.11      0.00
   -8    7    9      0.29      0.00
   -7    7    9     -1.56      0.00
   -6    7    9     -1.16      0.00
   -5    7    9     -0.98      0.00
   -4    7    9      0.92      0.00
   -3    7    9     -0.04      0.00
   -2    7    9     -1.16      0.00
   -1    7    9      1.96      0.00
    0    7    9     -1.21      0.00
    1    7    9      0.58      0.00
    2    7    9     -0.45      0.00
    3    7    9      0.78      0.00
    4    7    9      0.54      0.00
  -10    8    9     -0.13      0.00
   -9    8    9      0.06      0.00
   -8    8    9      0.00      0.00
   -7    8    9     -0.79      0.00
   -6    8    9     -0.03      0.00
   -5    8    9     -0.17      0.00
   -4    8    9      1.93      0.00
   -3    8    9     -0.23      0.00
   -2    8    9      0.95      0.00
   -1    8    9     -1.32      0.00
    0    8    9      0.74      0.00
    1    8    9      0.48      0.00
    2    8    9     -1.00      0.00
    3    8    9      0.09      0.00
   -9    9    9      0.03      0.00
   -8    9    9      0.02      0.00
   -7    9    9      0.15      0.00
   -6    9    9      0.35      0.00
   -5    9    9      0.41      0.00
   -4    9    9      1.15      0.00
   -3    9    9     -0.54      0.00
   -2    9    9      0.27      0.00
   -1    9    9     -0.61      0.00
    0    9    9     -0.84      0.00
    1    9    9     -0.02      0.00
    2    9    9     -0.07      0.00
   -8   10    9      0.42      0.00
   -7   10    9      0.60      0.00
   -6   10    9      0.36      0.00
   -5   10    9     -0.14      0.00
   -4   10    9      0.32      0.00
   -3   10    9      0.56      0.00
   -2   10    9     -0.95      0.00
   -1   10    9     -0.37      0.00
    0   10    9      0.44      0.00
    1   10    9      0.49      0.00
   -7   11    9      0.87      0.00
   -6   11    9     -0.03      0.00
   -5   11    9      1.54      0.00
   -4   11    9      0.43      0.00
   -3   11    9     -0.02      0.00
   -2   11    9     -0.11      0.00
   -1   11    9      0.30      0.00
   -3  -12   10     -0.21      0.00
   -2  -12   10     -0.07      0.00
   -1  -12   10      0.77      0.00
    0  -12   10      0.34      0.00
    1  -12   10      0.28      0.00
    2  -12   10     -0.04      0.00
    3  -12   10     -0.02      0.00
   -5  -11   10     -0.17      0.00
   -4  -11   10     -0.82      0.00
   -3  -11   10     -0.20      0.00
   -2  -11   10     -0.71      0.00
   -1  -11   10      0.18      0.00
    0  -11   10      0.65      0.00
    1  -11   10     -0.22      0.00
    2  -11   10     -0.80      0.00
    3  -11   10      0.07      0.00
    4  -11   10     -0.62      0.00
   -6  -10   10     -0.73      0.00
   -5  -10   10      0.80      0.00
   -4  -10   10      0.23      0.00
   -3  -10   10      0.17      0.00
   -2  -10   10     -0.54      0.00
   -1  -10   10      0.61      0.00
    0  -10   10     -0.51      0.00
    1  -10   10     -0.23      0.00
    2  -10   10     -0.36      0.00
    3  -10   10     -0.26      0.00
    4  -10   10     -1.14      0.00
    5  -10   10      0.28      0.00
   -7   -9   10      0.01      0.00
   -6   -9   10     -0.58      0.00
   -5   -9   10      0.26      0.00
   -4   -9   10     -0.25      0.00
   -3   -9   10     -0.13      0.00
   -2   -9   10     -0.34      0.00
   -1   -9   10      0.21      0.00
    0   -9   10      0.15      0.00
    1   -9   10     -0.19      0.00
    2   -9   10     -1.89      0.00
    3   -9   10     -0.07      0.00
    4   -9   10     -0.31      0.00
    5   -9   10      0.44      0.00
    6   -9   10     -0.47      0.00
   -8   -8   10     -0.06      0.00
   -7   -8   10     -0.47      0.00
   -6   -8   10     -0.25      0.00
   -5   -8   10      0.48      0.00
   -4   -8   10     -0.31      0.00
   -3   -8   10      0.92      0.00
   -2   -8   10     -1.32      0.00
   -1   -8   10      0.49      0.00
    0   -8   10     -0.61      0.00
    1   -8   10      0.35      0.00
    2   -8   10     -0.74      0.00
    3   -8   10     -0.39      0.00
    4   -8   10     -0.09      0.00
    5   -8   10      0.70      0.00
    6   -8   10      0.32      0.00
    7   -8   10      0.30      0.00
   -9   -7   10     -0.50      0.00
   -8   -7   10      0.28      0.00
   -7   -7   10     -0.47      0.00
   -6   -7   10      0.42      0.00
   -5   -7   10      0.12      0.00
   -4   -7   10      1.53      0.00
   -3   -7   10      0.52      0.00
   -2   -7   10     -1.44      0.00
   -1   -7   10      0.09      0.00
    0   -7   10      0.10      0.00
    1   -7   10      1.25      0.00
    2   -7   10     -2.23      0.00
    3   -7   10      0.35      0.00
    4   -7   10     -0.02      0.00
    5   -7   10      0.25      0.00
    6   -7   10      0.15      0.00
    7   -7   10      0.17      0.00
  -10   -6   10     -0.34      0.00
   -9   -6   10     -0.50      0.00
   -8   -6   10      0.89      0.00
   -7   -6   10     -1.16      0.00
   -6   -6   10      0.04      0.00
   -5   -6   10     -1.01      0.00
   -4   -6   10      1.19      0.00
   -3   -6   10     -0.84      0.00
   -2   -6   10     -1.61      0.00
   -1   -6   10      0.30      0.00
    0   -6   10      1.39      0.00
    1   -6   10      1.42      0.00
    2   -6   10      0.51      0.00
    3   -6   10     -0.09      0.00
    4   -6   10     -0.13      0.00
    5   -6   10      0.94      0.00
    6   -6   10     -0.19      0.00
    7   -6   10      0.41      0.00
  -10   -5   10      0.44      0.00
   -9   -5   10     -0.12      0.00
   -8   -5   10      0.79      0.00
   -7   -5   10     -0.70      0.00
   -6   -5   10      0.37      0.00
   -5   -5   10     -1.44      0.00
   -4   -5   10      2.09      0.00
   -3   -5   10     -1.78      0.00
   -2   -5   10     -1.56      0.00
   -1   -5   10     -2.43      0.00
    0   -5   10      1.69      0.00
    1   -5   10      2.72      0.00
    2   -5   10     -0.64      0.00
    3   -5   10      0.28      0.00
    4   -5   10     -0.14      0.00
    5   -5   10      0.90      0.00
    6   -5   10     -0.04      0.00
    7   -5   10      0.28      0.00
  -11   -4   10      0.06      0.00
  -10   -4   10     -0.71      0.00
   -9   -4   10      0.35      0.00
   -8   -4   10      0.44      0.00
   -7   -4   10     -0.32      0.00
   -6   -4   10     -0.40      0.00
   -5   -4   10     -1.40      0.00
   -4   -4   10      2.18      0.00
   -3   -4   10     -1.30      0.00
   -2   -4   10      0.82      0.00
   -1   -4   10     -1.52      0.00
    0   -4   10      2.08      0.00
    1   -4   10      0.22      0.00
    2   -4   10      0.51      0.00
    3   -4   10     -1.20      0.00
    4   -4   10      0.30      0.00
    5   -4   10      0.43      0.00
    6   -4   10     -0.72      0.00
    7   -4   10     -0.17      0.00
    8   -4   10     -0.18      0.00
  -11   -3   10      0.19      0.00
  -10   -3   10      0.55      0.00
   -9   -3   10      0.13      0.00
   -8   -3   10     -0.25      0.00
   -7   -3   10      0.58      0.00
   -6   -3   10     -1.33      0.00
   -5   -3   10     -0.81      0.00
   -4   -3   10      2.12      0.00
   -3   -3   10      0.50      0.00
   -2   -3   10     -0.04      0.00
   -1   -3   10     -4.60      0.00
    0   -3   10      2.40      0.00
    1   -3   10      1.35      0.00
    2   -3   10     -0.21      0.00
    3   -3   10     -1.17      0.00
    4   -3   10      0.24      0.00
    5   -3   10     -0.21      0.00
    6   -3   10     -0.34      0.00
    7   -3   10     -0.32      0.00
    8   -3   10      0.20      0.00
  -11   -2   10      0.32      0.00
  -10   -2   10     -0.81      0.00
   -9   -2   10      0.04      0.00
   -8   -2   10     -0.89      0.00
   -7   -2   10      0.87      0.00
   -6   -2   10     -2.60      0.00
   -5   -2   10      0.22      0.00
   -4   -2   10      0.36      0.00
   -3   -2   10      2.30      0.00
   -2   -2   10     -0.05      0.00
   -1   -2   10     -2.23      0.00
    0   -2   10      0.62      0.00
    1   -2   10     -0.33      0.00
    2   -2   10      0.56      0.00
    3   -2   10     -1.36      0.00
    4   -2   10     -0.05      0.00
    5   -2   10     -0.99      0.00
    6   -2   10      0.37      0.00
    7   -2   10     -0.30      0.00
    8   -2   10      0.20      0.00
  -12   -1   10      0.13      0.00
  -11   -1   10     -0.07      0.00
  -10   -1   10     -0.73      0.00
   -9   -1   10      0.13      0.00
   -8   -1   10     -0.47      0.00
   -7   -1   10      1.57      0.00
   -6   -1   10     -1.69      0.00
   -5   -1   10      1.48      0.00
   -4   -1   10     -0.24      0.00
   -3   -1   10      3.62      0.00
   -2   -1   10     -2.91      0.00
   -1   -1   10     -2.61      0.00
    0   -1   10      0.33      0.00
    1   -1   10      1.32      0.00
    2   -1   10     -0.48      0.00
    3   -1   10     -2.71      0.00
    4   -1   10      0.57      0.00
    5   -1   10      0.13      0.00
    6   -1   10      0.95      0.00
    7   -1   10     -0.36      0.00
  -12    0   10      0.38      0.00
  -11    0   10     -0.13      0.00
  -10    0   10     -0.23      0.00
   -9    0   10     -0.22      0.00
   -8    0   10      0.24      0.00
   -7    0   10      0.79      0.00
   -6    0   10     -2.12      0.00
   -5    0   10      0.44      0.00
   -4    0   10     -1.95      0.00
   -3    0   10      3.22      0.00
   -2    0   10     -3.67      0.00
   -1    0   10      0.41      0.00
    0    0   10     -2.15      0.00
    1    0   10      1.10      0.00
    2    0   10      0.48      0.00
    3    0   10      0.25      0.00
    4    0   10      0.31      0.00
    5    0   10      0.08      0.00
    6    0   10      0.31      0.00
    7    0   10     -0.54      0.00
  -12    1   10     -0.36      0.00
  -11    1   10      0.11      0.00
  -10    1   10      0.00      0.00
   -9    1   10      0.14      0.00
   -8    1   10      0.92      0.00
   -7    1   10      0.14      0.00
   -6    1   10     -0.27      0.00
   -5    1   10      0.05      0.00
   -4    1   10     -0.65      0.00
   -3    1   10      3.02      0.00
   -2    1   10     -2.43      0.00
   -1    1   10     -0.64      0.00
    0    1   10     -3.10      0.00
    1    1   10      3.72      0.00
    2    1   10     -0.19      0.00
    3    1   10     -0.93      0.00
    4    1   10      0.19      0.00
    5    1   10      0.44      0.00
    6    1   10     -0.10      0.00
    7    1   10     -0.73      0.00
  -12    2   10      0.75      0.00
  -11    2   10      0.20      0.00
  -10    2   10      0.52      0.00
   -9    2   10     -0.33      0.00
   -8    2   10      1.12      0.00
   -7    2   10     -0.53      0.00
   -6    2   10      0.16      0.00
   -5    2   10     -1.95      0.00
   -4    2   10      0.30      0.00
   -3    2   10      1.62      0.00
   -2    2   10     -0.28      0.00
   -1    2   10      0.88      0.00
    0    2   10     -0.92      0.00
    1    2   10      1.89      0.00
    2    2   10      0.03      0.00
    3    2   10      0.59      0.00
    4    2   10     -0.04      0.00
    5    2   10      0.15      0.00
    6    2   10      0.28      0.00
    7    2   10     -0.45      0.00
  -12    3   10      0.38      0.00
  -11    3   10      0.34      0.00
  -10    3   10      0.26      0.00
   -9    3   10     -0.44      0.00
   -8    3   10      0.42      0.00
   -7    3   10     -0.29      0.00
   -6    3   10     -0.15      0.00
   -5    3   10     -2.75      0.00
   -4    3   10      0.90      0.00
   -3    3   10      1.86      0.00
   -2    3   10      2.50      0.00
   -1    3   10     -1.44      0.00
    0    3   10     -2.01      0.00
    1    3   10      2.86      0.00
    2    3   10     -0.58      0.00
    3    3   10      0.14      0.00
    4    3   10     -0.75      0.00
    5    3   10      0.80      0.00
    6    3   10     -1.09      0.00
  -12    4   10     -0.16      0.00
  -11    4   10      0.54      0.00
  -10    4   10      0.17      0.00
   -9    4   10     -0.01      0.00
   -8    4   10      0.03      0.00
   -7    4   10     -0.17      0.00
   -6    4   10     -1.40      0.00
   -5    4   10     -3.35      0.00
   -4    4   10      1.81      0.00
   -3    4   10      0.60      0.00
   -2    4   10      2.23      0.00
   -1    4   10     -1.58      0.00
    0    4   10      1.52      0.00
    1    4   10     -0.53      0.00
    2    4   10     -0.13      0.00
    3    4   10      0.67      0.00
    4    4   10     -0.46      0.00
    5    4   10      0.51      0.00
    6    4   10      0.65      0.00
  -11    5   10      1.05      0.00
  -10    5   10      0.12      0.00
   -9    5   10      0.14      0.00
   -8    5   10      0.20      0.00
   -7    5   10      0.71      0.00
   -6    5   10      0.01      0.00
   -5    5   10     -1.35      0.00
   -4    5   10      1.32      0.00
   -3    5   10      0.68      0.00
   -2    5   10      3.00      0.00
   -1    5   10     -0.41      0.00
    0    5   10     -1.00      0.00
    1    5   10      0.39      0.00
    2    5   10      0.26      0.00
    3    5   10      0.46      0.00
    4    5   10     -0.34      0.00
    5    5   10      0.09      0.00
  -11    6   10      0.72      0.00
  -10    6   10      0.24      0.00
   -9    6   10      0.10      0.00
   -8    6   10      0.30      0.00
   -7    6   10      1.62      0.00
   -6    6   10      0.47      0.00
   -5    6   10      0.09      0.00
   -4    6   10      0.13      0.00
   -3    6   10      0.48      0.00
   -2    6   10      1.37      0.00
   -1    6   10     -2.40      0.00
    0    6   10      1.16      0.00
    1    6   10     -1.34      0.00
    2    6   10      0.35      0.00
    3    6   10     -0.27      0.00
    4    6   10     -0.82      0.00
  -11    7   10      1.05      0.00
  -10    7   10     -0.05      0.00
   -9    7   10      0.16      0.00
   -8    7   10      0.43      0.00
   -7    7   10      1.27      0.00
   -6    7   10      0.34      0.00
   -5    7   10      0.24      0.00
   -4    7   10     -0.98      0.00
   -3    7   10      0.85      0.00
   -2    7   10     -0.28      0.00
   -1    7   10      0.66      0.00
    0    7   10     -0.92      0.00
    1    7   10      0.00      0.00
    2    7   10      1.34      0.00
    3    7   10     -0.42      0.00
    4    7   10     -0.06      0.00
  -10    8   10      0.20      0.00
   -9    8   10      0.20      0.00
   -8    8   10      0.03      0.00
   -7    8   10      0.90      0.00
   -6    8   10      0.28      0.00
   -5    8   10      0.31      0.00
   -4    8   10     -1.20      0.00
   -3    8   10      0.67      0.00
   -2    8   10      0.03      0.00
   -1    8   10      0.24      0.00
    0    8   10      1.02      0.00
    1    8   10     -0.44      0.00
    2    8   10     -0.44      0.00
    3    8   10     -0.74      0.00
   -9    9   10     -0.72      0.00
   -8    9   10     -0.05      0.00
   -7    9   10      0.10      0.00
   -6    9   10     -0.58      0.00
   -5    9   10      0.21      0.00
   -4    9   10     -0.66      0.00
   -3    9   10     -0.44      0.00
   -2    9   10      0.49      0.00
   -1    9   10     -0.37      0.00
    0    9   10     -0.55      0.00
    1    9   10     -0.80      0.00
   -8   10   10      0.42      0.00
   -7   10   10     -0.92      0.00
   -6   10   10     -0.15      0.00
   -5   10   10     -1.16      0.00
   -4   10   10     -0.80      0.00
   -3   10   10      0.09      0.00
   -2   10   10     -0.06      0.00
   -1   10   10      0.26      0.00
    0   10   10      0.56      0.00
   -5   11   10     -0.93      0.00
   -4   11   10     -0.03      0.00
   -3   11   10     -0.43      0.00
   -2  -12   11      0.35      0.00
   -1  -12   11     -0.36      0.00
    0  -12   11     -0.30      0.00
    1  -12   11      0.44      0.00
   -5  -11   11     -0.72      0.00
   -4  -11   11     -0.18      0.00
   -3  -11   11      0.24      0.00
   -2  -11   11      0.05      0.00
   -1  -11   11     -0.61      0.00
    0  -11   11      0.03      0.00
    1  -11   11     -0.09      0.00
    2  -11   11     -0.04      0.00
    3  -11   11     -0.06      0.00
   -6  -10   11      0.66      0.00
   -5  -10   11      0.01      0.00
   -4  -10   11      0.94      0.00
   -3  -10   11      0.66      0.00
   -2  -10   11      0.48      0.00
   -1  -10   11     -0.48      0.00
    0  -10   11     -0.63      0.00
    1  -10   11      0.49      0.00
    2  -10   11      1.06      0.00
    3  -10   11      0.07      0.00
    4  -10   11      0.84      0.00
    5  -10   11     -0.36      0.00
   -7   -9   11      0.32      0.00
   -6   -9   11      0.12      0.00
   -5   -9   11     -0.89      0.00
   -4   -9   11      0.07      0.00
   -3   -9   11     -0.34      0.00
   -2   -9   11      0.59      0.00
   -1   -9   11     -0.12      0.00
    0   -9   11      1.16      0.00
    1   -9   11      0.23      0.00
    2   -9   11      0.21      0.00
    3   -9   11      0.61      0.00
    4   -9   11      0.13      0.00
    5   -9   11     -0.44      0.00
   -8   -8   11      0.31      0.00
   -7   -8   11      0.30      0.00
   -6   -8   11      0.30      0.00
   -5   -8   11     -0.42      0.00
   -4   -8   11     -0.62      0.00
   -3   -8   11      0.11      0.00
   -2   -8   11      0.49      0.00
   -1   -8   11     -0.35      0.00
    0   -8   11     -0.15      0.00
    1   -8   11      0.64      0.00
    2   -8   11      2.68      0.00
    3   -8   11     -0.07      0.00
    4   -8   11     -0.45      0.00
    5   -8   11     -0.50      0.00
    6   -8   11      0.29      0.00
   -9   -7   11      0.44      0.00
   -8   -7   11     -0.53      0.00
   -7   -7   11      1.10      0.00
   -6   -7   11     -0.06      0.00
   -5   -7   11     -0.03      0.00
   -4   -7   11     -0.17      0.00
   -3   -7   11     -0.41      0.00
   -2   -7   11      1.52      0.00
   -1   -7   11     -0.81      0.00
    0   -7   11      0.31      0.00
    1   -7   11     -0.26      0.00
    2   -7   11      0.15      0.00
    3   -7   11      0.09      0.00
    4   -7   11      0.34      0.00
    5   -7   11     -0.60      0.00
    6   -7   11     -0.06      0.00
  -10   -6   11     -0.12      0.00
   -9   -6   11      0.12      0.00
   -8   -6   11     -0.58      0.00
   -7   -6   11      0.92      0.00
   -6   -6   11     -0.60      0.00
   -5   -6   11      0.30      0.00
   -4   -6   11     -1.80      0.00
   -3   -6   11      1.55      0.00
   -2   -6   11      1.61      0.00
   -1   -6   11      0.42      0.00
    0   -6   11     -1.09      0.00
    1   -6   11     -0.80      0.00
    2   -6   11      1.84      0.00
    3   -6   11     -0.29      0.00
    4   -6   11     -0.36      0.00
    5   -6   11     -0.57      0.00
    6   -6   11     -0.01      0.00
    7   -6   11     -0.42      0.00
  -10   -5   11      0.71      0.00
   -9   -5   11     -0.60      0.00
   -8   -5   11     -0.51      0.00
   -7   -5   11      0.86      0.00
   -6   -5   11      0.17      0.00
   -5   -5   11      0.88      0.00
   -4   -5   11     -1.32      0.00
   -3   -5   11      2.26      0.00
   -2   -5   11      0.61      0.00
   -1   -5   11     -0.17      0.00
    0   -5   11     -2.03      0.00
    1   -5   11     -0.58      0.00
    2   -5   11     -0.35      0.00
    3   -5   11      0.68      0.00
    4   -5   11      0.34      0.00
    5   -5   11     -0.87      0.00
    6   -5   11      0.20      0.00
    7   -5   11     -0.07      0.00
  -11   -4   11      0.11      0.00
  -10   -4   11     -0.59      0.00
   -9   -4   11     -0.23      0.00
   -8   -4   11      0.09      0.00
   -7   -4   11      0.33      0.00
   -6   -4   11      0.62      0.00
   -5   -4   11      0.71      0.00
   -4   -4   11     -2.05      0.00
   -3   -4   11      1.93      0.00
   -2   -4   11      0.74      0.00
   -1   -4   11      2.37      0.00
    0   -4   11     -2.85      0.00
    1   -4   11     -1.68      0.00
    2   -4   11      1.09      0.00
    3   -4   11     -0.33      0.00
    4   -4   11     -0.59      0.00
    5   -4   11     -0.01      0.00
    6   -4   11      0.20      0.00
    7   -4   11      0.56      0.00
  -11   -3   11     -0.44      0.00
  -10   -3   11      0.77      0.00
   -9   -3   11     -0.69      0.00
   -8   -3   11      0.50      0.00
   -7   -3   11     -0.45      0.00
   -6   -3   11      1.50      0.00
   -5   -3   11     -0.48      0.00
   -4   -3   11     -1.72      0.00
   -3   -3   11      0.23      0.00
   -2   -3   11     -0.83      0.00
   -1   -3   11      0.91      0.00
    0   -3   11     -2.11      0.00
    1   -3   11      0.58      0.00
    2   -3   11     -0.80      0.00
    3   -3   11      1.15      0.00
    4   -3   11     -0.34      0.00
    5   -3   11      1.07      0.00
    6   -3   11      0.27      0.00
    7   -3   11      0.67      0.00
  -11   -2   11      0.02      0.00
  -10   -2   11      0.72      0.00
   -9   -2   11      0.08      0.00
   -8   -2   11      0.61      0.00
   -7   -2   11     -0.98      0.00
   -6   -2   11      1.91      0.00
   -5   -2   11     -1.22      0.00
   -4   -2   11     -1.48      0.00
   -3   -2   11     -2.33      0.00
   -2   -2   11      0.90      0.00
   -1   -2   11      2.26      0.00
    0   -2   11     -2.64      0.00
    1   -2   11     -0.84      0.00
    2   -2   11      1.31      0.00
    3   -2   11      1.48      0.00
    4   -2   11     -0.37      0.00
    5   -2   11      0.21      0.00
    6   -2   11     -0.40      0.00
    7   -2   11      0.39      0.00
  -11   -1   11      0.21      0.00
  -10   -1   11      0.82      0.00
   -9   -1   11     -0.14      0.00
   -8   -1   11      0.40      0.00
   -7   -1   11     -0.67      0.00
   -6   -1   11      2.81      0.00
   -5   -1   11     -1.39      0.00
   -4   -1   11      0.01      0.00
   -3   -1   11     -2.73      0.00
   -2   -1   11      1.92      0.00
   -1   -1   11     -0.14      0.00
    0   -1   11      0.29      0.00
    1   -1   11      0.24      0.00
    2   -1   11     -0.70      0.00
    3   -1   11      0.14      0.00
    4   -1   11     -0.40      0.00
    5   -1   11      0.80      0.00
    6   -1   11     -0.13      0.00
    7   -1   11     -0.01      0.00
  -12    0   11      0.71      0.00
  -11    0   11      0.51      0.00
  -10    0   11      0.47      0.00
   -9    0   11     -0.04      0.00
   -8    0   11     -0.55      0.00
   -7    0   11     -0.01      0.00
   -6    0   11      0.99      0.00
   -5    0   11     -1.41      0.00
   -4    0   11     -0.43      0.00
   -3    0   11     -3.32      0.00
   -2    0   11      2.44      0.00
   -1    0   11      1.00      0.00
    0    0   11      0.35      0.00
    1    0   11     -1.97      0.00
    2    0   11      1.11      0.00
    3    0   11      1.59      0.00
    4    0   11     -0.50      0.00
    5    0   11     -0.42      0.00
    6    0   11     -0.53      0.00
    7    0   11      0.46      0.00
  -12    1   11     -0.26      0.00
  -11    1   11      0.14      0.00
  -10    1   11     -0.28      0.00
   -9    1   11      0.07      0.00
   -8    1   11     -1.18      0.00
   -7    1   11      0.17      0.00
   -6    1   11      0.18      0.00
   -5    1   11      0.12      0.00
   -4    1   11     -0.13      0.00
   -3    1   11     -1.61      0.00
   -2    1   11      2.51      0.00
   -1    1   11     -0.63      0.00
    0    1   11      0.71      0.00
    1    1   11     -0.46      0.00
    2    1   11     -0.26      0.00
    3    1   11     -0.83      0.00
    4    1   11     -0.12      0.00
    5    1   11     -0.33      0.00
    6    1   11      0.24      0.00
  -12    2   11      0.01      0.00
  -11    2   11     -0.43      0.00
  -10    2   11     -0.42      0.00
   -9    2   11      0.00      0.00
   -8    2   11     -1.03      0.00
   -7    2   11      0.16      0.00
   -6    2   11     -0.14      0.00
   -5    2   11      1.20      0.00
   -4    2   11     -0.84      0.00
   -3    2   11     -1.16      0.00
   -2    2   11      0.53      0.00
   -1    2   11      1.23      0.00
    0    2   11      1.84      0.00
    1    2   11     -2.98      0.00
    2    2   11      0.09      0.00
    3    2   11     -0.08      0.00
    4    2   11      0.75      0.00
    5    2   11     -0.41      0.00
    6    2   11      1.47      0.00
  -12    3   11     -0.27      0.00
  -11    3   11     -0.26      0.00
  -10    3   11     -0.35      0.00
   -9    3   11     -0.53      0.00
   -8    3   11     -0.78      0.00
   -7    3   11      0.39      0.00
   -6    3   11      0.85      0.00
   -5    3   11      2.59      0.00
   -4    3   11     -1.56      0.00
   -3    3   11     -0.13      0.00
   -2    3   11     -0.96      0.00
   -1    3   11      1.06      0.00
    0    3   11     -1.51      0.00
    1    3   11     -0.64      0.00
    2    3   11     -0.30      0.00
    3    3   11     -0.41      0.00
    4    3   11      0.15      0.00
    5    3   11     -0.25      0.00
    6    3   11     -0.93      0.00
  -11    4   11     -1.38      0.00
  -10    4   11     -0.48      0.00
   -9    4   11     -0.25      0.00
   -8    4   11     -0.20      0.00
   -7    4   11     -0.31      0.00
   -6    4   11      0.47      0.00
   -5    4   11      2.48      0.00
   -4    4   11     -1.18      0.00
   -3    4   11     -0.78      0.00
   -2    4   11     -1.39      0.00
   -1    4   11      0.41      0.00
    0    4   11      0.61      0.00
    1    4   11     -1.55      0.00
    2    4   11      0.23      0.00
    3    4   11     -0.62      0.00
    4    4   11      0.76      0.00
    5    4   11     -0.43      0.00
  -11    5   11     -0.85      0.00
  -10    5   11     -0.26      0.00
   -9    5   11     -0.42      0.00
   -8    5   11     -0.47      0.00
   -7    5   11     -0.98      0.00
   -6    5   11      1.25      0.00
   -5    5   11      1.28      0.00
   -4    5   11     -1.21      0.00
   -3    5   11     -0.15      0.00
   -2    5   11     -1.10      0.00
   -1    5   11      1.62      0.00
    0    5   11     -1.30      0.00
    1    5   11      0.88      0.00
    2    5   11     -0.59      0.00
    3    5   11     -0.31      0.00
    4    5   11      0.58      0.00
  -11    6   11     -1.81      0.00
  -10    6   11      0.13      0.00
   -9    6   11     -0.35      0.00
   -8    6   11     -0.50      0.00
   -7    6   11     -0.86      0.00
   -6    6   11      0.00      0.00
   -5    6   11     -0.12      0.00
   -4    6   11     -0.11      0.00
   -3    6   11     -1.06      0.00
   -2    6   11     -0.64      0.00
   -1    6   11     -0.51      0.00
    0    6   11      0.96      0.00
    1    6   11     -0.56      0.00
    2    6   11     -0.83      0.00
    3    6   11      0.54      0.00
    4    6   11      0.27      0.00
  -10    7   11     -0.08      0.00
   -9    7   11     -0.32      0.00
   -8    7   11     -0.30      0.00
   -7    7   11     -1.37      0.00
   -6    7   11     -0.59      0.00
   -5    7   11     -0.50      0.00
   -4    7   11      0.95      0.00
   -3    7   11     -1.07      0.00
   -2    7   11     -0.58      0.00
   -1    7   11      0.63      0.00
    0    7   11     -0.73      0.00
    1    7   11      0.75      0.00
    2    7   11      0.40      0.00
    3    7   11      0.89      0.00
   -9    8   11      0.46      0.00
   -8    8   11     -0.06      0.00
   -7    8   11     -0.73      0.00
   -6    8   11      0.27      0.00
   -5    8   11     -0.61      0.00
   -4    8   11      0.44      0.00
   -3    8   11     -0.80      0.00
   -2    8   11     -0.05      0.00
   -1    8   11      1.34      0.00
    0    8   11     -0.07      0.00
    1    8   11      0.80      0.00
    2    8   11     -0.34      0.00
   -8    9   11     -0.10      0.00
   -7    9   11      0.24      0.00
   -6    9   11      0.01      0.00
   -5    9   11      0.56      0.00
   -4    9   11      0.78      0.00
   -3    9   11     -0.62      0.00
   -2    9   11      0.83      0.00
   -1    9   11     -0.82      0.00
    0    9   11     -0.34      0.00
   -7   10   11     -0.19      0.00
   -6   10   11     -0.32      0.00
   -5   10   11      0.53      0.00
   -4   10   11     -0.05      0.00
   -3   10   11      1.24      0.00
   -2   10   11     -0.14      0.00
   -4  -11   12     -0.92      0.00
   -3  -11   12     -0.52      0.00
   -2  -11   12     -0.23      0.00
   -1  -11   12      0.36      0.00
    0  -11   12      0.56      0.00
    1  -11   12     -0.52      0.00
    2  -11   12     -0.18      0.00
   -6  -10   12     -0.01      0.00
   -5  -10   12      0.84      0.00
   -4  -10   12      0.17      0.00
   -3  -10   12     -0.29      0.00
   -2  -10   12     -0.07      0.00
   -1  -10   12     -0.07      0.00
    0  -10   12     -0.07      0.00
    1  -10   12     -0.09      0.00
    2  -10   12      0.23      0.00
    3  -10   12     -0.36      0.00
    4  -10   12     -0.06      0.00
   -7   -9   12     -0.16      0.00
   -6   -9   12     -0.81      0.00
   -5   -9   12      0.26      0.00
   -4   -9   12     -0.44      0.00
   -3   -9   12     -0.88      0.00
   -2   -9   12     -0.31      0.00
   -1   -9   12      0.79      0.00
    0   -9   12      0.51      0.00
    1   -9   12     -0.68      0.00
    2   -9   12     -1.29      0.00
    3   -9   12      0.09      0.00
    4   -9   12      0.24      0.00
    5   -9   12      0.74      0.00
   -8   -8   12      0.22      0.00
   -7   -8   12     -0.89      0.00
   -6   -8   12      0.54      0.00
   -5   -8   12      0.94      0.00
   -4   -8   12     -0.01      0.00
   -3   -8   12      0.71      0.00
   -2   -8   12     -0.78      0.00
   -1   -8   12      0.23      0.00
    0   -8   12     -1.26      0.00
    1   -8   12     -0.41      0.00
    2   -8   12      0.14      0.00
    3   -8   12     -0.26      0.00
    4   -8   12      0.47      0.00
    5   -8   12      0.25      0.00
   -9   -7   12     -0.06      0.00
   -8   -7   12      0.26      0.00
   -7   -7   12     -0.64      0.00
   -6   -7   12      0.43      0.00
   -5   -7   12      0.22      0.00
   -4   -7   12      0.82      0.00
   -3   -7   12     -1.08      0.00
   -2   -7   12     -0.72      0.00
   -1   -7   12     -0.03      0.00
    0   -7   12      0.32      0.00
    1   -7   12     -0.80      0.00
    2   -7   12     -1.86      0.00
    3   -7   12      0.27      0.00
    4   -7   12      0.96      0.00
    5   -7   12      0.24      0.00
    6   -7   12     -0.34      0.00
   -9   -6   12      0.40      0.00
   -8   -6   12      0.20      0.00
   -7   -6   12     -0.96      0.00
   -6   -6   12      0.13      0.00
   -5   -6   12     -0.17      0.00
   -4   -6   12      0.63      0.00
   -3   -6   12     -1.05      0.00
   -2   -6   12     -1.29      0.00
   -1   -6   12      0.70      0.00
    0   -6   12      0.29      0.00
    1   -6   12     -0.14      0.00
    2   -6   12     -0.41      0.00
    3   -6   12     -0.06      0.00
    4   -6   12     -0.74      0.00
    5   -6   12      0.77      0.00
    6   -6   12      0.12      0.00
  -10   -5   12      0.28      0.00
   -9   -5   12      0.36      0.00
   -8   -5   12      0.15      0.00
   -7   -5   12     -0.83      0.00
   -6   -5   12      0.21      0.00
   -5   -5   12     -0.32      0.00
   -4   -5   12      1.27      0.00
   -3   -5   12     -3.03      0.00
   -2   -5   12     -0.75      0.00
   -1   -5   12     -0.76      0.00
    0   -5   12      1.62      0.00
    1   -5   12      0.27      0.00
    2   -5   12     -0.97      0.00
    3   -5   12      0.19      0.00
    4   -5   12      0.72      0.00
    5   -5   12     -0.02      0.00
    6   -5   12      0.05      0.00
  -10   -4   12     -0.43      0.00
   -9   -4   12      1.13      0.00
   -8   -4   12     -0.29      0.00
   -7   -4   12     -0.14      0.00
   -6   -4   12     -0.31      0.00
   -5   -4   12      0.36      0.00
   -4   -4   12      1.31      0.00
   -3   -4   12     -2.44      0.00
   -2   -4   12      0.35      0.00
   -1   -4   12     -0.15      0.00
    0   -4   12      1.99      0.00
    1   -4   12     -0.86      0.00
    2   -4   12      0.31      0.00
    3   -4   12     -0.81      0.00
    4   -4   12      0.05      0.00
    5   -4   12     -0.13      0.00
    6   -4   12     -0.11      0.00
  -11   -3   12      0.16      0.00
  -10   -3   12     -0.46      0.00
   -9   -3   12      0.20      0.00
   -8   -3   12     -0.84      0.00
   -7   -3   12      0.38      0.00
   -6   -3   12     -1.08      0.00
   -5   -3   12      0.87      0.00
   -4   -3   12      1.39      0.00
   -3   -3   12     -0.58      0.00
   -2   -3   12      0.01      0.00
   -1   -3   12     -1.77      0.00
    0   -3   12      2.52      0.00
    1   -3   12      0.66      0.00
    2   -3   12     -0.96      0.00
    3   -3   12     -0.21      0.00
    4   -3   12      0.50      0.00
    5   -3   12     -0.46      0.00
    6   -3   12      0.12      0.00
  -11   -2   12      0.06      0.00
  -10   -2   12     -0.83      0.00
   -9   -2   12      0.51      0.00
   -8   -2   12     -0.50      0.00
   -7   -2   12      0.72      0.00
   -6   -2   12     -1.76      0.00
   -5   -2   12      1.97      0.00
   -4   -2   12      1.21      0.00
   -3   -2   12      0.82      0.00
   -2   -2   12     -0.61      0.00
   -1   -2   12      0.21      0.00
    0   -2   12      1.37      0.00
    1   -2   12     -1.13      0.00
    2   -2   12      1.22      0.00
    3   -2   12     -0.21      0.00
    4   -2   12      0.34      0.00
    5   -2   12     -1.32      0.00
    6   -2   12     -0.19      0.00
  -11   -1   12     -0.57      0.00
  -10   -1   12     -0.85      0.00
   -9   -1   12     -0.02      0.00
   -8   -1   12      0.18      0.00
   -7   -1   12     -0.34      0.00
   -6   -1   12     -1.48      0.00
   -5   -1   12      1.90      0.00
   -4   -1   12      1.10      0.00
   -3   -1   12      2.60      0.00
   -2   -1   12     -0.82      0.00
   -1   -1   12     -0.67      0.00
    0   -1   12      1.13      0.00
    1   -1   12      0.93      0.00
    2   -1   12     -1.01      0.00
    3   -1   12     -1.40      0.00
    4   -1   12      0.31      0.00
    5   -1   12      0.35      0.00
    6   -1   12      0.73      0.00
  -11    0   12     -0.38      0.00
  -10    0   12     -0.16      0.00
   -9    0   12      0.17      0.00
   -8    0   12      0.54      0.00
   -7    0   12     -0.16      0.00
   -6    0   12     -1.01      0.00
   -5    0   12      1.34      0.00
   -4    0   12      0.46      0.00
   -3    0   12      1.83      0.00
   -2    0   12     -2.67      0.00
   -1    0   12      0.97      0.00
    0    0   12     -0.08      0.00
    1    0   12     -0.20      0.00
    2    0   12      0.27      0.00
    3    0   12      0.65      0.00
    4    0   12     -0.03      0.00
    5    0   12      0.25      0.00
    6    0   12     -0.48      0.00
  -11    1   12     -0.08      0.00
  -10    1   12      0.47      0.00
   -9    1   12      0.06      0.00
   -8    1   12      1.10      0.00
   -7    1   12     -0.68      0.00
   -6    1   12     -0.03      0.00
   -5    1   12      0.70      0.00
   -4    1   12      1.18      0.00
   -3    1   12      0.87      0.00
   -2    1   12     -1.43      0.00
   -1    1   12     -0.35      0.00
    0    1   12     -1.03      0.00
    1    1   12      2.16      0.00
    2    1   12     -0.54      0.00
    3    1   12     -0.49      0.00
    4    1   12     -0.13      0.00
    5    1   12     -0.16      0.00
    6    1   12     -0.56      0.00
  -11    2   12      0.03      0.00
  -10    2   12      0.37      0.00
   -9    2   12      0.41      0.00
   -8    2   12      1.13      0.00
   -7    2   12     -0.43      0.00
   -6    2   12      0.14      0.00
   -5    2   12     -0.74      0.00
   -4    2   12      0.87      0.00
   -3    2   12      0.08      0.00
   -2    2   12     -0.32      0.00
   -1    2   12     -0.31      0.00
    0    2   12      0.71      0.00
    1    2   12      0.84      0.00
    2    2   12      0.17      0.00
    3    2   12      0.26      0.00
    4    2   12     -0.44      0.00
    5    2   12      0.37      0.00
  -11    3   12      1.04      0.00
  -10    3   12      0.51      0.00
   -9    3   12      0.59      0.00
   -8    3   12      0.65      0.00
   -7    3   12      0.39      0.00
   -6    3   12      0.01      0.00
   -5    3   12     -2.22      0.00
   -4    3   12      1.02      0.00
   -3    3   12      0.13      0.00
   -2    3   12     -0.37      0.00
   -1    3   12     -0.39      0.00
    0    3   12     -0.12      0.00
    1    3   12      2.35      0.00
    2    3   12     -0.50      0.00
    3    3   12      0.39      0.00
    4    3   12     -0.75      0.00
    5    3   12      0.44      0.00
  -11    4   12      0.60      0.00
  -10    4   12      0.24      0.00
   -9    4   12      0.67      0.00
   -8    4   12      0.44      0.00
   -7    4   12      0.11      0.00
   -6    4   12     -1.97      0.00
   -5    4   12     -1.82      0.00
   -4    4   12      1.78      0.00
   -3    4   12     -0.31      0.00
   -2    4   12      0.52      0.00
   -1    4   12     -0.29      0.00
    0    4   12      1.30      0.00
    1    4   12      0.62      0.00
    2    4   12      0.69      0.00
    3    4   12      0.46      0.00
    4    4   12     -0.07      0.00
  -11    5   12      1.87      0.00
  -10    5   12      0.02      0.00
   -9    5   12      0.57      0.00
   -8    5   12      0.30      0.00
   -7    5   12      0.23      0.00
   -6    5   12     -0.51      0.00
   -5    5   12     -0.75      0.00
   -4    5   12      0.84      0.00
   -3    5   12      0.36      0.00
   -2    5   12      0.73      0.00
   -1    5   12      0.62      0.00
    0    5   12     -0.32      0.00
    1    5   12      1.02      0.00
    2    5   12      0.07      0.00
    3    5   12     -0.30      0.00
    4    5   12     -0.19      0.00
  -10    6   12      0.04      0.00
   -9    6   12      0.14      0.00
   -8    6   12      0.31      0.00
   -7    6   12      0.92      0.00
   -6    6   12     -0.36      0.00
   -5    6   12      0.12      0.00
   -4    6   12     -0.29      0.00
   -3    6   12      0.71      0.00
   -2    6   12      0.88      0.00
   -1    6   12     -0.71      0.00
    0    6   12      0.48      0.00
    1    6   12     -0.36      0.00
    2    6   12      0.03      0.00
    3    6   12     -0.38      0.00
  -10    7   12     -0.72      0.00
   -9    7   12     -0.06      0.00
   -8    7   12     -0.08      0.00
   -7    7   12      0.84      0.00
   -6    7   12      0.12      0.00
   -5    7   12      0.96      0.00
   -4    7   12     -0.10      0.00
   -3    7   12      1.87      0.00
   -2    7   12      0.35      0.00
   -1    7   12     -1.82      0.00
    0    7   12      0.47      0.00
    1    7   12     -0.54      0.00
    2    7   12     -0.06      0.00
   -9    8   12      0.56      0.00
   -8    8   12     -0.13      0.00
   -7    8   12      0.34      0.00
   -6    8   12      0.18      0.00
   -5    8   12     -0.30      0.00
   -4    8   12     -0.17      0.00
   -3    8   12      1.50      0.00
   -2    8   12     -1.38      0.00
   -1    8   12      0.54      0.00
    0    8   12      0.40      0.00
    1    8   12     -0.90      0.00
   -7    9   12      0.47      0.00
   -6    9   12      0.23      0.00
   -5    9   12      0.30      0.00
   -4    9   12      0.33      0.00
   -3    9   12     -0.99      0.00
   -2    9   12     -0.19      0.00
   -1    9   12     -0.80      0.00
   -3  -11   13      0.19      0.00
   -2  -11   13      0.20      0.00
   -1  -11   13     -0.22      0.00
    0  -11   13     -0.76      0.00
    1  -11   13      0.06      0.00
   -5  -10   13      0.05      0.00
   -4  -10   13      0.73      0.00
   -3  -10   13      1.04      0.00
   -2  -10   13      0.13      0.00
   -1  -10   13     -1.10      0.00
    0  -10   13     -0.72      0.00
    1  -10   13      0.25      0.00
    2  -10   13     -0.04      0.00
    3  -10   13      0.10      0.00
   -6   -9   13     -0.74      0.00
   -5   -9   13     -0.96      0.00
   -4   -9   13      0.07      0.00
   -3   -9   13     -0.11      0.00
   -2   -9   13      0.01      0.00
   -1   -9   13     -0.21      0.00
    0   -9   13      0.09      0.00
    1   -9   13      0.28      0.00
    2   -9   13     -0.50      0.00
    3   -9   13      0.28      0.00
    4   -9   13     -0.78      0.00
   -7   -8   13      0.45      0.00
   -6   -8   13      0.14      0.00
   -5   -8   13     -0.15      0.00
   -4   -8   13      0.27      0.00
   -3   -8   13      0.88      0.00
   -2   -8   13      0.20      0.00
   -1   -8   13     -0.79      0.00
    0   -8   13     -0.33      0.00
    1   -8   13      0.26      0.00
    2   -8   13      0.83      0.00
    3   -8   13     -0.52      0.00
    4   -8   13     -0.89      0.00
   -8   -7   13      0.17      0.00
   -7   -7   13      0.68      0.00
   -6   -7   13     -0.79      0.00
   -5   -7   13     -0.71      0.00
   -4   -7   13     -0.31      0.00
   -3   -7   13     -0.20      0.00
   -2   -7   13      1.19      0.00
   -1   -7   13     -0.41      0.00
    0   -7   13      0.70      0.00
    1   -7   13      0.41      0.00
    2   -7   13      0.23      0.00
    3   -7   13     -0.46      0.00
    4   -7   13     -0.10      0.00
    5   -7   13     -0.24      0.00
   -9   -6   13     -0.25      0.00
   -8   -6   13     -0.49      0.00
   -7   -6   13      0.65      0.00
   -6   -6   13     -0.69      0.00
   -5   -6   13      0.18      0.00
   -4   -6   13     -0.44      0.00
   -3   -6   13      2.41      0.00
   -2   -6   13      0.32      0.00
   -1   -6   13      0.04      0.00
    0   -6   13     -0.39      0.00
    1   -6   13      0.72      0.00
    2   -6   13      0.43      0.00
    3   -6   13     -0.05      0.00
    4   -6   13     -0.65      0.00
    5   -6   13      0.16      0.00
  -10   -5   13     -0.08      0.00
   -9   -5   13     -1.03      0.00
   -8   -5   13      0.29      0.00
   -7   -5   13      0.43      0.00
   -6   -5   13     -0.21      0.00
   -5   -5   13      0.01      0.00
   -4   -5   13     -0.49      0.00
   -3   -5   13      2.48      0.00
   -2   -5   13      0.31      0.00
   -1   -5   13      0.04      0.00
    0   -5   13     -0.59      0.00
    1   -5   13      0.56      0.00
    2   -5   13      0.73      0.00
    3   -5   13      0.15      0.00
    4   -5   13      0.21      0.00
    5   -5   13     -0.53      0.00
  -10   -4   13      0.24      0.00
   -9   -4   13     -0.55      0.00
   -8   -4   13      0.74      0.00
   -7   -4   13      0.08      0.00
   -6   -4   13      0.07      0.00
   -5   -4   13     -0.28      0.00
   -4   -4   13     -0.30      0.00
   -3   -4   13      2.52      0.00
   -2   -4   13     -0.04      0.00
   -1   -4   13      1.15      0.00
    0   -4   13     -1.33      0.00
    1   -4   13      0.08      0.00
    2   -4   13      0.27      0.00
    3   -4   13      0.14      0.00
    4   -4   13     -0.45      0.00
    5   -4   13      0.44      0.00
    6   -4   13     -0.30      0.00
  -10   -3   13      0.34      0.00
   -9   -3   13     -0.56      0.00
   -8   -3   13      0.47      0.00
   -7   -3   13     -0.45      0.00
   -6   -3   13      0.29      0.00
   -5   -3   13     -1.29      0.00
   -4   -3   13     -0.76      0.00
   -3   -3   13      1.67      0.00
   -2   -3   13      0.24      0.00
   -1   -3   13      0.11      0.00
    0   -3   13     -1.67      0.00
    1   -3   13      1.30      0.00
    2   -3   13     -0.66      0.00
    3   -3   13      0.16      0.00
    4   -3   13     -0.14      0.00
    5   -3   13      0.74      0.00
    6   -3   13     -0.05      0.00
  -11   -2   13      0.18      0.00
  -10   -2   13      1.11      0.00
   -9   -2   13     -0.11      0.00
   -8   -2   13      0.39      0.00
   -7   -2   13      0.24      0.00
   -6   -2   13      1.09      0.00
   -5   -2   13     -1.55      0.00
   -4   -2   13     -0.38      0.00
   -3   -2   13     -0.38      0.00
   -2   -2   13      0.08      0.00
   -1   -2   13      0.68      0.00
    0   -2   13     -1.04      0.00
    1   -2   13     -0.37      0.00
    2   -2   13      0.14      0.00
    3   -2   13      0.77      0.00
    4   -2   13      0.00      0.00
    5   -2   13     -0.55      0.00
  -11   -1   13      0.34      0.00
  -10   -1   13      0.46      0.00
   -9   -1   13     -0.29      0.00
   -8   -1   13     -0.05      0.00
   -7   -1   13      0.18      0.00
   -6   -1   13      1.04      0.00
   -5   -1   13     -1.81      0.00
   -4   -1   13     -0.28      0.00
   -3   -1   13     -1.06      0.00
   -2   -1   13      1.91      0.00
   -1   -1   13     -1.09      0.00
    0   -1   13     -0.57      0.00
    1   -1   13     -0.04      0.00
    2   -1   13     -0.22      0.00
    3   -1   13     -0.39      0.00
    4   -1   13     -0.01      0.00
    5   -1   13      0.16      0.00
  -11    0   13      0.46      0.00
  -10    0   13     -0.35      0.00
   -9    0   13      0.06      0.00
   -8    0   13     -0.48      0.00
   -7    0   13      1.58      0.00
   -6    0   13      0.52      0.00
   -5    0   13     -1.58      0.00
   -4    0   13     -0.89      0.00
   -3    0   13     -0.79      0.00
   -2    0   13      1.09      0.00
   -1    0   13     -0.49      0.00
    0    0   13      0.14      0.00
    1    0   13     -1.09      0.00
    2    0   13      0.84      0.00
    3    0   13      0.76      0.00
    4    0   13     -0.35      0.00
    5    0   13      0.15      0.00
  -11    1   13      0.06      0.00
  -10    1   13     -0.27      0.00
   -9    1   13      0.13      0.00
   -8    1   13     -0.60      0.00
   -7    1   13      0.64      0.00
   -6    1   13     -0.14      0.00
   -5    1   13     -0.55      0.00
   -4    1   13     -0.13      0.00
   -3    1   13     -0.39      0.00
   -2    1   13      0.91      0.00
   -1    1   13     -0.67      0.00
    0    1   13      0.16      0.00
    1    1   13     -0.58      0.00
    2    1   13      0.66      0.00
    3    1   13     -0.26      0.00
    4    1   13      0.80      0.00
    5    1   13     -0.60      0.00
  -11    2   13     -0.40      0.00
  -10    2   13     -0.39      0.00
   -9    2   13     -0.65      0.00
   -8    2   13     -0.91      0.00
   -7    2   13     -0.08      0.00
   -6    2   13     -0.43      0.00
   -5    2   13      0.75      0.00
   -4    2   13     -1.01      0.00
   -3    2   13      0.49      0.00
   -2    2   13      0.91      0.00
   -1    2   13      0.08      0.00
    0    2   13      0.01      0.00
    1    2   13     -1.83      0.00
    2    2   13      1.04      0.00
    3    2   13      0.17      0.00
    4    2   13      0.01      0.00
  -11    3   13     -0.18      0.00
  -10    3   13     -0.01      0.00
   -9    3   13     -0.33      0.00
   -8    3   13     -0.56      0.00
   -7    3   13      0.49      0.00
   -6    3   13      1.05      0.00
   -5    3   13      1.12      0.00
   -4    3   13     -1.52      0.00
   -3    3   13      0.27      0.00
   -2    3   13     -0.28      0.00
   -1    3   13     -0.49      0.00
    0    3   13     -0.55      0.00
    1    3   13     -1.46      0.00
    2    3   13     -0.23      0.00
    3    3   13     -0.31      0.00
    4    3   13      0.10      0.00
  -11    4   13     -1.12      0.00
  -10    4   13     -0.06      0.00
   -9    4   13     -1.26      0.00
   -8    4   13     -0.36      0.00
   -7    4   13     -0.05      0.00
   -6    4   13      0.48      0.00
   -5    4   13      1.43      0.00
   -4    4   13     -1.30      0.00
   -3    4   13      0.40      0.00
   -2    4   13     -0.31      0.00
   -1    4   13     -0.29      0.00
    0    4   13     -0.70      0.00
    1    4   13     -1.37      0.00
    2    4   13      0.53      0.00
    3    4   13      0.05      0.00
  -10    5   13     -0.07      0.00
   -9    5   13      0.17      0.00
   -8    5   13      0.02      0.00
   -7    5   13     -0.10      0.00
   -6    5   13      1.31      0.00
   -5    5   13      0.30      0.00
   -4    5   13     -0.69      0.00
   -3    5   13      0.07      0.00
   -2    5   13     -0.43      0.00
   -1    5   13     -0.29      0.00
    0    5   13     -0.58      0.00
    1    5   13     -0.68      0.00
    2    5   13     -0.30      0.00
    3    5   13     -0.25      0.00
  -10    6   13      0.76      0.00
   -9    6   13     -0.22      0.00
   -8    6   13      0.09      0.00
   -7    6   13     -0.39      0.00
   -6    6   13      0.13      0.00
   -5    6   13     -0.63      0.00
   -4    6   13     -0.39      0.00
   -3    6   13     -1.25      0.00
   -2    6   13     -0.92      0.00
   -1    6   13      1.54      0.00
    0    6   13     -0.51      0.00
    1    6   13      0.37      0.00
    2    6   13      0.14      0.00
   -9    7   13     -0.19      0.00
   -8    7   13      0.23      0.00
   -7    7   13     -0.31      0.00
   -6    7   13      0.03      0.00
   -5    7   13     -0.07      0.00
   -4    7   13     -0.18      0.00
   -3    7   13     -1.45      0.00
   -2    7   13      1.04      0.00
   -1    7   13      0.19      0.00
    0    7   13     -0.57      0.00
    1    7   13      0.57      0.00
   -8    8   13      0.69      0.00
   -7    8   13     -0.79      0.00
   -6    8   13     -0.44      0.00
   -5    8   13     -0.80      0.00
   -4    8   13     -0.34      0.00
   -3    8   13     -0.44      0.00
   -2    8   13      0.39      0.00
   -1    8   13      1.33      0.00
   -6    9   13      0.18      0.00
   -5    9   13      0.29      0.00
   -4    9   13     -0.07      0.00
   -3    9   13     -0.52      0.00
   -4  -10   14     -0.31      0.00
   -3  -10   14     -0.01      0.00
   -2  -10   14      0.14      0.00
   -1  -10   14      0.79      0.00
    0  -10   14      0.90      0.00
    1  -10   14     -0.26      0.00
   -6   -9   14     -0.38      0.00
   -5   -9   14     -0.20      0.00
   -4   -9   14     -0.66      0.00
   -3   -9   14     -0.79      0.00
   -2   -9   14      0.13      0.00
   -1   -9   14      1.87      0.00
    0   -9   14      0.62      0.00
    1   -9   14      0.50      0.00
    2   -9   14      0.04      0.00
   -7   -8   14     -0.43      0.00
   -6   -8   14      1.00      0.00
   -5   -8   14      0.87      0.00
   -4   -8   14     -0.11      0.00
   -3   -8   14      0.48      0.00
   -2   -8   14     -0.13      0.00
   -1   -8   14      0.95      0.00
    0   -8   14     -0.05      0.00
    1   -8   14     -0.26      0.00
    2   -8   14      0.28      0.00
    3   -8   14      0.43      0.00
   -8   -7   14      0.38      0.00
   -7   -7   14     -0.44      0.00
   -6   -7   14      0.46      0.00
   -5   -7   14     -0.26      0.00
   -4   -7   14     -0.12      0.00
   -3   -7   14     -1.21      0.00
   -2   -7   14      0.18      0.00
   -1   -7   14      0.87      0.00
    0   -7   14      0.17      0.00
    1   -7   14     -0.06      0.00
    2   -7   14     -0.20      0.00
    3   -7   14      0.37      0.00
    4   -7   14      0.38      0.00
   -9   -6   14      0.47      0.00
   -8   -6   14     -0.38      0.00
   -7   -6   14     -0.23      0.00
   -6   -6   14      0.52      0.00
   -5   -6   14      0.13      0.00
   -4   -6   14      0.07      0.00
   -3   -6   14     -1.03      0.00
   -2   -6   14     -0.55      0.00
   -1   -6   14      0.11      0.00
    0   -6   14     -0.24      0.00
    1   -6   14     -0.03      0.00
    2   -6   14     -0.69      0.00
    3   -6   14      0.65      0.00
    4   -6   14      0.16      0.00
   -9   -5   14      0.51      0.00
   -8   -5   14      0.00      0.00
   -7   -5   14     -0.16      0.00
   -6   -5   14      0.61      0.00
   -5   -5   14     -0.20      0.00
   -4   -5   14     -0.06      0.00
   -3   -5   14     -2.40      0.00
   -2   -5   14      0.05      0.00
   -1   -5   14     -0.23      0.00
    0   -5   14      0.42      0.00
    1   -5   14     -0.59      0.00
    2   -5   14      0.00      0.00
    3   -5   14     -0.12      0.00
    4   -5   14      0.21      0.00
    5   -5   14     -0.25      0.00
  -10   -4   14      0.13      0.00
   -9   -4   14      0.46      0.00
   -8   -4   14     -0.48      0.00
   -7   -4   14      0.06      0.00
   -6   -4   14      0.19      0.00
   -5   -4   14      0.05      0.00
   -4   -4   14     -0.13      0.00
   -3   -4   14     -2.52      0.00
   -2   -4   14      0.14      0.00
   -1   -4   14     -0.39      0.00
    0   -4   14      1.04      0.00
    1   -4   14     -0.60      0.00
    2   -4   14     -0.32      0.00
    3   -4   14      0.08      0.00
    4   -4   14      0.12      0.00
    5   -4   14      0.04      0.00
  -10   -3   14     -1.01      0.00
   -9   -3   14      0.40      0.00
   -8   -3   14     -0.70      0.00
   -7   -3   14      0.12      0.00
   -6   -3   14     -0.41      0.00
   -5   -3   14      0.54      0.00
   -4   -3   14     -0.74      0.00
   -3   -3   14     -1.36      0.00
   -2   -3   14     -0.22      0.00
   -1   -3   14     -0.45      0.00
    0   -3   14      0.60      0.00
    1   -3   14     -0.18      0.00
    2   -3   14      0.14      0.00
    3   -3   14     -0.37      0.00
    4   -3   14     -0.27      0.00
    5   -3   14      0.69      0.00
  -10   -2   14     -0.49      0.00
   -9   -2   14      0.00      0.00
   -8   -2   14     -0.16      0.00
   -7   -2   14     -0.20      0.00
   -6   -2   14     -0.39      0.00
   -5   -2   14      1.21      0.00
   -4   -2   14     -0.39      0.00
   -3   -2   14     -0.34      0.00
   -2   -2   14     -0.83      0.00
   -1   -2   14      0.64      0.00
    0   -2   14      0.84      0.00
    1   -2   14      0.07      0.00
    2   -2   14     -0.04      0.00
    3   -2   14      0.21      0.00
    4   -2   14      0.18      0.00
    5   -2   14     -0.17      0.00
  -11   -1   14     -0.52      0.00
  -10   -1   14     -0.16      0.00
   -9   -1   14     -0.21      0.00
   -8   -1   14     -0.24      0.00
   -7   -1   14     -1.56      0.00
   -6   -1   14     -0.58      0.00
   -5   -1   14      1.26      0.00
   -4   -1   14     -0.24      0.00
   -3   -1   14      0.35      0.00
   -2   -1   14     -1.01      0.00
   -1   -1   14      0.75      0.00
    0   -1   14      0.18      0.00
    1   -1   14      0.35      0.00
    2   -1   14     -0.42      0.00
    3   -1   14     -0.41      0.00
    4   -1   14      0.21      0.00
    5   -1   14      0.69      0.00
  -11    0   14     -0.10      0.00
  -10    0   14      0.03      0.00
   -9    0   14     -0.41      0.00
   -8    0   14     -0.20      0.00
   -7    0   14     -0.84      0.00
   -6    0   14     -0.28      0.00
   -5    0   14      0.86      0.00
   -4    0   14     -0.43      0.00
   -3    0   14      0.43      0.00
   -2    0   14     -0.84      0.00
   -1    0   14      1.17      0.00
    0    0   14     -0.48      0.00
    1    0   14      0.51      0.00
    2    0   14     -1.19      0.00
    3    0   14      0.29      0.00
    4    0   14     -0.32      0.00
  -11    1   14     -0.12      0.00
  -10    1   14      0.42      0.00
   -9    1   14      0.18      0.00
   -8    1   14      0.38      0.00
   -7    1   14     -0.72      0.00
   -6    1   14      0.43      0.00
   -5    1   14      0.44      0.00
   -4    1   14      0.62      0.00
   -3    1   14     -0.64      0.00
   -2    1   14     -1.03      0.00
   -1    1   14      0.44      0.00
    0    1   14     -0.05      0.00
    1    1   14      0.60      0.00
    2    1   14     -1.39      0.00
    3    1   14     -0.35      0.00
    4    1   14      0.69      0.00
  -11    2   14      0.01      0.00
  -10    2   14     -0.21      0.00
   -9    2   14     -0.48      0.00
   -8    2   14      0.39      0.00
   -7    2   14     -0.74      0.00
   -6    2   14     -0.08      0.00
   -5    2   14     -0.23      0.00
   -4    2   14      0.75      0.00
   -3    2   14     -0.31      0.00
   -2    2   14      0.48      0.00
   -1    2   14      0.61      0.00
    0    2   14     -0.51      0.00
    1    2   14      0.63      0.00
    2    2   14     -0.63      0.00
    3    2   14      0.31      0.00
    4    2   14     -0.48      0.00
  -10    3   14     -0.14      0.00
   -9    3   14      1.91      0.00
   -8    3   14      0.60      0.00
   -7    3   14      0.12      0.00
   -6    3   14      0.16      0.00
   -5    3   14     -1.04      0.00
   -4    3   14      1.29      0.00
   -3    3   14     -0.69      0.00
   -2    3   14      0.08      0.00
   -1    3   14     -0.34      0.00
    0    3   14      0.77      0.00
    1    3   14      1.12      0.00
    2    3   14     -0.80      0.00
    3    3   14     -0.06      0.00
  -10    4   14     -0.05      0.00
   -9    4   14     -0.38      0.00
   -8    4   14     -0.02      0.00
   -7    4   14     -0.44      0.00
   -6    4   14     -0.83      0.00
   -5    4   14     -0.41      0.00
   -4    4   14      1.52      0.00
   -3    4   14     -0.29      0.00
   -2    4   14     -0.24      0.00
   -1    4   14      0.93      0.00
    0    4   14      0.71      0.00
    1    4   14      1.34      0.00
    2    4   14      0.22      0.00
  -10    5   14     -0.44      0.00
   -9    5   14      0.91      0.00
   -8    5   14     -0.02      0.00
   -7    5   14     -0.13      0.00
   -6    5   14     -0.71      0.00
   -5    5   14      0.18      0.00
   -4    5   14      1.20      0.00
   -3    5   14     -0.37      0.00
   -2    5   14      0.97      0.00
   -1    5   14     -0.84      0.00
    0    5   14      0.67      0.00
    1    5   14     -0.03      0.00
    2    5   14     -0.06      0.00
   -9    6   14     -0.33      0.00
   -8    6   14     -0.33      0.00
   -7    6   14      0.06      0.00
   -6    6   14     -0.27      0.00
   -5    6   14      0.52      0.00
   -4    6   14     -0.01      0.00
   -3    6   14      0.27      0.00
   -2    6   14     -0.37      0.00
   -1    6   14     -0.36      0.00
    0    6   14      0.69      0.00
    1    6   14      0.11      0.00
   -8    7   14     -0.65      0.00
   -7    7   14      0.68      0.00
   -6    7   14      0.37      0.00
   -5    7   14      0.56      0.00
   -4    7   14      0.19      0.00
   -3    7   14      1.16      0.00
   -2    7   14     -0.21      0.00
   -1    7   14     -1.73      0.00
   -6    8   14     -0.27      0.00
   -5    8   14     -0.12      0.00
   -4    8   14      0.84      0.00
   -3    8   14      0.61      0.00
   -5   -9   15     -0.33      0.00
   -4   -9   15      0.47      0.00
   -3   -9   15     -0.54      0.00
   -2   -9   15     -0.78      0.00
   -1   -9   15     -1.72      0.00
    0   -9   15     -0.31      0.00
    1   -9   15      0.37      0.00
   -6   -8   15      0.04      0.00
   -5   -8   15      0.48      0.00
   -4   -8   15      0.45      0.00
   -3   -8   15      0.35      0.00
   -2   -8   15     -0.68      0.00
   -1   -8   15     -1.78      0.00
    0   -8   15     -0.47      0.00
    1   -8   15     -0.59      0.00
    2   -8   15      0.25      0.00
   -7   -7   15      0.16      0.00
   -6   -7   15     -0.54      0.00
   -5   -7   15     -0.22      0.00
   -4   -7   15      0.16      0.00
   -3   -7   15     -0.37      0.00
   -2   -7   15     -0.14      0.00
   -1   -7   15     -1.02      0.00
    0   -7   15      0.26      0.00
    1   -7   15     -0.04      0.00
    2   -7   15      0.05      0.00
    3   -7   15     -0.73      0.00
   -8   -6   15     -0.42      0.00
   -7   -6   15      0.14      0.00
   -6   -6   15     -0.65      0.00
   -5   -6   15      0.25      0.00
   -4   -6   15     -0.40      0.00
   -3   -6   15      1.33      0.00
   -2   -6   15     -0.37      0.00
   -1   -6   15     -0.57      0.00
    0   -6   15     -0.08      0.00
    1   -6   15      0.44      0.00
    2   -6   15      0.26      0.00
    3   -6   15     -0.26      0.00
   -9   -5   15     -0.28      0.00
   -8   -5   15      0.37      0.00
   -7   -5   15      0.02      0.00
   -6   -5   15     -0.11      0.00
   -5   -5   15      0.26      0.00
   -4   -5   15      0.34      0.00
   -3   -5   15      1.45      0.00
   -2   -5   15     -0.40      0.00
   -1   -5   15      0.19      0.00
    0   -5   15     -0.24      0.00
    1   -5   15     -0.24      0.00
    2   -5   15      0.27      0.00
    3   -5   15     -0.45      0.00
    4   -5   15     -0.33      0.00
   -9   -4   15     -0.63      0.00
   -8   -4   15      0.24      0.00
   -7   -4   15     -0.35      0.00
   -6   -4   15     -0.25      0.00
   -5   -4   15      0.15      0.00
   -4   -4   15      0.63      0.00
   -3   -4   15      1.62      0.00
   -2   -4   15      0.19      0.00
   -1   -4   15     -0.07      0.00
    0   -4   15     -0.44      0.00
    1   -4   15      0.59      0.00
    2   -4   15      0.32      0.00
    3   -4   15     -0.13      0.00
    4   -4   15      0.31      0.00
  -10   -3   15      0.32      0.00
   -9   -3   15      0.28      0.00
   -8   -3   15      0.28      0.00
   -7   -3   15      0.12      0.00
   -6   -3   15      0.07      0.00
   -5   -3   15     -0.26      0.00
   -4   -3   15      0.77      0.00
   -3   -3   15      1.03      0.00
   -2   -3   15     -0.33      0.00
   -1   -3   15     -0.21      0.00
    0   -3   15     -0.81      0.00
    1   -3   15      0.13      0.00
    2   -3   15      0.14      0.00
    3   -3   15     -0.16      0.00
    4   -3   15     -0.17      0.00
  -10   -2   15      0.60      0.00
   -9   -2   15      0.12      0.00
   -8   -2   15      0.42      0.00
   -7   -2   15      0.59      0.00
   -6   -2   15      0.48      0.00
   -5   -2   15     -0.21      0.00
   -4   -2   15      1.17      0.00
   -3   -2   15      0.18      0.00
   -2   -2   15      0.89      0.00
   -1   -2   15     -0.88      0.00
    0   -2   15     -0.20      0.00
    1   -2   15      0.24      0.00
    2   -2   15      0.21      0.00
    3   -2   15     -0.03      0.00
    4   -2   15      0.23      0.00
  -10   -1   15      0.33      0.00
   -9   -1   15      0.38      0.00
   -8   -1   15      0.42      0.00
   -7   -1   15      0.74      0.00
   -6   -1   15      0.26      0.00
   -5   -1   15     -0.83      0.00
   -4   -1   15      0.70      0.00
   -3   -1   15     -0.34      0.00
   -2   -1   15      0.22      0.00
   -1   -1   15     -0.91      0.00
    0   -1   15      0.46      0.00
    1   -1   15     -0.30      0.00
    2   -1   15      0.73      0.00
    3   -1   15     -0.26      0.00
    4   -1   15     -0.56      0.00
  -10    0   15     -0.39      0.00
   -9    0   15      0.42      0.00
   -8    0   15      0.31      0.00
   -7    0   15      0.95      0.00
   -6    0   15     -0.39      0.00
   -5    0   15     -0.56      0.00
   -4    0   15      0.11      0.00
   -3    0   15      0.20      0.00
   -2    0   15      1.36      0.00
   -1    0   15     -0.75      0.00
    0    0   15     -0.09      0.00
    1    0   15     -0.06      0.00
    2    0   15      1.03      0.00
    3    0   15     -0.04      0.00
  -10    1   15      0.27      0.00
   -9    1   15      0.92      0.00
   -8    1   15      0.23      0.00
   -7    1   15      0.53      0.00
   -6    1   15     -0.13      0.00
   -5    1   15     -0.18      0.00
   -4    1   15     -0.18      0.00
   -3    1   15      0.75      0.00
   -2    1   15     -0.53      0.00
   -1    1   15     -0.57      0.00
    0    1   15      0.83      0.00
    1    1   15      0.72      0.00
    2    1   15      0.87      0.00
    3    1   15     -0.44      0.00
  -10    2   15      0.17      0.00
   -9    2   15     -1.59      0.00
   -8    2   15     -0.68      0.00
   -7    2   15     -0.14      0.00
   -6    2   15     -0.75      0.00
   -5    2   15      0.29      0.00
   -4    2   15     -0.62      0.00
   -3    2   15      0.77      0.00
   -2    2   15      0.07      0.00
   -1    2   15      0.46      0.00
    0    2   15      0.06      0.00
    1    2   15     -0.38      0.00
    2    2   15      0.72      0.00
    3    2   15      0.16      0.00
  -10    3   15      0.28      0.00
   -9    3   15      0.47      0.00
   -8    3   15     -0.28      0.00
   -7    3   15      0.62      0.00
   -6    3   15     -0.20      0.00
   -5    3   15      0.23      0.00
   -4    3   15     -1.61      0.00
   -3    3   15      0.37      0.00
   -2    3   15      0.25      0.00
   -1    3   15     -0.52      0.00
    0    3   15     -0.46      0.00
    1    3   15     -0.61      0.00
    2    3   15      0.07      0.00
   -9    4   15     -1.92      0.00
   -8    4   15      0.07      0.00
   -7    4   15      0.28      0.00
   -6    4   15      0.54      0.00
   -5    4   15     -0.30      0.00
   -4    4   15     -1.53      0.00
   -3    4   15      1.15      0.00
   -2    4   15     -0.63      0.00
   -1    4   15      0.30      0.00
    0    4   15     -0.45      0.00
    1    4   15     -0.44      0.00
   -9    5   15      0.57      0.00
   -8    5   15      0.21      0.00
   -7    5   15      0.03      0.00
   -6    5   15     -0.17      0.00
   -5    5   15     -0.56      0.00
   -4    5   15     -0.14      0.00
   -3    5   15      0.56      0.00
   -2    5   15      0.21      0.00
   -1    5   15      0.17      0.00
    0    5   15     -0.98      0.00
   -8    6   15      0.31      0.00
   -7    6   15     -0.17      0.00
   -6    6   15      0.25      0.00
   -5    6   15     -0.37      0.00
   -4    6   15     -0.44      0.00
   -3    6   15     -0.12      0.00
   -2    6   15      0.02      0.00
   -1    6   15      1.30      0.00
   -6    7   15      0.23      0.00
   -5    7   15     -0.27      0.00
   -4    7   15     -0.28      0.00
   -3    7   15      0.05      0.00
   -5   -8   16     -0.02      0.00
   -4   -8   16     -0.29      0.00
   -3   -8   16      0.93      0.00
   -2   -8   16      1.01      0.00
   -1   -8   16      1.62      0.00
    0   -8   16     -0.52      0.00
   -6   -7   16      0.13      0.00
   -5   -7   16     -0.33      0.00
   -4   -7   16      0.42      0.00
   -3   -7   16     -0.35      0.00
   -2   -7   16      0.84      0.00
   -1   -7   16      0.81      0.00
    0   -7   16      0.20      0.00
    1   -7   16     -0.21      0.00
   -7   -6   16     -0.13      0.00
   -6   -6   16     -0.02      0.00
   -5   -6   16     -0.07      0.00
   -4   -6   16     -0.06      0.00
   -3   -6   16      0.06      0.00
   -2   -6   16      0.45      0.00
   -1   -6   16      0.40      0.00
    0   -6   16     -0.52      0.00
    1   -6   16      0.32      0.00
    2   -6   16      0.28      0.00
   -8   -5   16      0.23      0.00
   -7   -5   16      0.29      0.00
   -6   -5   16      0.66      0.00
   -5   -5   16      0.11      0.00
   -4   -5   16      0.46      0.00
   -3   -5   16     -1.23      0.00
   -2   -5   16      0.14      0.00
   -1   -5   16      0.06      0.00
    0   -5   16      0.17      0.00
    1   -5   16     -0.68      0.00
    2   -5   16     -0.66      0.00
   -8   -4   16     -0.32      0.00
   -7   -4   16      0.12      0.00
   -6   -4   16      0.00      0.00
   -5   -4   16      0.08      0.00
   -4   -4   16     -0.45      0.00
   -3   -4   16     -0.80      0.00
   -2   -4   16      0.70      0.00
   -1   -4   16      0.01      0.00
    0   -4   16      0.43      0.00
    1   -4   16     -0.02      0.00
    2   -4   16      0.32      0.00
    3   -4   16      0.13      0.00
   -9   -3   16      0.22      0.00
   -8   -3   16      0.00      0.00
   -7   -3   16      0.34      0.00
   -6   -3   16     -0.27      0.00
   -5   -3   16     -0.47      0.00
   -4   -3   16     -1.03      0.00
   -3   -3   16     -0.63      0.00
   -2   -3   16     -0.27      0.00
   -1   -3   16      0.78      0.00
    0   -3   16      0.29      0.00
    1   -3   16     -0.72      0.00
    2   -3   16     -0.53      0.00
    3   -3   16      0.39      0.00
   -9   -2   16     -0.19      0.00
   -8   -2   16     -0.07      0.00
   -7   -2   16     -0.33      0.00
   -6   -2   16     -0.15      0.00
   -5   -2   16      0.69      0.00
   -4   -2   16     -0.79      0.00
   -3   -2   16      0.24      0.00
   -2   -2   16      0.48      0.00
   -1   -2   16      0.51      0.00
    0   -2   16     -0.43      0.00
    1   -2   16     -0.20      0.00
    2   -2   16      0.16      0.00
    3   -2   16      0.14      0.00
   -9   -1   16     -0.58      0.00
   -8   -1   16     -0.41      0.00
   -7   -1   16     -0.41      0.00
   -6   -1   16      0.09      0.00
   -5   -1   16     -0.08      0.00
   -4   -1   16     -0.61      0.00
   -3   -1   16      0.40      0.00
   -2   -1   16     -1.07      0.00
   -1   -1   16      0.71      0.00
    0   -1   16      0.23      0.00
    1   -1   16      0.07      0.00
    2   -1   16     -0.43      0.00
  -10    0   16     -0.25      0.00
   -9    0   16     -0.57      0.00
   -8    0   16     -0.49      0.00
   -7    0   16     -0.01      0.00
   -6    0   16      0.15      0.00
   -5    0   16      0.34      0.00
   -4    0   16     -0.05      0.00
   -3    0   16     -0.69      0.00
   -2    0   16      0.26      0.00
   -1    0   16      0.53      0.00
    0    0   16     -0.54      0.00
    1    0   16     -1.16      0.00
    2    0   16     -0.05      0.00
   -9    1   16      0.46      0.00
   -8    1   16      0.60      0.00
   -7    1   16      0.27      0.00
   -6    1   16      0.79      0.00
   -5    1   16     -0.05      0.00
   -4    1   16      0.06      0.00
   -3    1   16     -0.63      0.00
   -2    1   16     -0.42      0.00
   -1    1   16     -0.05      0.00
    0    1   16     -0.42      0.00
    1    1   16      0.25      0.00
    2    1   16     -0.37      0.00
   -9    2   16     -0.40      0.00
   -8    2   16      0.24      0.00
   -7    2   16     -0.36      0.00
   -6    2   16      0.50      0.00
   -5    2   16      0.06      0.00
   -4    2   16      0.96      0.00
   -3    2   16     -1.04      0.00
   -2    2   16      0.19      0.00
   -1    2   16      0.17      0.00
    0    2   16      0.24      0.00
    1    2   16     -0.80      0.00
   -9    3   16      2.15      0.00
   -8    3   16      0.12      0.00
   -7    3   16     -0.14      0.00
   -6    3   16      0.24      0.00
   -5    3   16      0.43      0.00
   -4    3   16      0.74      0.00
   -3    3   16     -0.80      0.00
   -2    3   16      0.48      0.00
   -1    3   16      0.06      0.00
    0    3   16     -0.49      0.00
    1    3   16      0.53      0.00
   -9    4   16     -0.32      0.00
   -8    4   16      0.04      0.00
   -7    4   16     -0.12      0.00
   -6    4   16      0.85      0.00
   -5    4   16      0.35      0.00
   -4    4   16      0.71      0.00
   -3    4   16     -0.41      0.00
   -2    4   16     -0.28      0.00
   -1    4   16     -0.28      0.00
    0    4   16      1.07      0.00
   -8    5   16     -0.53      0.00
   -7    5   16     -0.08      0.00
   -6    5   16     -0.58      0.00
   -5    5   16      0.75      0.00
   -4    5   16      0.85      0.00
   -3    5   16     -1.03      0.00
   -2    5   16     -0.08      0.00
   -1    5   16     -0.15      0.00
   -6    6   16      0.09      0.00
   -5    6   16      0.45      0.00
   -4    6   16     -0.51      0.00
   -3    6   16     -0.70      0.00
   -5   -7   17      0.24      0.00
   -4   -7   17     -0.09      0.00
   -3   -7   17     -0.65      0.00
   -2   -7   17     -0.41      0.00
   -1   -7   17     -0.69      0.00
    0   -7   17      0.97      0.00
   -6   -6   17     -0.36      0.00
   -5   -6   17     -0.30      0.00
   -4   -6   17     -0.85      0.00
   -3   -6   17      0.72      0.00
   -2   -6   17     -0.44      0.00
   -1   -6   17      0.36      0.00
    0   -6   17      0.05      0.00
   -7   -5   17     -0.10      0.00
   -6   -5   17     -0.09      0.00
   -5   -5   17     -0.33      0.00
   -4   -5   17     -0.13      0.00
   -3   -5   17      0.39      0.00
   -2   -5   17     -0.14      0.00
   -1   -5   17      0.10      0.00
    0   -5   17      0.25      0.00
    1   -5   17     -0.14      0.00
   -8   -4   17     -0.31      0.00
   -7   -4   17     -0.63      0.00
   -6   -4   17     -0.28      0.00
   -5   -4   17      0.08      0.00
   -4   -4   17      0.23      0.00
   -3   -4   17      1.03      0.00
   -2   -4   17     -0.23      0.00
   -1   -4   17      0.01      0.00
    0   -4   17     -0.17      0.00
    1   -4   17      0.68      0.00
   -8   -3   17     -0.11      0.00
   -7   -3   17     -0.19      0.00
   -6   -3   17      0.06      0.00
   -5   -3   17     -0.55      0.00
   -4   -3   17      0.61      0.00
   -3   -3   17      0.20      0.00
   -2   -3   17     -0.42      0.00
   -1   -3   17     -0.17      0.00
    0   -3   17      0.36      0.00
    1   -3   17      0.43      0.00
   -8   -2   17     -0.02      0.00
   -7   -2   17     -0.18      0.00
   -6   -2   17      0.36      0.00
   -5   -2   17      0.59      0.00
   -4   -2   17      0.83      0.00
   -3   -2   17     -0.34      0.00
   -2   -2   17      0.06      0.00
   -1   -2   17     -0.37      0.00
    0   -2   17     -0.18      0.00
    1   -2   17      0.20      0.00
   -9   -1   17     -0.17      0.00
   -8   -1   17     -0.02      0.00
   -7   -1   17     -0.26      0.00
   -6   -1   17      0.00      0.00
   -5   -1   17     -0.22      0.00
   -4   -1   17      0.44      0.00
   -3   -1   17      0.03      0.00
   -2   -1   17      0.05      0.00
   -1   -1   17     -0.43      0.00
    0   -1   17      0.57      0.00
    1   -1   17      0.75      0.00
   -9    0   17      0.32      0.00
   -8    0   17     -0.43      0.00
   -7    0   17     -0.39      0.00
   -6    0   17     -0.22      0.00
   -5    0   17      0.11      0.00
   -4    0   17     -0.07      0.00
   -3    0   17      0.08      0.00
   -2    0   17      0.47      0.00
   -1    0   17     -0.12      0.00
    0    0   17      0.00      0.00
    1    0   17     -0.69      0.00
   -9    1   17      0.13      0.00
   -8    1   17      0.02      0.00
   -7    1   17     -0.17      0.00
   -6    1   17     -0.28      0.00
   -5    1   17     -0.10      0.00
   -4    1   17     -0.20      0.00
   -3    1   17      1.33      0.00
   -2    1   17     -0.23      0.00
   -1    1   17     -0.50      0.00
    0    1   17     -0.34      0.00
   -8    2   17     -0.72      0.00
   -7    2   17     -0.08      0.00
   -6    2   17     -0.51      0.00
   -5    2   17     -0.19      0.00
   -4    2   17      0.12      0.00
   -3    2   17      0.37      0.00
   -2    2   17     -0.44      0.00
   -1    2   17     -0.38      0.00
    0    2   17      0.96      0.00
   -8    3   17     -0.05      0.00
   -7    3   17      0.21      0.00
   -6    3   17     -0.83      0.00
   -5    3   17     -0.40      0.00
   -4    3   17     -0.68      0.00
   -3    3   17      0.26      0.00
   -2    3   17     -0.03      0.00
   -1    3   17      0.24      0.00
   -7    4   17      0.03      0.00
   -6    4   17      0.16      0.00
   -5    4   17     -0.97      0.00
   -4    4   17     -0.60      0.00
   -3    4   17      0.71      0.00
   -2    4   17      0.01      0.00
   -5    5   17     -0.38      0.00
   -4   -6   18      0.24      0.00
   -3   -6   18     -0.33      0.00
   -2   -6   18     -0.41      0.00
   -5   -5   18      0.39      0.00
   -4   -5   18      0.15      0.00
   -3   -5   18     -1.04      0.00
   -2   -5   18      0.28      0.00
   -1   -5   18     -0.73      0.00
   -6   -4   18      0.18      0.00
   -5   -4   18      0.39      0.00
   -4   -4   18     -0.11      0.00
   -3   -4   18     -0.77      0.00
   -2   -4   18     -0.23      0.00
   -1   -4   18     -0.19      0.00
    0   -4   18     -0.18      0.00
   -7   -3   18      0.41      0.00
   -6   -3   18     -0.28      0.00
   -5   -3   18     -0.39      0.00
   -4   -3   18     -0.85      0.00
   -3   -3   18     -0.33      0.00
   -2   -3   18      0.48      0.00
   -1   -3   18     -0.14      0.00
    0   -3   18     -0.03      0.00
   -7   -2   18      0.20      0.00
   -6   -2   18     -0.34      0.00
   -5   -2   18     -0.11      0.00
   -4   -2   18     -0.86      0.00
   -3   -2   18      0.09      0.00
   -2   -2   18     -0.33      0.00
   -1   -2   18      0.18      0.00
    0   -2   18     -0.80      0.00
   -7   -1   18      0.22      0.00
   -6   -1   18     -0.45      0.00
   -5   -1   18     -0.09      0.00
   -4   -1   18     -0.15      0.00
   -3   -1   18      0.34      0.00
   -2   -1   18      0.00      0.00
   -1   -1   18     -0.11      0.00
    0   -1   18      0.20      0.00
   -7    0   18      0.30      0.00
   -6    0   18     -0.07      0.00
   -5    0   18     -0.38      0.00
   -4    0   18     -0.35      0.00
   -3    0   18     -0.38      0.00
   -2    0   18     -0.26      0.00
   -1    0   18      0.66      0.00
   -7    1   18      0.19      0.00
   -6    1   18     -0.03      0.00
   -5    1   18      0.16      0.00
   -4    1   18      0.02      0.00
   -3    1   18     -0.24      0.00
   -2    1   18      0.17      0.00
   -1    1   18      0.45      0.00
   -7    2   18     -0.17      0.00
   -6    2   18      0.27      0.00
   -5    2   18      0.55      0.00
   -4    2   18      0.05      0.00
   -3    2   18     -0.43      0.00
   -2    2   18      0.39      0.00
   -6    3   18      0.34      0.00
   -5    3   18      0.57      0.00
   -4    3   18     -0.16      0.00
   -4   -3   19      0.56      0.00
   -3   -3   19      0.44      0.00
   -5   -2   19     -0.06      0.00
   -4   -2   19      0.73      0.00
   -3   -2   19     -0.23      0.00
   -5   -1   19      0.91      0.00
   -4   -1   19      0.69      0.00
   -3   -1   19     -0.49      0.00
   -5    0   19     -0.44      0.00
   -4    0   19     -0.32      0.00
    1    0    0     -7.94      0.00
  -12    1    0      0.52      0.00
    0    1    0     12.01      0.00
    2    1    0      7.50      0.00
  -12    2    0      0.22      0.00
  -12    3    0      0.65      0.00
   11    3    0     -0.07      0.00
  -12    4    0     -0.32      0.00
    9    7    0      0.26      0.00
  -10   10    0      0.21      0.00
    4   12    0     -0.09      0.00
   -3   14    0      0.35      0.00
   -2   14    0      0.62      0.00
    1  -14    1     -0.57      0.00
    8  -12    1     -0.15      0.00
    9  -11    1     -0.29      0.00
  -12    0    1     -0.10      0.00
    0    0    1    -17.96      0.00
    0    1    1   -105.22      0.00
    8    8    1      0.24      0.00
    5   11    1      0.69      0.00
   -6  -11    2     -0.53      0.00
   -7  -10    2     -0.23      0.00
   -8   -9    2     -0.07      0.00
   11   -7    2      0.52      0.00
  -11   -4    2      0.06      0.00
  -12   -1    2      0.18      0.00
   10    4    2      0.19      0.00
  -12    6    2     -0.15      0.00
    9    6    2     -0.39      0.00
    3  -14    3     -0.39      0.00
   -3  -13    3     -0.63      0.00
   -9   -8    3     -0.42      0.00
   11   -6    3     -0.54      0.00
   11    0    3     -0.21      0.00
    8    7    3     -0.22      0.00
    1  -14    4     -0.07      0.00
    2  -14    4      0.86      0.00
   -3  -13    4      0.05      0.00
    9  -10    4     -0.62      0.00
   10   -8    4      0.04      0.00
  -12   -2    4      0.25      0.00
  -11    9    4      0.18      0.00
    6    9    4     -0.95      0.00
    5   10    4      0.51      0.00
   -8   12    4     -0.21      0.00
    2   12    4     -0.81      0.00
   -6   13    4      0.72      0.00
    1  -14    5     -0.78      0.00
   -3  -13    5     -0.40      0.00
   -5  -12    5      0.09      0.00
   10   -7    5     -0.14      0.00
  -11   -5    5      0.06      0.00
   10    1    5     -0.17      0.00
    9    4    5      0.22      0.00
   -5   13    5     -0.56      0.00
   -2   13    5      0.81      0.00
   -3  -13    6      0.23      0.00
   -5  -12    6     -0.13      0.00
  -11   -5    6     -0.05      0.00
   10   -5    6      0.68      0.00
   10   -1    6     -0.14      0.00
    8    5    6     -0.14      0.00
    5    9    6     -1.07      0.00
  -10   10    6      0.40      0.00
   -9   11    6     -0.10      0.00
    4  -13    7      0.14      0.00
    7  -11    7      0.36      0.00
  -10   -7    7     -0.84      0.00
  -11   -5    7      0.42      0.00
    8    4    7      0.20      0.00
    3  -13    8     -0.15      0.00
    9   -6    8      0.21      0.00
  -11   -5    8     -0.17      0.00
    8    3    8     -0.37      0.00
    7    5    8     -0.47      0.00
  -12    6    8     -0.77      0.00
   -8   11    8     -0.44      0.00
   -5   12    8     -0.90      0.00
   -3   12    8     -0.25      0.00
   -1  -13    9      0.16      0.00
    2  -13    9      0.33      0.00
   -6  -11    9      0.60      0.00
  -11   -5    9      0.33      0.00
    4    8    9     -0.28      0.00
  -10    9    9     -0.21      0.00
   -9   10    9      0.42      0.00
    5  -11   10     -0.20      0.00
   -7  -10   10      0.33      0.00
    6  -10   10      0.51      0.00
   -8   -9   10     -0.42      0.00
   -9   -8   10     -0.47      0.00
    8   -5   10     -0.29      0.00
  -12   -2   10      0.29      0.00
    8   -1   10      0.08      0.00
  -12    5   10     -0.10      0.00
    5    6   10      0.47      0.00
    2    9   10      0.61      0.00
   -6   11   10      0.55      0.00
   -3  -12   11      0.18      0.00
    2  -12   11      0.38      0.00
    4  -11   11      0.69      0.00
    6   -9   11     -0.38      0.00
    7   -7   11     -0.29      0.00
  -12   -1   11     -0.38      0.00
  -12    4   11     -0.18      0.00
    5    5   11     -0.57      0.00
  -10    8   11      0.35      0.00
   -9    9   11     -0.60      0.00
    1    9   11      0.65      0.00
   -1   10   11      0.33      0.00
   -1  -12   12      0.61      0.00
    0  -12   12      0.23      0.00
    3  -11   12     -0.20      0.00
  -12    1   12     -0.54      0.00
  -12    2   12      0.07      0.00
   -8    9   12      0.01      0.00
   -5   10   12     -0.30      0.00
   -4   10   12     -0.77      0.00
   -7   -9   13      0.50      0.00
   -8   -8   13      0.03      0.00
    5   -8   13     -0.23      0.00
    6   -5   13     -0.29      0.00
  -11   -3   13     -0.23      0.00
    6   -2   13     -0.38      0.00
    6   -1   13      0.34      0.00
    5    2   13      0.23      0.00
    4    4   13     -0.05      0.00
    0    8   13     -0.69      0.00
    3   -9   14      0.22      0.00
    4   -8   14      0.60      0.00
  -11    3   14      0.27      0.00
    3    4   14      0.43      0.00
    0    7   14      0.73      0.00
   -7    8   14      0.06      0.00
   -2    8   14     -1.85      0.00
   -2  -10   15     -0.13      0.00
   -1  -10   15     -1.33      0.00
    4    0   15     -0.62      0.00
  -10    4   15      0.12      0.00
    1    5   15     -0.70      0.00
   -7    7   15     -0.16      0.00
   -2    7   15      1.29      0.00
   -3   -9   16      0.02      0.00
   -2   -9   16      0.52      0.00
   -1   -9   16      1.32      0.00
    1   -8   16     -0.27      0.00
   -7   -7   16     -0.17      0.00
    2   -7   16     -0.54      0.00
    3   -5   16      0.59      0.00
   -9   -4   16     -0.18      0.00
  -10   -1   16      0.15      0.00
    3   -1   16      0.32      0.00
  -10    1   16      0.02      0.00
  -10    2   16     -0.40      0.00
    2    2   16     -0.13      0.00
   -7    6   16      0.26      0.00
   -3   -8   17     -0.21      0.00
   -2   -8   17     -0.69      0.00
    1   -6   17      0.54      0.00
    2   -4   17      0.67      0.00
    2   -3   17     -0.64      0.00
   -9   -2   17      0.27      0.00
    2   -2   17      0.18      0.00
    1    1   17      1.25      0.00
   -9    2   17     -1.19      0.00
   -6    5   17     -0.56      0.00
   -4    5   17      0.23      0.00
   -3    5   17      0.55      0.00
   -5   -6   18      0.02      0.00
   -1   -6   18     -0.04      0.00
   -6   -5   18      0.41      0.00
   -7   -4   18      0.38      0.00
   -8   -2   18      0.46      0.00
   -8   -1   18      0.21      0.00
   -8    0   18      0.03      0.00
    0    0   18      0.15      0.00
   -8    1   18      1.01      0.00
   -3    3   18      0.17      0.00
   -4   -4   19      0.62      0.00
   -3   -4   19      0.64      0.00
   -5   -3   19      0.25      0.00
   -2   -3   19      0.47      0.00
   -6   -2   19      0.49      0.00
   -2   -2   19     -0.22      0.00
   -6   -1   19      0.48      0.00
   -2   -1   19      0.64      0.00
   -6    0   19      0.58      0.00
   -3    0   19      0.12      0.00
   -5    1   19     -0.28      0.00
   -4    1   19      0.25      0.00
    0    0    0      0.00      0.00
# SQUEEZE RESULTS (Version =  21116)
# Note: Data are Listed for all Voids in the P1 Unit Cell
# i.e. Centre of Gravity, Solvent Accessible Volume,
# Recovered number of Electrons in the Void and
# Details about the Squeezed Material
loop_
  _platon_squeeze_void_nr
  _platon_squeeze_void_average_x
  _platon_squeeze_void_average_y
  _platon_squeeze_void_average_z
  _platon_squeeze_void_volume
  _platon_squeeze_void_count_electrons
  _platon_squeeze_void_content
   1 -0.001  0.000  0.500       208        90 ' '
   2  0.012  0.500  1.000       212        69 ' '
# Missing Reflections Below sin(th)/lambda = 0.25
loop_
  _platon_missing_refln_index_h
  _platon_missing_refln_index_k
  _platon_missing_refln_index_l
  _platon_missing_refln_theta
    1    0    0     2.169
    0    1    0     1.865
    2    1    0     5.063
    0    0    1     1.424
    0    1    1     2.536
_platon_squeeze_void_probe_radius                  1.20
_platon_squeeze_details
)
TITL mo_2016110P -10m-auto  R = 0.04
CELL   10.1240   11.2200   15.3300     96.45    108.76     98.89
SPGR P-1
# Solvent Accessible Volume =       417
# Electrons Found in S.A.V. =       158
# Note: Atoms in Void as Cxxx and Qxxx all others
C101 0.545 0.891 0.472 !       4.63 eA-3
C102 0.768 0.037 0.419 !       3.51 eA-3
C103 0.089 0.137 0.466 !       2.89 eA-3
C104 0.286 0.473 0.015 !       2.28 eA-3
C105 0.375 0.478 0.015 !       2.03 eA-3
C106 0.500 0.500 0.000 !       1.94 eA-3
C107 1.008 0.044 0.485 !       1.30 eA-3
C108 1.000 1.000 0.500 !       1.22 eA-3
Q109 0.709 0.701 0.282 !       1.02 eA-3
Q110 0.704 0.827 0.175 !       0.88 eA-3
Q111 0.953 0.636 0.237 !       0.84 eA-3
Q112 0.284 0.707 0.217 !       0.84 eA-3
C113 0.061 0.490 0.000 !       0.84 eA-3
Q114 0.223 0.294 0.191 !       0.82 eA-3
Q115 0.557 0.050 0.250 !       0.79 eA-3
Q116 0.254 0.933 0.388 !       0.78 eA-3
Q117 0.896 0.726 0.109 !       0.78 eA-3
Q118 0.912 0.298 0.044 !       0.77 eA-3
Q119 0.898 0.028 0.235 !       0.77 eA-3
Q120 0.832 0.170 0.328 !       0.76 eA-3
Q121 0.523 0.179 0.376 !       0.76 eA-3
Q122 0.277 0.186 0.067 !       0.70 eA-3
Q123 0.681 0.536 0.293 !       0.70 eA-3
Q124 0.286 0.843 0.123 !       0.69 eA-3
Q125 0.842 0.415 0.161 !       0.68 eA-3
Q126 0.181 0.043 0.266 !       0.66 eA-3
C127 0.587 0.654 0.013 !       0.63 eA-3
Q128 0.582 0.701 0.249 !       0.54 eA-3
)
;
_shelx_shelxl_version_number     2014/7
_olex2_submission_special_instructions 'No special instructions were received'
loop_
_space_group_symop_operation_xyz
'x, y, z'
'-x, -y, -z'
loop_
_atom_site_label
_atom_site_type_symbol
_atom_site_fract_x
_atom_site_fract_y
_atom_site_fract_z
_atom_site_U_iso_or_equiv
_atom_site_adp_type
_atom_site_occupancy
_atom_site_site_symmetry_order
_atom_site_calc_flag
_atom_site_refinement_flags_posn
Ce1 Ce 0.69937(2) 0.46827(2) 0.51079(2) 0.01810(6) Uani 1 1 d .
O1 O 0.9162(2) 0.3983(2) 0.60794(16) 0.0355(5) Uani 1 1 d .
O2 O 0.7330(3) 0.2467(2) 0.53319(15) 0.0366(5) Uani 1 1 d .
O3 O 0.9032(3) 0.6170(2) 0.49833(19) 0.0462(6) Uani 1 1 d .
H3A H 0.8792 0.6875 0.4893 0.069 Uiso 1 1 d GR
H3B H 0.9273 0.5886 0.4514 0.069 Uiso 1 1 d GR
O4 O 0.4442(2) 0.36999(17) 0.44422(13) 0.0245(4) Uani 1 1 d .
O5 O 0.2219(2) 0.3543(2) 0.35317(16) 0.0390(6) Uani 1 1 d .
O6 O 0.6179(2) 0.4027(2) -0.36156(15) 0.0330(5) Uani 1 1 d .
O7 O 0.4035(2) 0.4361(2) -0.36925(14) 0.0303(5) Uani 1 1 d .
O8 O 0.7151(3) 0.4751(3) 1.25771(18) 0.0534(7) Uani 1 1 d .
H8 H 0.6816 0.5134 1.2913 0.080 Uiso 1 1 calc GR
O9 O 0.7677(3) 0.3714(2) 1.37621(15) 0.0362(5) Uani 1 1 d .
N1 N 0.9523(3) 0.1037(2) 0.98379(16) 0.0243(5) Uani 1 1 d .
N2 N 0.4597(3) 0.1121(2) 0.00137(17) 0.0261(5) Uani 1 1 d .
C1 C 0.8469(3) 0.2901(3) 0.6011(2) 0.0286(6) Uani 1 1 d .
C2 C 0.8968(3) 0.2200(3) 0.6787(2) 0.0268(6) Uani 1 1 d .
C3 C 0.8273(4) 0.1008(3) 0.6716(2) 0.0351(7) Uani 1 1 d .
H3 H 0.7566 0.0611 0.6158 0.042 Uiso 1 1 calc R
C4 C 0.8632(4) 0.0405(3) 0.7478(2) 0.0341(7) Uani 1 1 d .
H4 H 0.8181 -0.0402 0.7421 0.041 Uiso 1 1 calc R
C5 C 0.9660(3) 0.0998(3) 0.83216(19) 0.0235(6) Uani 1 1 d .
C6 C 0.9895(3) 0.0421(3) 0.91871(19) 0.0239(6) Uani 1 1 d .
C7 C 0.9600(3) 0.0663(3) 1.06520(19) 0.0245(6) Uani 1 1 d .
C8 C 0.9124(3) 0.1463(3) 1.1287(2) 0.0268(6) Uani 1 1 d .
C9 C 0.8841(4) 0.1137(3) 1.2070(2) 0.0346(7) Uani 1 1 d .
H9 H 0.8944 0.0367 1.2219 0.042 Uiso 1 1 calc R
C10 C 0.8415(4) 0.1929(3) 1.2625(2) 0.0359(7) Uani 1 1 d .
H10 H 0.8272 0.1705 1.3159 0.043 Uiso 1 1 calc R
C11 C 0.8196(4) 0.3054(3) 1.2397(2) 0.0317(7) Uani 1 1 d .
C12 C 0.7659(4) 0.3865(3) 1.2980(2) 0.0320(7) Uani 1 1 d .
C13 C 0.8464(5) 0.3400(3) 1.1616(3) 0.0531(11) Uani 1 1 d .
H13 H 0.8321 0.4158 1.1458 0.064 Uiso 1 1 calc R
C14 C 0.8940(5) 0.2628(3) 1.1077(3) 0.0502(10) Uani 1 1 d .
H14 H 0.9142 0.2878 1.0567 0.060 Uiso 1 1 calc R
C15 C 1.0358(4) 0.2186(3) 0.8385(2) 0.0345(7) Uani 1 1 d .
H15 H 1.1046 0.2593 0.8947 0.041 Uiso 1 1 calc R
C16 C 1.0037(4) 0.2770(3) 0.7616(2) 0.0341(7) Uani 1 1 d .
H16 H 1.0544 0.3552 0.7657 0.041 Uiso 1 1 calc R
C17 C 0.3420(3) 0.3293(3) 0.3663(2) 0.0250(6) Uani 1 1 d .
C18 C 0.3704(3) 0.2529(3) 0.29071(19) 0.0238(6) Uani 1 1 d .
C19 C 0.4688(3) 0.1777(3) 0.3121(2) 0.0272(6) Uani 1 1 d .
H19 H 0.5186 0.1751 0.3742 0.033 Uiso 1 1 calc R
C20 C 0.4933(3) 0.1063(3) 0.2412(2) 0.0264(6) Uani 1 1 d .
H20 H 0.5571 0.0540 0.2562 0.032 Uiso 1 1 calc R
C21 C 0.4233(3) 0.1122(2) 0.14756(19) 0.0236(6) Uani 1 1 d .
C22 C 0.4595(3) 0.0486(3) 0.07037(19) 0.0234(6) Uani 1 1 d .
C23 C 0.5008(3) 0.0664(3) -0.06761(19) 0.0235(6) Uani 1 1 d .
C24 C 0.5041(3) 0.1486(3) -0.13784(19) 0.0236(6) Uani 1 1 d .
C25 C 0.6307(3) 0.1920(3) -0.1521(2) 0.0304(7) Uani 1 1 d .
H25 H 0.7141 0.1682 -0.1192 0.036 Uiso 1 1 calc R
C26 C 0.6322(3) 0.2705(3) -0.2154(2) 0.0305(7) Uani 1 1 d .
H26 H 0.7171 0.2995 -0.2245 0.037 Uiso 1 1 calc R
C27 C 0.5083(3) 0.3066(3) -0.26552(19) 0.0236(6) Uani 1 1 d .
C28 C 0.5115(3) 0.3878(3) -0.33685(19) 0.0240(6) Uani 1 1 d .
C29 C 0.3827(3) 0.2640(3) -0.2506(2) 0.0318(7) Uani 1 1 d .
H29 H 0.2990 0.2870 -0.2840 0.038 Uiso 1 1 calc R
C30 C 0.3816(3) 0.1874(3) -0.1861(2) 0.0330(7) Uani 1 1 d .
H30 H 0.2976 0.1615 -0.1749 0.040 Uiso 1 1 calc R
C31 C 0.3253(3) 0.1893(3) 0.1266(2) 0.0288(6) Uani 1 1 d .
H31 H 0.2791 0.1952 0.0645 0.035 Uiso 1 1 calc R
C32 C 0.2962(3) 0.2568(3) 0.1968(2) 0.0285(6) Uani 1 1 d .
H32 H 0.2276 0.3047 0.1819 0.034 Uiso 1 1 calc R
loop_
_atom_site_aniso_label
_atom_site_aniso_U_11
_atom_site_aniso_U_22
_atom_site_aniso_U_33
_atom_site_aniso_U_23
_atom_site_aniso_U_13
_atom_site_aniso_U_12
Ce1 0.02382(9) 0.02162(9) 0.01620(9) 0.00830(6) 0.01186(6) 0.01163(6)
O1 0.0337(12) 0.0400(13) 0.0439(13) 0.0257(10) 0.0182(10) 0.0159(10)
O2 0.0491(14) 0.0352(12) 0.0251(11) 0.0129(9) 0.0065(10) 0.0160(10)
O3 0.0480(15) 0.0438(14) 0.0578(16) 0.0124(12) 0.0337(13) 0.0055(12)
O4 0.0318(11) 0.0216(9) 0.0199(9) 0.0016(8) 0.0090(8) 0.0066(8)
O5 0.0279(11) 0.0494(14) 0.0360(12) -0.0125(10) 0.0125(10) 0.0086(10)
O6 0.0380(12) 0.0475(13) 0.0303(11) 0.0255(10) 0.0229(10) 0.0201(10)
O7 0.0418(12) 0.0382(12) 0.0295(11) 0.0226(9) 0.0230(9) 0.0266(10)
O8 0.094(2) 0.0572(16) 0.0445(15) 0.0281(13) 0.0480(15) 0.0530(16)
O9 0.0597(15) 0.0400(12) 0.0265(11) 0.0133(9) 0.0272(11) 0.0288(11)
N1 0.0314(12) 0.0279(12) 0.0183(11) 0.0066(9) 0.0112(10) 0.0126(10)
N2 0.0393(14) 0.0252(12) 0.0229(12) 0.0101(10) 0.0180(11) 0.0136(10)
C1 0.0360(16) 0.0342(16) 0.0285(15) 0.0154(13) 0.0189(13) 0.0206(13)
C2 0.0338(15) 0.0308(15) 0.0243(14) 0.0123(12) 0.0146(12) 0.0156(12)
C3 0.0440(18) 0.0344(17) 0.0220(15) 0.0085(13) 0.0038(13) 0.0071(14)
C4 0.0440(18) 0.0265(15) 0.0297(16) 0.0112(12) 0.0097(14) 0.0035(13)
C5 0.0292(14) 0.0264(14) 0.0215(13) 0.0083(11) 0.0128(11) 0.0138(11)
C6 0.0267(14) 0.0261(14) 0.0208(13) 0.0057(11) 0.0084(11) 0.0093(11)
C7 0.0271(14) 0.0281(14) 0.0209(13) 0.0059(11) 0.0091(11) 0.0105(12)
C8 0.0329(15) 0.0292(15) 0.0232(14) 0.0056(11) 0.0121(12) 0.0142(12)
C9 0.0497(19) 0.0277(15) 0.0399(18) 0.0145(13) 0.0253(15) 0.0190(14)
C10 0.054(2) 0.0395(18) 0.0315(16) 0.0163(14) 0.0285(15) 0.0222(16)
C11 0.0440(18) 0.0317(16) 0.0288(15) 0.0073(12) 0.0199(14) 0.0176(14)
C12 0.0431(18) 0.0316(16) 0.0303(16) 0.0095(13) 0.0196(14) 0.0158(14)
C13 0.103(3) 0.040(2) 0.047(2) 0.0210(17) 0.050(2) 0.041(2)
C14 0.095(3) 0.044(2) 0.0391(19) 0.0213(16) 0.045(2) 0.039(2)
C15 0.0400(18) 0.0316(16) 0.0271(16) 0.0084(13) 0.0042(13) 0.0072(14)
C16 0.0396(18) 0.0281(16) 0.0356(17) 0.0131(13) 0.0124(14) 0.0053(13)
C17 0.0306(15) 0.0209(13) 0.0251(14) 0.0011(11) 0.0141(12) 0.0028(11)
C18 0.0274(14) 0.0219(13) 0.0243(14) 0.0018(11) 0.0131(11) 0.0035(11)
C19 0.0347(16) 0.0282(15) 0.0199(13) 0.0035(11) 0.0098(12) 0.0096(12)
C20 0.0354(16) 0.0264(14) 0.0230(14) 0.0069(11) 0.0128(12) 0.0144(12)
C21 0.0332(15) 0.0218(13) 0.0219(13) 0.0070(11) 0.0154(12) 0.0085(11)
C22 0.0330(15) 0.0238(14) 0.0198(13) 0.0085(11) 0.0142(11) 0.0106(11)
C23 0.0350(15) 0.0233(13) 0.0204(13) 0.0096(11) 0.0162(12) 0.0112(12)
C24 0.0361(15) 0.0225(13) 0.0211(13) 0.0100(11) 0.0163(12) 0.0137(12)
C25 0.0334(16) 0.0386(17) 0.0314(16) 0.0214(13) 0.0167(13) 0.0202(13)
C26 0.0315(16) 0.0402(17) 0.0339(16) 0.0209(14) 0.0211(13) 0.0166(13)
C27 0.0336(15) 0.0263(14) 0.0217(13) 0.0133(11) 0.0169(12) 0.0149(12)
C28 0.0356(15) 0.0259(14) 0.0191(13) 0.0097(11) 0.0159(12) 0.0130(12)
C29 0.0302(15) 0.0372(17) 0.0387(17) 0.0223(14) 0.0165(13) 0.0167(13)
C30 0.0336(16) 0.0386(17) 0.0420(18) 0.0236(14) 0.0241(14) 0.0156(14)
C31 0.0374(16) 0.0328(16) 0.0205(14) 0.0080(12) 0.0110(12) 0.0155(13)
C32 0.0317(15) 0.0301(15) 0.0270(15) 0.0049(12) 0.0106(12) 0.0152(12)
loop_
_atom_type_symbol
_atom_type_description
_atom_type_scat_dispersion_real
_atom_type_scat_dispersion_imag
_atom_type_scat_source
C C 0.0033 0.0016 'International Tables Vol C Tables 4.2.6.8 and 6.1.1.4'
H H 0.0000 0.0000 'International Tables Vol C Tables 4.2.6.8 and 6.1.1.4'
Ce Ce -0.2486 2.6331 'International Tables Vol C Tables 4.2.6.8 and 6.1.1.4'
N N 0.0061 0.0033 'International Tables Vol C Tables 4.2.6.8 and 6.1.1.4'
O O 0.0106 0.0060 'International Tables Vol C Tables 4.2.6.8 and 6.1.1.4'
loop_
_geom_angle_atom_site_label_1
_geom_angle_atom_site_label_2
_geom_angle_atom_site_label_3
_geom_angle
_geom_angle_site_symmetry_1
_geom_angle_site_symmetry_3
O1 Ce1 Ce1 146.15(5) . 2_666
O1 Ce1 O2 50.96(7) . .
O1 Ce1 O4 131.24(7) . 2_666
O1 Ce1 O5 83.60(8) . 2_666
O1 Ce1 O7 144.81(7) . 2_665
O1 Ce1 O9 82.20(8) . 1_554
O1 Ce1 C1 26.24(8) . .
O1 Ce1 C17 106.06(8) . 2_666
O2 Ce1 Ce1 114.67(6) . 2_666
O2 Ce1 O4 138.86(7) . 2_666
O2 Ce1 C1 25.87(8) . .
O2 Ce1 C17 131.93(8) . 2_666
O3 Ce1 Ce1 126.78(6) . 2_666
O3 Ce1 O1 76.60(8) . .
O3 Ce1 O2 118.51(8) . .
O3 Ce1 O4 98.11(8) . 2_666
O3 Ce1 O5 71.35(8) . 2_666
O3 Ce1 O7 73.64(8) . 2_665
O3 Ce1 O9 72.40(8) . 1_554
O3 Ce1 C1 101.06(9) . .
O3 Ce1 C17 87.14(8) . 2_666
O4 Ce1 Ce1 38.06(4) . 2_666
O4 Ce1 Ce1 34.97(4) 2_666 2_666
O4 Ce1 O1 132.61(7) . .
O4 Ce1 O2 83.47(7) . .
O4 Ce1 O3 147.95(8) . .
O4 Ce1 O4 73.03(7) . 2_666
O4 Ce1 O5 118.27(7) . 2_666
O4 Ce1 O6 70.83(7) . 1_556
O4 Ce1 O7 74.33(7) . 2_665
O4 Ce1 O9 96.04(7) . 1_554
O4 Ce1 C1 106.49(8) . .
O4 Ce1 C1 135.97(7) 2_666 .
O4 Ce1 C17 25.72(7) 2_666 2_666
O4 Ce1 C17 94.64(7) . 2_666
O5 Ce1 Ce1 82.53(5) 2_666 2_666
O5 Ce1 O2 122.62(8) 2_666 .
O5 Ce1 O4 50.06(7) 2_666 2_666
O5 Ce1 O9 143.21(8) 2_666 1_554
O5 Ce1 C1 100.29(9) 2_666 .
O5 Ce1 C17 24.84(8) 2_666 2_666
O6 Ce1 Ce1 66.75(5) 1_556 2_666
O6 Ce1 O1 79.55(7) 1_556 .
O6 Ce1 O2 68.40(7) 1_556 .
O6 Ce1 O3 136.91(8) 1_556 .
O6 Ce1 O4 72.11(7) 1_556 2_666
O6 Ce1 O5 70.75(8) 1_556 2_666
O6 Ce1 O7 135.57(7) 1_556 2_665
O6 Ce1 O9 138.44(7) 1_556 1_554
O6 Ce1 C1 66.79(7) 1_556 .
O6 Ce1 C17 65.78(8) 1_556 2_666
O7 Ce1 Ce1 68.82(5) 2_665 2_666
O7 Ce1 O2 133.44(7) 2_665 .
O7 Ce1 O4 71.97(6) 2_665 2_666
O7 Ce1 O5 103.93(8) 2_665 2_666
O7 Ce1 O9 71.26(7) 2_665 1_554
O7 Ce1 C1 151.76(7) 2_665 .
O7 Ce1 C17 90.88(8) 2_665 2_666
O9 Ce1 Ce1 125.41(6) 1_554 2_666
O9 Ce1 O2 71.06(7) 1_554 .
O9 Ce1 O4 143.22(6) 1_554 2_666
O9 Ce1 C1 80.65(8) 1_554 .
O9 Ce1 C17 155.75(8) 1_554 2_666
C1 Ce1 Ce1 129.31(6) . 2_666
C1 Ce1 C17 116.87(8) . 2_666
C17 Ce1 Ce1 57.84(6) 2_666 2_666
C1 O1 Ce1 93.31(18) . .
C1 O2 Ce1 89.74(18) . .
Ce1 O3 H3A 110.7 . .
Ce1 O3 H3B 110.5 . .
H3A O3 H3B 108.3 . .
Ce1 O4 Ce1 106.97(7) . 2_666
C17 O4 Ce1 90.18(16) . 2_666
C17 O4 Ce1 142.31(18) . .
C17 O5 Ce1 96.45(17) . 2_666
C28 O6 Ce1 142.16(19) . 1_554
C28 O7 Ce1 136.34(17) . 2_665
C12 O8 H8 109.5 . .
C12 O9 Ce1 140.0(2) . 1_556
C6 N1 C7 122.7(2) . .
C23 N2 C22 119.3(2) . .
O1 C1 Ce1 60.46(15) . .
O1 C1 C2 118.8(3) . .
O2 C1 Ce1 64.40(15) . .
O2 C1 O1 120.5(3) . .
O2 C1 C2 120.5(3) . .
C2 C1 Ce1 154.56(19) . .
C3 C2 C1 120.1(3) . .
C16 C2 C1 120.3(3) . .
C16 C2 C3 119.3(3) . .
C2 C3 H3 120.0 . .
C2 C3 C4 120.1(3) . .
C4 C3 H3 120.0 . .
C3 C4 H4 119.7 . .
C5 C4 C3 120.5(3) . .
C5 C4 H4 119.7 . .
C4 C5 C6 120.6(3) . .
C15 C5 C4 119.0(3) . .
C15 C5 C6 120.0(3) . .
N1 C6 C5 112.8(2) . .
N1 C6 C7 119.6(3) . 2_757
C7 C6 C5 127.6(2) 2_757 .
N1 C7 C6 117.7(3) . 2_757
N1 C7 C8 115.0(2) . .
C6 C7 C8 127.3(3) 2_757 .
C9 C8 C7 124.7(3) . .
C9 C8 C14 117.8(3) . .
C14 C8 C7 117.5(3) . .
C8 C9 H9 119.4 . .
C10 C9 C8 121.3(3) . .
C10 C9 H9 119.4 . .
C9 C10 H10 119.7 . .
C9 C10 C11 120.5(3) . .
C11 C10 H10 119.7 . .
C10 C11 C12 119.4(3) . .
C10 C11 C13 119.3(3) . .
C13 C11 C12 121.3(3) . .
O8 C12 C11 113.9(3) . .
O9 C12 O8 123.1(3) . .
O9 C12 C11 123.0(3) . .
C11 C13 H13 119.8 . .
C14 C13 C11 120.5(3) . .
C14 C13 H13 119.8 . .
C8 C14 H14 119.7 . .
C13 C14 C8 120.7(3) . .
C13 C14 H14 119.7 . .
C5 C15 H15 119.8 . .
C16 C15 C5 120.4(3) . .
C16 C15 H15 119.8 . .
C2 C16 C15 120.5(3) . .
C2 C16 H16 119.7 . .
C15 C16 H16 119.7 . .
O4 C17 Ce1 64.10(14) . 2_666
O4 C17 C18 118.5(3) . .
O5 C17 Ce1 58.71(15) . 2_666
O5 C17 O4 120.9(3) . .
O5 C17 C18 120.6(3) . .
C18 C17 Ce1 165.11(19) . 2_666
C19 C18 C17 120.9(3) . .
C19 C18 C32 119.5(3) . .
C32 C18 C17 119.6(3) . .
C18 C19 H19 119.8 . .
C20 C19 C18 120.3(3) . .
C20 C19 H19 119.8 . .
C19 C20 H20 119.7 . .
C19 C20 C21 120.6(3) . .
C21 C20 H20 119.7 . .
C20 C21 C22 122.1(3) . .
C20 C21 C31 118.7(3) . .
C31 C21 C22 119.0(2) . .
N2 C22 C21 114.9(2) . .
N2 C22 C23 119.5(2) . 2_655
C23 C22 C21 125.5(2) 2_655 .
N2 C23 C22 121.2(2) . 2_655
N2 C23 C24 114.4(2) . .
C22 C23 C24 124.4(2) 2_655 .
C25 C24 C23 120.8(3) . .
C30 C24 C23 119.9(3) . .
C30 C24 C25 119.1(3) . .
C24 C25 H25 120.0 . .
C26 C25 C24 119.9(3) . .
C26 C25 H25 120.0 . .
C25 C26 H26 119.6 . .
C25 C26 C27 120.8(3) . .
C27 C26 H26 119.6 . .
C26 C27 C28 119.7(3) . .
C29 C27 C26 119.1(3) . .
C29 C27 C28 121.1(3) . .
O6 C28 O7 124.0(2) . .
O6 C28 C27 118.4(2) . .
O7 C28 C27 117.6(2) . .
C27 C29 H29 119.9 . .
C30 C29 C27 120.1(3) . .
C30 C29 H29 119.9 . .
C24 C30 H30 119.6 . .
C29 C30 C24 120.9(3) . .
C29 C30 H30 119.6 . .
C21 C31 H31 119.6 . .
C32 C31 C21 120.9(3) . .
C32 C31 H31 119.6 . .
C18 C32 H32 120.0 . .
C31 C32 C18 119.9(3) . .
C31 C32 H32 120.0 . .
loop_
_geom_bond_atom_site_label_1
_geom_bond_atom_site_label_2
_geom_bond_distance
_geom_bond_site_symmetry_2
Ce1 Ce1 4.1224(10) 2_666
Ce1 O1 2.518(2) .
Ce1 O2 2.606(2) .
Ce1 O3 2.518(2) .
Ce1 O4 2.657(2) 2_666
Ce1 O4 2.470(2) .
Ce1 O5 2.541(2) 2_666
Ce1 O6 2.4954(19) 1_556
Ce1 O7 2.5220(19) 2_665
Ce1 O9 2.562(2) 1_554
Ce1 C1 2.890(3) .
Ce1 C17 2.954(3) 2_666
O1 C1 1.280(4) .
O2 C1 1.261(4) .
O3 H3A 0.8752 .
O3 H3B 0.8750 .
O4 Ce1 2.657(2) 2_666
O4 C17 1.282(3) .
O5 Ce1 2.541(2) 2_666
O5 C17 1.249(4) .
O6 Ce1 2.4954(19) 1_554
O6 C28 1.246(3) .
O7 Ce1 2.5219(19) 2_665
O7 C28 1.276(3) .
O8 H8 0.8200 .
O8 C12 1.314(4) .
O9 Ce1 2.562(2) 1_556
O9 C12 1.224(4) .
N1 C6 1.335(4) .
N1 C7 1.343(4) .
N2 C22 1.340(4) .
N2 C23 1.335(4) .
C1 C2 1.496(4) .
C2 C3 1.387(4) .
C2 C16 1.383(5) .
C3 H3 0.9300 .
C3 C4 1.391(4) .
C4 H4 0.9300 .
C4 C5 1.387(4) .
C5 C6 1.507(4) .
C5 C15 1.386(4) .
C6 C7 1.407(4) 2_757
C7 C6 1.407(4) 2_757
C7 C8 1.493(4) .
C8 C9 1.394(4) .
C8 C14 1.406(5) .
C9 H9 0.9300 .
C9 C10 1.373(4) .
C10 H10 0.9300 .
C10 C11 1.379(4) .
C11 C12 1.485(4) .
C11 C13 1.392(5) .
C13 H13 0.9300 .
C13 C14 1.374(5) .
C14 H14 0.9300 .
C15 H15 0.9300 .
C15 C16 1.385(4) .
C16 H16 0.9300 .
C17 Ce1 2.954(3) 2_666
C17 C18 1.492(4) .
C18 C19 1.387(4) .
C18 C32 1.402(4) .
C19 H19 0.9300 .
C19 C20 1.387(4) .
C20 H20 0.9300 .
C20 C21 1.396(4) .
C21 C22 1.488(4) .
C21 C31 1.400(4) .
C22 C23 1.409(4) 2_655
C23 C22 1.409(4) 2_655
C23 C24 1.499(4) .
C24 C25 1.392(4) .
C24 C30 1.387(4) .
C25 H25 0.9300 .
C25 C26 1.383(4) .
C26 H26 0.9300 .
C26 C27 1.391(4) .
C27 C28 1.505(4) .
C27 C29 1.386(4) .
C29 H29 0.9300 .
C29 C30 1.383(4) .
C30 H30 0.9300 .
C31 H31 0.9300 .
C31 C32 1.381(4) .
C32 H32 0.9300 .
loop_
_geom_torsion_atom_site_label_1
_geom_torsion_atom_site_label_2
_geom_torsion_atom_site_label_3
_geom_torsion_atom_site_label_4
_geom_torsion
_geom_torsion_site_symmetry_1
_geom_torsion_site_symmetry_4
Ce1 O1 C1 O2 24.3(3) . .
Ce1 O1 C1 C2 -150.8(2) . .
Ce1 O2 C1 O1 -23.4(3) . .
Ce1 O2 C1 C2 151.6(2) . .
Ce1 O4 C17 Ce1 -118.8(3) . 2_666
Ce1 O4 C17 O5 -134.2(3) . .
Ce1 O4 C17 O5 -15.4(3) 2_666 .
Ce1 O4 C17 C18 44.7(4) . .
Ce1 O4 C17 C18 163.5(2) 2_666 .
Ce1 O5 C17 O4 16.2(3) 2_666 .
Ce1 O5 C17 C18 -162.6(2) 2_666 .
Ce1 O6 C28 O7 -18.6(5) 1_554 .
Ce1 O6 C28 C27 160.4(2) 1_554 .
Ce1 O7 C28 O6 18.0(5) 2_665 .
Ce1 O7 C28 C27 -161.1(2) 2_665 .
Ce1 O9 C12 O8 -1.2(6) 1_556 .
Ce1 O9 C12 C11 179.5(2) 1_556 .
Ce1 C1 C2 C3 101.4(5) . .
Ce1 C1 C2 C16 -72.5(6) . .
Ce1 C17 C18 C19 127.8(7) 2_666 .
Ce1 C17 C18 C32 -52.4(9) 2_666 .
O1 C1 C2 C3 -177.4(3) . .
O1 C1 C2 C16 8.6(4) . .
O2 C1 C2 C3 7.5(4) . .
O2 C1 C2 C16 -166.5(3) . .
O4 C17 C18 C19 31.7(4) . .
O4 C17 C18 C32 -148.5(3) . .
O5 C17 C18 C19 -149.4(3) . .
O5 C17 C18 C32 30.4(4) . .
N1 C7 C8 C9 166.5(3) . .
N1 C7 C8 C14 -13.1(4) . .
N2 C23 C24 C25 118.9(3) . .
N2 C23 C24 C30 -57.8(4) . .
C1 C2 C3 C4 -172.8(3) . .
C1 C2 C16 C15 170.3(3) . .
C2 C3 C4 C5 1.7(5) . .
C3 C2 C16 C15 -3.7(5) . .
C3 C4 C5 C6 170.7(3) . .
C3 C4 C5 C15 -2.2(5) . .
C4 C5 C6 N1 -112.8(3) . .
C4 C5 C6 C7 65.2(4) . 2_757
C4 C5 C15 C16 -0.2(5) . .
C5 C15 C16 C2 3.2(5) . .
C6 N1 C7 C6 0.3(5) . 2_757
C6 N1 C7 C8 -179.4(3) . .
C6 C5 C15 C16 -173.1(3) . .
C6 C7 C8 C9 -13.2(5) 2_757 .
C6 C7 C8 C14 167.2(3) 2_757 .
C7 N1 C6 C5 177.8(3) . .
C7 N1 C6 C7 -0.3(5) . 2_757
C7 C8 C9 C10 179.6(3) . .
C7 C8 C14 C13 178.1(4) . .
C8 C9 C10 C11 2.8(6) . .
C9 C8 C14 C13 -1.5(6) . .
C9 C10 C11 C12 176.7(3) . .
C9 C10 C11 C13 -2.4(6) . .
C10 C11 C12 O8 -163.5(3) . .
C10 C11 C12 O9 15.8(5) . .
C10 C11 C13 C14 0.1(7) . .
C11 C13 C14 C8 1.9(7) . .
C12 C11 C13 C14 -179.0(4) . .
C13 C11 C12 O8 15.5(5) . .
C13 C11 C12 O9 -165.1(4) . .
C14 C8 C9 C10 -0.8(5) . .
C15 C5 C6 N1 60.0(4) . .
C15 C5 C6 C7 -122.0(3) . 2_757
C16 C2 C3 C4 1.3(5) . .
C17 C18 C19 C20 179.4(3) . .
C17 C18 C32 C31 177.9(3) . .
C18 C19 C20 C21 2.3(5) . .
C19 C18 C32 C31 -2.3(4) . .
C19 C20 C21 C22 172.5(3) . .
C19 C20 C21 C31 -1.6(4) . .
C20 C21 C22 N2 -140.3(3) . .
C20 C21 C22 C23 36.3(4) . 2_655
C20 C21 C31 C32 -1.1(5) . .
C21 C31 C32 C18 3.0(5) . .
C22 N2 C23 C22 1.6(5) . 2_655
C22 N2 C23 C24 -176.8(3) . .
C22 C21 C31 C32 -175.4(3) . .
C22 C23 C24 C25 -59.5(4) 2_655 .
C22 C23 C24 C30 123.8(3) 2_655 .
C23 N2 C22 C21 175.2(3) . .
C23 N2 C22 C23 -1.6(5) . 2_655
C23 C24 C25 C26 -178.2(3) . .
C23 C24 C30 C29 179.5(3) . .
C24 C25 C26 C27 -0.3(5) . .
C25 C24 C30 C29 2.7(5) . .
C25 C26 C27 C28 -177.4(3) . .
C25 C26 C27 C29 0.8(5) . .
C26 C27 C28 O6 12.9(4) . .
C26 C27 C28 O7 -168.0(3) . .
C26 C27 C29 C30 0.5(5) . .
C27 C29 C30 C24 -2.2(5) . .
C28 C27 C29 C30 178.6(3) . .
C29 C27 C28 O6 -165.3(3) . .
C29 C27 C28 O7 13.8(4) . .
C30 C24 C25 C26 -1.4(5) . .
C31 C21 C22 N2 33.8(4) . .
C31 C21 C22 C23 -149.6(3) . 2_655
C32 C18 C19 C20 -0.3(4) . .
