#------------------------------------------------------------------------------
#$Date: 2019-10-11 11:54:38 +0300 (Fri, 11 Oct 2019) $
#$Revision: 219290 $
#$URL: file:///home/coder/svn-repositories/cod/cif/7/23/45/7234557.cif $
#------------------------------------------------------------------------------
#
# This file is available in the Crystallography Open Database (COD),
# http://www.crystallography.net/
#
# All data on this site have been placed in the public domain by the
# contributors.
#
data_7234557
loop_
_publ_author_name
'Maciej Ptak'
'Miroslaw Maczka'
'Anna Gagor'
'Pawel Gluchowski'
'Lucyna Macalik'
_publ_section_title
;
 Synthesis, structure and optical properties of two novel luminescent
 polar dysprosium metal-organic frameworks: [(CH3)2NH2][Dy(HCOO)4] and
 [N2H5][Dy(HCOO)4]
;
_journal_name_full               'Journal of Materials Chemistry C'
_journal_page_first              1019
_journal_page_last               1028
_journal_paper_doi               10.1039/C5TC04264J
_journal_volume                  4
_journal_year                    2016
_chemical_formula_sum            'C4 H9 Dy N2 O8'
_chemical_formula_weight         375.63
_space_group_crystal_system      orthorhombic
_space_group_IT_number           29
_space_group_name_Hall           'P 2c -2ac'
_space_group_name_H-M_alt        'P c a 21'
_atom_sites_solution_hydrogens   mixed
_cell_angle_alpha                90
_cell_angle_beta                 90
_cell_angle_gamma                90
_cell_formula_units_Z            4
_cell_length_a                   18.3359(5)
_cell_length_b                   6.60183(17)
_cell_length_c                   7.6049(2)
_cell_measurement_reflns_used    7306
_cell_measurement_temperature    298(2)
_cell_measurement_theta_max      27.6961
_cell_measurement_theta_min      2.8939
_cell_volume                     920.58(4)
_computing_structure_refinement  'SHELXL-2014/7 (Sheldrick, 2014)'
_diffrn_ambient_temperature      298(2)
_diffrn_detector_area_resol_mean 8.4350
_diffrn_measured_fraction_theta_full 0.999
_diffrn_measured_fraction_theta_max 0.999
_diffrn_measurement_device_type  'Xcalibur, Sapphire1, long nozzle'
_diffrn_radiation_monochromator  graphite
_diffrn_radiation_source         'Enhance (Mo) X-ray Source'
_diffrn_radiation_type           'Mo K\a'
_diffrn_radiation_wavelength     0.7107
_diffrn_reflns_av_R_equivalents  0.0254
_diffrn_reflns_av_unetI/netI     0.0181
_diffrn_reflns_Laue_measured_fraction_full 0.999
_diffrn_reflns_Laue_measured_fraction_max 0.999
_diffrn_reflns_limit_h_max       22
_diffrn_reflns_limit_h_min       -22
_diffrn_reflns_limit_k_max       8
_diffrn_reflns_limit_k_min       -8
_diffrn_reflns_limit_l_max       9
_diffrn_reflns_limit_l_min       -9
_diffrn_reflns_number            7972
_diffrn_reflns_point_group_measured_fraction_full 0.986
_diffrn_reflns_point_group_measured_fraction_max 0.986
_diffrn_reflns_theta_full        25.674
_diffrn_reflns_theta_max         25.674
_diffrn_reflns_theta_min         3.086
_exptl_absorpt_coefficient_mu    8.147
_exptl_absorpt_correction_T_max  1.00000
_exptl_absorpt_correction_T_min  0.31586
_exptl_absorpt_correction_type   multi-scan
_exptl_absorpt_process_details
;
CrysAlisPro, Oxford Diffraction Ltd.,
Version 1.171.34.44 (release 25-10-2010 CrysAlis171 .NET)
(compiled Oct 25 2010,18:11:34)
Empirical absorption correction using spherical harmonics,
 implemented in SCALE3 ABSPACK scaling algorithm.
;
_exptl_crystal_density_diffrn    2.710
_exptl_crystal_description       prism
_exptl_crystal_F_000             708
_exptl_crystal_size_max          0.18
_exptl_crystal_size_mid          0.15
_exptl_crystal_size_min          0.14
_refine_diff_density_max         0.507
_refine_diff_density_min         -0.528
_refine_diff_density_rms         0.093
_refine_ls_abs_structure_details
;
 Flack x determined using 745 quotients [(I+)-(I-)]/[(I+)+(I-)]
 (Parsons, Flack and Wagner, Acta Cryst. B69 (2013) 249-259).
;
_refine_ls_abs_structure_Flack   -0.032(11)
_refine_ls_extinction_coef       0.0087(4)
_refine_ls_extinction_expression Fc^*^=kFc[1+0.001xFc^2^\l^3^/sin(2\q)]^-1/4^
_refine_ls_extinction_method     'SHELXL-2014/7 (Sheldrick 2014'
_refine_ls_goodness_of_fit_ref   1.116
_refine_ls_hydrogen_treatment    mixed
_refine_ls_matrix_type           full
_refine_ls_number_parameters     143
_refine_ls_number_reflns         1715
_refine_ls_number_restraints     6
_refine_ls_restrained_S_all      1.114
_refine_ls_R_factor_all          0.0151
_refine_ls_R_factor_gt           0.0147
_refine_ls_shift/su_max          0.039
_refine_ls_shift/su_mean         0.002
_refine_ls_structure_factor_coef Fsqd
_refine_ls_weighting_details
'w=1/[\s^2^(Fo^2^)+(0.0230P)^2^+0.0900P] where P=(Fo^2^+2Fc^2^)/3'
_refine_ls_weighting_scheme      calc
_refine_ls_wR_factor_gt          0.0375
_refine_ls_wR_factor_ref         0.0377
_reflns_Friedel_coverage         0.823
_reflns_Friedel_fraction_full    0.971
_reflns_Friedel_fraction_max     0.971
_reflns_number_gt                1689
_reflns_number_total             1715
_reflns_threshold_expression     'I > 2\s(I)'
_cod_data_source_file            J-Mater-Chem-C-2016-4-1019.cif
_cod_data_source_block           nc2
_cod_original_cell_volume        920.57(4)
_cod_database_code               7234557
_shelx_space_group_comment
;
The symmetry employed for this shelxl refinement is uniquely defined
by the following loop, which should always be used as a source of
symmetry information in preference to the above space-group names.
They are only intended as comments.
;
_shelx_res_file
;

    nc.res created by SHELXL-2014/7


TITL hydrazyna_Y_k1a in Pca2(1)
REM Pca2(1) (#29 in standard setting)
CELL 0.71073  18.335873   6.601833   7.604884  90.0000  90.0000  90.0000
ZERR    4.00   0.000535   0.000168   0.000207   0.0000   0.0000   0.0000
LATT -1
SYMM -x,-y, z+1/2
SYMM  x+1/2,-y, z
SYMM -x+1/2, y, z+1/2
SFAC C H N O Dy
UNIT 16 36 8 32 4

L.S. 16
BOND
FMAP 2
PLAN 20
shel 10 0.82
acta 56
WGHT    0.023000    0.090000
EXTI    0.008710
FVAR       1.31907
MOLE   1
DY1   5    0.601978    0.204057    0.444670    11.00000    0.01121    0.01051 =
         0.01452    0.00027    0.00049    0.00079

O1    4    0.719249    0.195022    0.583929    11.00000    0.01623    0.02911 =
         0.05989    0.01429   -0.01510    0.00030
O2    4    0.585731    0.176460    0.752568    11.00000    0.02492    0.02141 =
         0.01850    0.00143    0.00312   -0.00603
O3    4    0.652788    0.532067    0.490867    11.00000    0.02861    0.01039 =
         0.03758   -0.00124   -0.00671   -0.00027
O4    4    0.572804    0.406276    0.187184    11.00000    0.01857    0.02205 =
         0.02177    0.00529   -0.00371    0.00336
O5    4    0.677813    0.116867    0.217569    11.00000    0.01983    0.04159 =
         0.03195   -0.00171    0.01061    0.00458
O6    4    0.494346    0.394219    0.518814    11.00000    0.02103    0.02888 =
         0.02172   -0.00710    0.00002    0.00913
O7    4    0.624669   -0.143750    0.517100    11.00000    0.03592    0.01108 =
         0.03409    0.00100    0.00150    0.00187
O8    4    0.490821   -0.024257    0.803400    11.00000    0.02666    0.02429 =
         0.03005    0.00275   -0.00003   -0.00939
C1    1    0.638397    0.705693    0.427899    11.00000    0.02698    0.01819 =
         0.02007   -0.00119   -0.00553   -0.00173
AFIX  43
H1    2    0.638235    0.719894    0.306233    11.00000   -1.20000
AFIX   0
C2    1    0.512958    0.477179    0.136593    11.00000    0.01729    0.02588 =
         0.01747    0.00247    0.00069    0.00257
AFIX  43
H2    2    0.470915    0.429945    0.191348    11.00000   -1.20000
AFIX   0
C3    1    0.736072    0.077693    0.145806    11.00000    0.02047    0.01990 =
         0.03770    0.00204    0.00783    0.00489
AFIX  43
H3    2    0.747728   -0.059068    0.137435    11.00000   -1.20000
AFIX   0
C4    1    0.543607    0.076136    0.851169    11.00000    0.02645    0.01775 =
         0.01561    0.00092    0.00252   -0.00087
AFIX  43
H4    2    0.553513    0.078574    0.971085    11.00000   -1.20000
AFIX   0

MOLE   2
N1    3    0.679906    0.470369    0.927756    11.00000    0.03099    0.03267 =
         0.03060   -0.00728   -0.00532   -0.00087
AFIX 133
H1A   2    0.727888    0.452506    0.936211    11.00000   -1.50000
H1B   2    0.662600    0.395636    0.839744    11.00000   -1.50000
H1C   2    0.658695    0.432879    1.027863    11.00000   -1.50000
AFIX   0

DFIX 0.91 0.002 N2 H2A N2 H2B
dfix 1.49 0.001 H2a H2b
dfix 2.0 0.001 H1b H2b
dfix 2.0 0.001 H2a H1c
N2    3    0.664753    0.678595    0.894862    11.00000    0.03909    0.03897 =
         0.03898    0.01315   -0.00469    0.00012
H2A   2    0.622252    0.704803    0.952260    11.00000   -1.20000
H2B   2    0.657942    0.689471    0.776743    11.00000   -1.20000
HKLF 4

REM  hydrazyna_Y_k1a in Pca2(1)
REM R1 =  0.0147 for    1689 Fo > 4sig(Fo)  and  0.0151 for all    1715 data
REM    143 parameters refined using      6 restraints

END

WGHT      0.0227      0.0000

REM Highest difference peak  0.507,  deepest hole -0.528,  1-sigma level  0.093
Q1    1   0.6015  0.1180  0.5779  11.00000  0.05    0.51
Q2    1   0.6007  0.2799  0.3077  11.00000  0.05    0.50
Q3    1   0.6024  0.1182  0.3117  11.00000  0.05    0.48
Q4    1   0.6009  0.2826  0.5831  11.00000  0.05    0.47
Q5    1   0.6113  0.0238  0.4485  11.00000  0.05    0.35
Q6    1   0.5767  0.3644  0.4418  11.00000  0.05    0.33
Q7    1   0.6256  0.3561  0.4418  11.00000  0.05    0.33
Q8    1   0.4580 -0.1174  0.8468  11.00000  0.05    0.33
Q9    1   0.4888 -0.1085  0.9397  11.00000  0.05    0.28
Q10   1   0.6941  0.6548  1.0594  11.00000  0.05    0.27
Q11   1   0.7017  0.6716  0.8591  11.00000  0.05    0.27
Q12   1   0.6289  0.8791  0.8861  11.00000  0.05    0.27
Q13   1   0.6589  0.6068  0.9401  11.00000  0.05    0.27
Q14   1   0.7007  0.7199  0.9504  11.00000  0.05    0.26
Q15   1   0.5451  0.0971  0.5447  11.00000  0.05    0.26
Q16   1   0.6135  0.0800  0.9435  11.00000  0.05    0.25
Q17   1   0.6583  0.1217  0.3445  11.00000  0.05    0.24
Q18   1   0.5982  0.2826  0.1523  11.00000  0.05    0.24
Q19   1   0.6069  0.5314  0.8747  11.00000  0.05    0.23
Q20   1   0.5943  0.3262  0.7346  11.00000  0.05    0.23
;
_shelx_res_checksum              89447
_shelx_hkl_file
;
   0   0  -9-163.826 80.3392   8
   0   0  -9 4.01549 27.7353   4
   0   0  -8 17271.4 631.541   8
   0   0  -8 16727.0 453.724   4
   0   0  -7 30.6392 52.5665   8
   0   0  -7 26.2752 28.1037   4
   0   0  -6 29043.4 776.542   8
   0   0  -6 29371.4 611.165   4
   0   0  -5 6.44941 18.6029   4
   0   0  -5 1468.56 135.256   8
   0   0  -4 64751.3 1059.51   9
   0   0  -4 63728.6 1108.66   4
   0   0  -3 33.4737 11.3575   9
   0   0  -3 35.8410 33.0381   8
   0   0  -3 37.6905 17.2676   4
   0   0  -2 68056.9 1263.59   8
   0   0  -2 74234.7 1190.31   4
   0   0   2 82317.3 1257.60  10
   0   0   2 71549.9 1262.90   1
   0   0   3 25.9125 15.4210   1
   0   0   3 172.269 23.1246  10
   0   0   4 69725.3 1162.31  10
   0   0   4 66844.4 1174.02   1
   0   0   5 123.528 25.7598  10
   0   0   6 29292.8 591.917  10
   0   0   7 39.1217 27.4925  10
   0   0   8 15881.3 412.476  10
   0   0   9 18.0966 40.8100  10
   0  -1  -9 10.3898 75.8388   8
   0   1  -9 8.94314 29.1300   4
   0   1  -9 82.9663 79.4167   8
   0  -1  -8 1866.01 204.837   8
   0   1  -8 1800.73 127.990   4
   0   1  -8 2039.52 203.983   8
   0  -1  -7 32.5132 29.0406   4
   0   1  -7 9.57886 25.6753   4
   0   1  -7-15.1951 45.5841   8
   0  -1  -7 8.94496 55.4376   8
   0   1  -6 3466.75 228.973   8
   0  -1  -6 3230.58 147.485   4
   0  -1  -6 3326.96 229.216   8
   0   1  -6 3370.14 147.521   4
   0  -1  -5 9.89740 18.5729   4
   0   1  -5-9.92560 18.5086   4
   0   1  -5 68.6740 29.9102   3
   0  -1  -5 18.0699 40.2732   8
   0   1  -5-7.61176 18.1815   9
   0   1  -4 146.328 22.4287   9
   0   1  -4 159.708 27.6418   4
   0   1  -4 130.473 25.6070   3
   0  -1  -4 155.369 52.9681   8
   0  -1  -3 38.4874 44.1348   7
   0   1  -3 15.2118 14.3089   4
   0   1  -3 16.1066 11.9280   1
   0   1  -3 39.6258 18.6661   3
   0  -1  -3 5.39991 11.9315   4
   0  -1  -3 54.2656 37.4193   8
   0   1  -3 13.6389 12.8461   9
   0  -1  -2 5568.81 185.735   8
   0   1  -2 5414.46 122.597   9
   0   1  -2 5359.93 130.520   4
   0   1  -2 5431.96 130.035   1
   0   1  -2 5411.10 128.386   3
   0  -1  -2 5156.94 181.796   7
   0   1  -1 48.3893 11.2140   9
   0   1  -1 40.4456 11.3303   3
   0  -1  -1 96.7557 25.3226   7
   0  -1  -1 59.4500 12.5081   6
   0  -1   0 4852.34 76.8467   6
   0  -1   0 3133.97 81.2331   2
   0   1   1 31.1129 10.6946   6
   0   1   2 3538.38 94.3321  10
   0  -1   2 3548.17 85.6902  10
   0   1   3 13.4400 14.9269  10
   0  -1   3 25.4169 12.6636  10
   0  -1   3 20.0326 16.5013   1
   0   1   4 534.233 43.8414  10
   0  -1   4 500.652 45.7987   1
   0  -1   4 449.909 37.5476  10
   0  -1   5 23.0079 19.0990  10
   0   1   5 39.7001 22.1101  10
   0   1   6 2943.39 131.827  10
   0  -1   6 2994.67 124.960  10
   0  -1   7-11.0663 26.3265  10
   0   1   7-17.5390 31.5632  10
   0  -1   8 1930.81 120.357  10
   0   1   8 2014.58 128.377  10
   0  -1   9 33.0529 39.7992  10
   0   1   9 28.3956 43.1978  10
   0   2  -9 53.1567 36.2796   4
   0   2  -9 35.5422 61.0771   8
   0  -2  -9 57.9360 70.1068   8
   0  -2  -8 11357.3 534.133   8
   0   2  -8 12084.8 370.774   4
   0   2  -7-14.1813 30.7416   4
   0  -2  -7 12.1077 64.7243   8
   0   2  -6 26321.0 574.819   4
   0   2  -6 27263.1 595.556   3
   0   2  -6 27376.4 541.718   9
   0   2  -5 20.6518 21.0366   4
   0   2  -5 37.3028 23.2796   3
   0   2  -5 7.82574 18.2232   9
   0  -2  -5 27.3911 45.5762   7
   0  -2  -5 21.1208 51.7680   8
   0   2  -4 30544.6 562.284   9
   0   2  -4 31172.2 585.191   4
   0  -2  -4 28109.5 714.853   8
   0  -2  -4 27862.5 712.992   7
   0   2  -4 30422.5 581.379   3
   0   2  -3 11.3050 14.6372   4
   0   2  -3 18.5572 13.6564   1
   0   2  -3 15.7725 15.6315   9
   0   2  -3 15.8769 16.0418   3
   0  -2  -3 32.0971 33.0609   8
   0  -2  -3 49.6659 38.4622   7
   0   2  -2 47408.8 800.275   4
   0   2  -2 47307.8 796.698   9
   0   2  -2 47802.5 803.580   3
   0   2  -1 46.3620 16.7188   3
   0  -2  -1 21.7607 24.4352   7
   0   2  -1 20.8181 13.2241   9
   0  -2  -1 25.4842 15.4856   6
   0   2   0 29421.6 508.420   6
   0   2   0 29798.5 486.296   9
   0  -2   0 24524.4 560.369   7
   0  -2   0 27110.8 497.950   6
   0  -2   0 25806.6 531.073   2
   0   2   0 29420.9 497.663   3
   0  -2   1 31.2075 18.5241   6
   0   2   1 27.1998 16.9235   2
   0   2   1 72.4712 17.2102   6
   0   2   1 22.2234 8.54902   9
   0   2   2 48129.0 836.168   6
   0  -2   2 48258.3 802.860  10
   0   2   3 4.05198 13.5349  10
   0   2   3 22.5682 13.4069   6
   0  -2   4 28970.5 536.114  10
   0   2   4 30003.8 562.605  10
   0   2   5 16.6881 21.4219  10
   0  -2   5 2.99056 16.0326  10
   0   2   6 23927.9 513.671  10
   0  -2   6 23178.1 483.722  10
   0   2   7 38.5100 32.7259  10
   0   2   8 12448.2 367.372  10
   0   2   9 6.22954 45.1125  10
   0  -3  -8 6277.53 392.060   8
   0   3  -8 6191.76 252.456   4
   0   3  -7-1.77590 24.0048   4
   0   3  -7 66.9074 30.0541   9
   0  -3  -7 63.7384 72.9243   8
   0   3  -6 17278.9 422.171   4
   0   3  -6 16907.3 397.882   9
   0   3  -6 17325.7 430.111   3
   0   3  -5 101.058 30.1590   4
   0   3  -5-9.18823 24.1531   9
   0  -3  -5 36.1598 49.6586   7
   0   3  -5 38.1305 22.6624   3
   0   3  -4 28720.2 568.151   4
   0   3  -4 29171.4 574.637   3
   0  -3  -4 26887.1 710.653   7
   0   3  -4 28727.2 559.904   9
   0   3  -3 14.0849 14.7101   4
   0   3  -3 7.54184 15.4134   9
   0   3  -3 17.5281 15.3841   1
   0  -3  -3 26.0379 33.0431   7
   0   3  -3 8.50441 15.6003   3
   0   3  -2 28135.5 530.606   9
   0  -3  -2 29419.8 552.473   6
   0   3  -2 29440.3 544.607   3
   0  -3  -1 8.25452 14.6355   6
   0   3  -1 18.2932 14.5885   3
   0   3  -1 5.93682 14.1458   9
   0  -3   0 58028.8 932.886   5
   0   3   0 58274.8 956.489   9
   0   3   0 59098.5 974.865   3
   0   3   0 60529.8 1001.77   6
   0   3   1 7.15223 8.46057   9
   0   3   1 13.4434 12.1327   3
   0  -3   1 18.6981 8.47529  10
   0  -3   1 17.8447 10.0365   5
   0   3   1 1.75797 13.8273   6
   0  -3   1 51.8167 18.0197   6
   0  -3   1 1.97332 30.2008   7
   0  -3   2 29731.3 572.608  10
   0  -3   2 30765.6 609.847   6
   0   3   2 33964.1 622.271   2
   0  -3   2 31154.1 580.475   5
   0   3   2 32118.0 539.838   9
   0   3   2 33382.6 603.266   6
   0  -3   3-3.58634 14.5324  10
   0   3   3-2.10258 14.3234  10
   0   3   4 30071.7 581.574  10
   0   3   5 28.2754 27.5636  10
   0   3   6 16018.7 390.219  10
   0   3   7-20.3435 32.7813  10
   0   3   8 7254.92 270.615  10
   0   4  -8 2520.22 157.065   4
   0   4  -7-20.1786 36.3585   9
   0   4  -7-12.7412 29.0038   4
   0   4  -6 9719.36 288.174   9
   0   4  -6 9800.72 306.337   3
   0   4  -6 9687.58 296.799   4
   0  -4  -6 9082.94 437.324   7
   0   4  -5-3.53094 20.8231   4
   0  -4  -5 11.7662 59.8940   7
   0   4  -5 12.4079 27.8950   9
   0   4  -5 7.82994 22.4767   3
   0  -4  -4 5629.10 289.133   7
   0   4  -4 5866.29 190.955   4
   0   4  -4 5685.12 188.843   9
   0   4  -4 5620.34 196.306   3
   0   4  -3 6.07430 15.6427   4
   0   4  -3 8.17107 20.8760   9
   0  -4  -3 43.1643 52.1252   7
   0   4  -3 66.7935 26.5282   3
   0   4  -2 12622.2 301.533   3
   0   4  -2 12293.9 290.364   9
   0  -4  -2 13049.0 415.390   7
   0  -4  -1 15.9438 37.5931   7
   0   4  -1 3.02294 15.5316   3
   0   4  -1 14.6330 15.7359   9
   0   4   0 4991.60 143.245   9
   0  -4   0 5516.92 189.514   2
   0   4   0 5051.54 157.343   3
   0   4   0 5567.51 183.975   6
   0  -4   0 5010.43 121.649   5
   0  -4   0 5125.11 236.820   7
   0  -4   0 5060.22 162.058   6
   0   4   1 11.0911 13.4998   9
   0  -4   1 31.2887 40.6167   7
   0   4   1 1.11017 17.1385   3
   0  -4   1 18.7306 15.2673   6
   0  -4   2 11374.8 291.645   6
   0   4   2 11959.2 335.333   2
   0  -4   2 10860.2 376.290   7
   0   4   2 11922.5 240.017   9
   0   4   3 5.41584 15.0091  10
   0   4   4 4905.19 164.170  10
   0   4   5 5.50799 22.1526  10
   0   4   6 9400.09 280.436  10
   0   4   7 24.7461 35.4459  10
   0   4   8 2702.25 162.696  10
   0   5  -8 11328.5 363.230   9
   0   5  -8 10619.1 364.901   4
   0  -5  -7-17.1946 79.2087   7
   0   5  -7-34.0947 45.8858   9
   0   5  -7 43.4128 32.2318   4
   0   5  -7 87.3533 34.1979   3
   0  -5  -6 18347.8 680.033   7
   0   5  -6 18050.9 458.610   4
   0   5  -6 17940.2 460.611   9
   0   5  -6 17577.2 475.206   3
   0   5  -5 36.1838 32.3041   9
   0  -5  -5-46.9365 77.7434   7
   0   5  -5 22.3124 26.8242   3
   0   5  -5 8.30476 19.6146   4
   0   5  -4 21028.7 479.324   9
   0  -5  -4 20000.8 653.631   7
   0   5  -4 21004.9 472.075   4
   0   5  -4 21045.7 495.490   3
   0   5  -3 82.4784 29.0613   3
   0  -5  -3 51.2684 55.5279   7
   0   5  -3 34.2416 20.6668   4
   0   5  -3-5.76163 23.5770   9
   0   5  -2 26204.8 548.702   3
   0  -5  -2 24837.3 700.955   7
   0   5  -2 25476.2 529.539   9
   0  -5  -1 70.3702 49.1266   7
   0   5  -1 14.7479 18.3785   9
   0   5  -1 10.8762 17.9559   3
   0   5   0 35163.9 671.027   3
   0   5   0 34036.6 639.302   9
   0  -5   1 33.6911 45.7623   7
   0   5   1 77.2465 21.9488   9
   0   5   1 121.735 28.6550   3
   0   5   2 26674.6 536.644   3
   0  -5   2 24065.7 682.383   7
   0   5   3 100.973 26.9497   3
   0   5   3 30.2492 17.5295  10
   0   5   4 22313.2 477.908  10
   0   5   5 17.6041 26.1859  10
   0   5   6 16201.3 413.195  10
   0   5   7-35.5624 35.4257  10
   0   6  -7 38.0211 35.9125   3
   0   6  -6 1171.24 107.625   9
   0  -6  -6 1481.88 201.981   7
   0   6  -6 1107.24 107.779   3
   0   6  -5 32.8776 34.6237   9
   0  -6  -5-20.6523 65.7715   7
   0   6  -5 90.3322 43.0108   3
   0  -6  -4 458.939 113.904   7
   0   6  -4 329.645 57.6648   3
   0   6  -4 362.421 58.0446   9
   0   6  -3 32.1289 34.3144   3
   0  -6  -3 44.0165 58.0129   7
   0   6  -3 3.70366 28.1113   9
   0   6  -2 1582.42 101.486   9
   0   6  -2 1608.71 108.274   3
   0  -6  -2 1651.50 174.617   7
   0   6  -1 18.0910 23.8525   3
   0   6  -1 2.66392 24.0019   9
   0  -6  -1 37.6904 58.7098   7
   0  -6   0 1501.80 157.867   7
   0   6   0 1653.92 103.795   3
   0   6   0 1540.89 89.6658   9
   0  -6   1 29.6808 50.4198   7
   0   6   1 40.7029 28.7061   3
   0  -6   2 1489.48 162.922   7
   0   6   2 1640.90 100.174   3
   0   6   3-5.38602 19.7434   3
   0  -6   3 23.1778 42.7895   7
   0  -6   4 458.245 101.209   7
   0  -6   5 14.0193 57.9008   7
   0   6   7-17.8852 39.4312  10
   0  -7  -5-5.23638 59.2407   7
   0   7  -5 92.4016 46.9279   3
   0   7  -5 5.02975 41.2149   9
   0  -7  -4 12218.8 572.902   7
   0   7  -4 12035.1 369.676   9
   0   7  -4 12638.0 394.883   3
   0  -7  -3 42.3640 65.3881   7
   0   7  -3-0.88334 32.0567   3
   0   7  -3 42.7362 31.8772   9
   0   7  -2 14041.7 383.535   9
   0  -7  -2 14480.9 579.494   7
   0   7  -2 14373.8 407.147   3
   0  -7  -1 54.5826 67.1563   7
   0   7  -1 0.26199 25.7105   3
   0   7  -1 16.6202 28.0221   9
   0  -7   0 17120.6 611.035   7
   0   7   0 16388.8 433.154   3
   0   7   1 19.1696 27.5945   3
   0  -7   1 32.5403 57.2457   7
   0  -7   2 14244.6 560.388   7
   0   7   2 14356.1 387.719   3
   0  -7   3 47.1754 61.2893   7
   0   7   3 24.0818 20.1220   3
   0  -7   4 10640.7 506.584   7
   0  -7   5 87.0089 79.9604   7
   0   8  -3 29.4149 43.2313   9
   0   8  -2 7338.27 289.797   3
   0   8  -2 6808.55 260.367   9
   0  -8  -2 6884.69 416.297   7
   0   8  -1 24.3931 32.4374   9
   0   8  -1 27.3903 36.8835   3
   0  -8  -1 53.9056 81.1676   7
   0   8   0 8732.54 311.237   3
   0  -8   0 8915.88 461.773   7
   0   8   1-1.19118 30.5166   3
   0  -8   1 18.5474 62.9067   7
   0   8   2 6339.82 250.461   3
   0  -8   2 6192.66 378.774   7
   1   0  -9-25.3734 75.2944   8
  -1   0  -9-23.0791 70.8400   8
  -1   0  -9 14.4484 29.9240   4
   1   0  -8-12.9367 29.5523   4
  -1   0  -8 5.07226 27.6212   4
   1   0  -8 23.5416 63.5748   8
  -1   0  -8 0.00000 62.9175   8
   1   0  -7 44.1943 60.4512   8
   1   0  -7 5.81476 21.5442   4
  -1   0  -7 4.45165 53.4280   8
  -1   0  -7 19.0045 29.2346   4
  -1   0  -6 23.6385 24.0606   4
   1   0  -6 6.91926 44.7870   8
  -1   0  -6 7.47519 48.0495   8
   1   0  -6 37.2199 23.3007   4
   1   0  -5 9.86287 18.6532   4
  -1   0  -5 22.0487 47.0169   8
   1   0  -5 28.4405 42.4109   8
  -1   0  -5 28.7634 21.8669   4
   1   0  -5 25.7626 13.4203   9
  -1   0  -4 13.4579 9.83589   9
   1   0  -4 12.3778 35.7621   8
  -1   0  -4 23.2016 34.3112   8
   1   0  -4 9.43699 10.7741   9
  -1   0  -4 1.07545 16.9387   4
   1   0  -4 84.8404 24.0234   4
   1   0  -3 18.3002 29.9970   8
  -1   0  -3 25.9362 14.5999   4
   1   0  -3-0.62051 9.64464   9
  -1   0  -3 32.0336 35.4141   8
   1   0  -3 16.1830 14.3966   4
   1   0  -2 28.2884 32.3003   8
  -1   0  -2 45.6783 32.2075   8
   1   0  -2 19.8076 12.7223   4
  -1   0  -2 13.7341 13.7570   4
   1   0  -2 6.46711 9.21399   9
  -1   0  -1 1.21785 5.86034   1
   1   0   1 56.2743 8.61319   1
   1   0   2 3.09118 11.7873  10
   1   0   2 19.9999 14.1482   1
  -1   0   2 7.83280 12.8226  10
  -1   0   3 10.3603 15.1611  10
   1   0   3 8.91037 12.9321  10
   1   0   4 1.03795 13.6341  10
  -1   0   4 17.1955 18.3698   1
   1   0   4 4.09266 15.4615   1
  -1   0   4 24.3535 17.7473  10
   1   0   5 3.67209 16.7275  10
  -1   0   5 11.8887 18.7710  10
   1   0   6 52.9694 26.5788  10
  -1   0   6 74.8781 29.7963  10
  -1   0   7-1.17775 25.9967  10
   1   0   7 7.83291 26.3686  10
   1   0   8 38.6799 35.5141  10
  -1   0   8-15.1808 36.9896  10
   1   0   9-5.81453 30.6559  10
  -1   0   9-32.2955 44.6229  10
  -1  -1  -9 7447.61 439.789   8
   1   1  -9 7780.07 426.032   8
   1  -1  -9 7935.42 451.246   8
  -1   1  -9 8351.45 445.370   8
  -1   1  -9 7635.94 297.077   4
   1   1  -9 7344.07 291.669   4
   1  -1  -8 7024.55 395.937   8
  -1   1  -8 6850.28 260.634   4
   1   1  -8 6904.64 260.116   4
  -1   1  -8 6895.62 377.542   8
   1   1  -8 7311.85 386.805   8
  -1  -1  -8 6270.01 372.525   8
   1  -1  -7 15847.9 578.887   8
  -1   1  -7 15672.0 560.977   8
  -1   1  -7 15129.7 403.797   4
  -1  -1  -7 15075.0 564.285   8
   1   1  -7 15766.2 407.169   4
   1   1  -7 16372.8 571.375   8
  -1  -1  -7 15449.5 409.121   4
   1   1  -6 12998.4 464.178   8
  -1  -1  -6 11966.4 321.347   4
   1   1  -6 11604.7 316.400   4
  -1   1  -6 12512.9 458.460   8
  -1  -1  -6 10848.0 438.474   8
  -1   1  -6 11990.6 320.913   4
   1  -1  -6 12588.3 467.291   8
   1   1  -5 20669.0 453.191   4
   1   1  -5 21294.8 420.889   9
  -1   1  -5 21328.2 458.329   4
  -1  -1  -5 19435.1 583.505   8
  -1   1  -5 21632.5 414.659   9
   1  -1  -5 20873.8 601.294   8
  -1  -1  -5 20900.0 455.114   4
   1   1  -5 22054.3 491.232   3
  -1   1  -5 22303.0 471.167   3
  -1   1  -4 16892.1 330.294   9
  -1  -1  -4 15288.6 463.989   8
   1   1  -4 17128.7 376.715   3
  -1   1  -4 16476.0 360.971   4
   1   1  -4 17168.4 337.829   9
   1  -1  -4 16842.2 474.548   8
   1   1  -4 16723.8 358.981   4
  -1   1  -4 16769.8 356.787   3
   1  -1  -4 18070.3 339.123   9
  -1  -1  -4 16728.3 360.562   4
  -1   1  -4 16866.6 361.261   1
   1   1  -3 41983.6 725.094   4
  -1   1  -3 42509.3 703.826   9
  -1  -1  -3 35740.5 823.467   7
  -1   1  -3 40928.4 713.021   3
  -1   1  -3 41331.2 728.498   4
   1  -1  -3 38343.0 833.495   7
   1  -1  -3 39680.9 833.382   8
  -1  -1  -3 37556.2 823.057   8
  -1  -1  -3 40935.6 723.501   4
   1   1  -3 42446.8 710.126   9
   1   1  -3 41120.6 731.957   3
  -1   1  -3 42460.5 727.030   1
   1   1  -2 6387.95 143.233   4
  -1   1  -2 5933.31 145.773   4
  -1   1  -2 6210.60 137.975   3
  -1  -1  -2 6126.94 196.621   8
  -1  -1  -2 5697.16 194.110   7
   1  -1  -2 6271.22 200.071   8
   1   1  -2 6187.58 146.994   3
  -1   1  -2 6070.94 134.164   9
   1   1  -2 6284.44 141.764   1
  -1  -1  -2 6388.45 143.118   4
   1   1  -2 6238.69 138.039   9
   1  -1  -2 6084.00 197.793   7
  -1   1  -2 6048.55 145.320   1
  -1   1  -1 45535.8 731.623   9
   1   1  -1 46491.4 731.984   9
   1  -1  -1 37934.9 770.918   7
   1  -1  -1 45730.1 731.282   5
  -1  -1  -1 43552.9 736.754   6
  -1   1  -1 46106.1 729.892   3
   1   1  -1 45343.7 726.685   1
   1   1  -1 44574.8 737.249   3
   1   1   0 32336.0 413.417   6
  -1  -1   0 35370.9 415.413   6
   1  -1   0 32373.2 449.672   2
   1  -1   0 35715.4 394.231   6
  -1   1   1 44740.4 721.155  10
  -1   1   1 43879.5 733.179   6
   1   1   1 43309.8 731.769   6
  -1   1   2 6630.73 149.309  10
  -1  -1   2 6751.84 144.642  10
   1  -1   2 6839.09 137.861  10
  -1  -1   2 6683.69 153.416   1
   1   1   2 7539.60 160.637   6
   1   1   3 42716.0 723.503  10
  -1   1   3 39967.9 716.386  10
  -1  -1   3 41053.7 711.277  10
   1  -1   3 41634.9 704.645  10
  -1  -1   3 41652.8 729.323   1
  -1  -1   4 17069.3 362.192   1
   1  -1   4 16836.2 336.478  10
   1   1   4 16619.7 349.215  10
  -1  -1   4 16809.6 340.459  10
  -1   1   4 16912.3 350.778  10
   1  -1   4 17327.1 363.588   1
   1   1   4 16672.7 358.731   1
   1  -1   5 19625.3 405.800  10
   1   1   5 19818.1 419.388  10
  -1   1   5 20158.2 422.865  10
  -1  -1   5 19987.7 411.112  10
   1   1   6 11305.8 296.842  10
  -1  -1   6 11382.4 290.026  10
   1  -1   6 11502.2 287.103  10
  -1   1   6 11693.2 302.341  10
  -1  -1   7 15257.1 379.956  10
   1   1   7 15907.1 394.021  10
  -1   1   7 16034.9 396.813  10
   1  -1   7 15014.9 372.549  10
   1   1   8 7074.27 252.130  10
  -1  -1   8 6819.65 241.544  10
   1  -1   8 6706.43 236.635  10
  -1   1   8 7157.68 253.879  10
  -1  -1   9 6630.32 258.291  10
  -1   1   9 7147.77 272.628  10
   1   1   9 7190.18 272.553  10
   1  -1   9 6742.90 255.373  10
   1   2  -9 3230.09 277.307   8
  -1  -2  -9 2873.61 276.983   8
  -1   2  -9 3465.86 288.937   8
   1  -2  -9 3263.31 295.917   8
   1   2  -9 3140.86 182.517   4
  -1   2  -9 3156.79 184.593   4
  -1  -2  -8 1644.52 197.062   8
   1  -2  -8 1497.73 193.975   8
  -1   2  -8 1433.49 178.145   8
   1   2  -8 1590.95 180.332   8
   1   2  -8 1560.39 117.567   4
  -1   2  -8 1344.53 110.862   4
   1   2  -7 7445.04 371.641   8
   1   2  -7 7516.41 256.435   4
  -1  -2  -7 7057.36 379.617   8
   1  -2  -7 7699.43 400.939   8
  -1   2  -7 7257.68 255.133   4
  -1   2  -6 4548.66 155.721   9
  -1   2  -6 4615.33 181.115   4
   1  -2  -6 4800.59 286.334   8
  -1   2  -6 4617.55 182.783   3
  -1  -2  -6 4537.93 276.986   8
   1   2  -6 4483.78 158.177   9
   1   2  -6 4658.77 194.105   3
   1   2  -6 4207.58 171.288   4
   1   2  -5 12617.5 320.848   3
  -1  -2  -5 12626.5 445.808   8
  -1   2  -5 12527.5 313.684   4
   1   2  -5 12111.8 307.250   4
   1  -2  -5 12150.4 441.388   7
  -1   2  -5 12456.5 307.294   3
  -1  -2  -5 11783.7 439.344   7
   1  -2  -5 12243.3 444.687   8
   1   2  -5 12282.3 288.747   9
  -1   2  -5 12080.5 283.650   9
   1   2  -4 6407.91 188.763   3
  -1  -2  -4 6360.27 274.437   7
  -1  -2  -4 5975.59 266.567   8
   1  -2  -4 6468.02 275.716   8
  -1   2  -4 6512.33 173.595   9
   1  -2  -4 6153.53 270.621   7
  -1   2  -4 6636.84 182.506   3
   1   2  -4 6436.31 174.905   9
  -1   2  -4 6176.32 185.409   4
   1   2  -4 6380.40 183.722   4
   1   2  -3 13516.2 295.843   3
   1   2  -3 13566.4 282.976   9
   1  -2  -3 13853.2 388.830   7
  -1   2  -3 13841.7 295.042   1
   1   2  -3 13542.7 288.556   4
  -1   2  -3 13445.1 287.857   3
  -1  -2  -3 12878.9 381.904   7
   1   2  -3 13624.5 286.616   1
  -1   2  -3 13308.3 280.498   9
  -1   2  -3 13494.6 295.902   4
   1   2  -2 4499.37 122.872   9
  -1   2  -2 4528.96 124.744   3
  -1   2  -2 4480.32 121.483   9
   1   2  -2 4562.16 121.288   4
   1   2  -2 4655.62 130.022   3
  -1  -2  -2 4291.31 177.393   7
   1  -2  -2 4676.21 182.360   7
   1   2  -2 4814.29 122.223   1
  -1  -2  -2 4513.25 132.134   6
   1  -2  -1 6556.80 139.736   5
  -1  -2  -1 5891.46 196.667   7
   1   2  -1 6120.57 142.453   9
  -1   2  -1 6321.57 147.835   3
   1   2  -1 6229.35 148.498   3
   1  -2  -1 6683.18 204.647   7
  -1   2  -1 6110.72 143.611   9
  -1  -2  -1 5982.81 151.655   6
   1  -2  -1 6176.36 148.666   6
   1   2   0 27920.9 488.840   6
   1  -2   0 26644.3 454.946   5
  -1  -2   0 24817.4 475.720   6
  -1  -2   0 23704.3 534.657   7
   1   2   0 26176.4 454.357   9
  -1   2   0 27629.2 460.610   9
  -1   2   0 27292.7 474.140   6
  -1  -2   0 27846.4 454.397  10
   1  -2   0 25002.4 463.545   6
  -1  -2   0 25689.7 490.182   2
   1   2   0 27057.5 466.777   3
   1  -2   0 23704.3 514.915   2
   1  -2   0 26769.6 545.510   7
  -1   2   1 7534.92 170.311   6
   1   2   1 7899.86 174.946   2
   1   2   1 7002.60 141.323   9
   1   2   1 7696.13 174.929   6
  -1   2   1 7124.67 149.211  10
  -1  -2   1 7142.84 185.542   6
  -1  -2   1 7625.69 173.504  10
  -1   2   1 7956.41 192.583   2
   1  -2   1 7021.32 165.590   6
   1  -2   1 7556.95 181.383   5
  -1   2   1 7540.65 150.775   9
  -1   2   2 3920.13 107.269  10
  -1   2   2 3981.34 90.8138   9
  -1  -2   2 4114.74 111.281  10
  -1   2   2 4268.26 124.544   6
   1   2   2 4148.20 122.521   6
   1  -2   2 4065.23 110.622   5
   1  -2   3 11332.2 228.898  10
  -1  -2   3 11621.2 243.050  10
  -1   2   3 12339.8 274.724   6
  -1   2   3 11393.6 251.764  10
   1   2   3 12427.7 271.792   6
  -1   2   4 5814.10 168.160  10
   1  -2   4 5989.93 151.355  10
  -1  -2   4 5917.81 158.023  10
   1   2   4 5966.09 172.007  10
  -1  -2   5 11893.4 276.883  10
   1   2   5 11946.5 295.003  10
   1  -2   5 11874.9 269.923  10
  -1   2   5 11909.8 293.388  10
  -1   2   6 4165.94 164.592  10
   1   2   6 4106.01 161.391  10
   1  -2   6 4162.17 146.442  10
  -1  -2   6 4012.39 149.378  10
  -1  -2   7 7329.57 233.316  10
   1   2   7 7749.03 254.187  10
  -1   2   7 7726.89 254.515  10
  -1   2   8 1793.46 126.579  10
   1   2   8 1722.52 122.908  10
   1   2   9 3293.48 183.576  10
  -1   2   9 3073.37 177.655  10
   1   3  -9 3689.45 201.761   4
  -1   3  -8 1654.98 124.259   4
  -1  -3  -8 2006.27 224.196   8
   1   3  -8 1645.70 123.452   4
   1  -3  -8 1638.57 207.845   8
   1  -3  -7 4987.74 325.563   8
   1   3  -7 4989.26 205.528   4
  -1  -3  -7 5073.38 324.206   8
   1   3  -7 5113.81 193.275   9
  -1   3  -7 5102.90 212.730   4
  -1   3  -7 5213.84 192.514   9
   1   3  -7 5406.83 230.800   3
   1   3  -6 4351.39 166.872   9
   1   3  -6 4380.89 185.899   3
   1   3  -6 4152.34 174.022   4
  -1  -3  -6 4422.33 286.659   7
  -1   3  -6 4236.02 163.344   9
  -1   3  -6 4407.97 181.154   3
  -1   3  -6 4424.47 181.873   4
   1  -3  -6 4732.51 293.641   7
  -1   3  -5 9413.86 254.285   9
  -1   3  -5 9446.57 265.428   3
   1   3  -5 9541.96 256.554   9
  -1  -3  -5 9623.64 394.987   7
   1  -3  -5 9792.86 395.448   7
   1   3  -5 9515.20 273.217   3
  -1   3  -5 9482.39 269.893   4
   1   3  -5 9599.88 265.270   4
   1   3  -4 3007.58 119.260   4
  -1   3  -4 2773.78 118.469   3
  -1   3  -4 2773.27 114.016   9
   1   3  -4 2864.58 123.206   3
  -1  -3  -4 2691.64 182.668   7
   1   3  -4 2629.87 111.306   9
   1  -3  -4 2679.79 181.792   7
  -1   3  -4 2768.85 120.413   4
  -1  -3  -3 16585.3 475.557   7
  -1   3  -3 17152.9 366.185   4
   1   3  -3 16596.2 357.258   9
   1   3  -3 16944.0 354.417   1
  -1   3  -3 17092.1 364.638   3
   1   3  -3 17386.8 358.190   4
   1  -3  -3 17069.8 477.954   7
   1   3  -3 17420.0 372.300   3
  -1   3  -3 16726.6 357.244   9
  -1  -3  -2 12933.4 295.210   6
  -1   3  -2 12550.4 277.525   9
   1   3  -2 13056.9 288.381   3
  -1   3  -2 13220.8 286.853   3
   1   3  -2 12636.7 270.051   4
   1  -3  -2 12932.5 377.125   7
  -1  -3  -2 12198.7 370.377   7
   1   3  -2 12717.8 277.743   9
   1  -3  -2 13016.5 291.035   6
   1   3  -1 18420.0 364.733   9
  -1   3  -1 19424.1 379.535   3
  -1  -3  -1 18808.9 386.194   6
  -1   3  -1 18874.0 369.675   9
   1   3  -1 19293.9 378.639   3
   1  -3  -1 18872.1 379.655   6
  -1  -3  -1 18124.7 468.399   7
   1  -3  -1 19047.2 475.770   7
   1  -3  -1 19530.0 356.086   5
   1  -3   0 4023.89 157.991   2
   1  -3   0 3755.80 116.840   6
  -1   3   0 4258.91 131.843   6
  -1  -3   0 3879.33 179.304   7
  -1  -3   0 4258.28 139.934   2
   1   3   0 3811.28 116.296   3
   1  -3   0 4063.89 181.417   7
  -1  -3   0 3988.70 101.578  10
  -1   3   0 3653.13 108.585   9
  -1   3   0 3833.72 119.403   3
   1  -3   0 3800.55 99.8827   5
   1   3   0 4197.96 138.322   6
  -1  -3   0 3629.41 123.084   6
   1   3   0 3611.17 104.067   9
   1   3   1 21875.0 421.504   6
   1  -3   1 21086.8 394.672   5
   1   3   1 20898.1 397.183   3
  -1   3   1 21740.5 415.290   6
   1  -3   1 20236.2 399.659   6
   1  -3   1 20359.3 499.969   7
  -1  -3   1 20071.9 421.830   6
  -1   3   1 20463.6 468.307   2
   1   3   1 20151.5 370.442   9
  -1  -3   1 19060.0 490.063   7
   1   3   1 19748.3 440.017   2
  -1   3   1 20400.5 378.076   9
  -1  -3   1 21289.8 378.115  10
  -1   3   2 13331.5 271.556  10
  -1   3   2 13213.3 254.524   9
   1   3   2 12772.5 244.103   9
  -1   3   2 14786.7 330.786   2
   1  -3   2 13970.0 304.458   5
  -1  -3   2 13237.4 273.340   5
  -1  -3   2 12453.9 294.873  10
   1   3   2 14268.4 308.338   6
  -1   3   2 14170.7 305.324   6
   1  -3   2 13555.0 301.878   6
  -1   3   3 15066.2 324.392  10
   1  -3   3 16010.0 333.083   5
  -1  -3   3 16092.6 334.713  10
   1   3   4 3309.10 125.851  10
  -1   3   4 3220.21 122.111  10
  -1  -3   4 3339.74 117.231  10
   1   3   5 9435.38 256.882  10
  -1   3   5 8969.18 248.522  10
  -1   3   6 4456.21 173.677  10
   1   3   6 4133.90 169.003  10
  -1   3   7 5244.35 207.669  10
   1   3   7 5186.32 206.769  10
   1   3   8 1755.61 126.054  10
  -1   3   8 1884.93 132.458  10
  -1   4  -8 5123.23 232.181   4
   1   4  -8 4725.61 220.703   4
   1  -4  -7 10657.7 506.814   7
  -1  -4  -7 9913.24 494.279   7
  -1   4  -7 9973.24 305.785   9
  -1   4  -7 9800.93 322.241   4
   1   4  -7 9859.09 336.101   3
   1   4  -7 9839.88 315.824   4
   1   4  -7 9941.16 307.289   9
  -1   4  -6 10123.7 307.846   4
  -1  -4  -6 10626.0 470.955   7
   1  -4  -6 10365.7 462.296   7
   1   4  -6 9916.87 295.528   9
  -1   4  -6 9980.38 308.574   3
   1   4  -6 10263.2 303.640   4
  -1   4  -6 9908.93 291.931   9
   1   4  -6 10119.8 316.839   3
   1   4  -5 12085.4 322.574   4
  -1   4  -5 12233.8 332.395   3
  -1  -4  -5 12590.9 483.815   7
   1  -4  -5 12673.2 481.641   7
   1   4  -5 12292.2 338.442   3
  -1   4  -5 12058.5 321.719   9
   1   4  -5 12400.7 324.423   9
  -1   4  -5 12491.2 331.829   4
  -1   4  -4 11885.8 303.032   9
   1   4  -4 11877.5 314.995   3
  -1   4  -4 11456.8 308.684   3
   1  -4  -4 12091.0 439.277   7
   1   4  -4 12031.6 298.983   4
   1   4  -4 11582.2 299.377   9
  -1   4  -4 12147.8 310.505   4
  -1  -4  -4 11473.0 431.419   7
  -1   4  -3 26733.1 545.266   3
  -1  -4  -3 26238.5 695.383   7
   1   4  -3 27449.2 528.991   4
  -1   4  -3 25815.4 535.029   4
   1   4  -3 27068.2 550.814   3
   1  -4  -3 26282.0 697.000   7
  -1   4  -3 26983.1 537.085   9
   1   4  -3 25897.1 531.094   9
   1  -4  -2 15427.7 468.862   7
  -1   4  -2 15829.3 354.486   3
   1   4  -2 15488.0 341.721   9
  -1  -4  -2 15177.0 465.666   7
   1   4  -2 16071.1 358.310   3
  -1   4  -2 15343.4 342.490   9
  -1  -4  -1 21232.2 573.751   7
   1   4  -1 22072.3 455.504   3
   1  -4  -1 23335.0 420.953   5
  -1   4  -1 22792.8 457.626   3
   1  -4  -1 21430.9 575.830   7
  -1   4  -1 21922.1 441.585   9
   1   4  -1 21800.4 438.817   9
  -1  -4   0 21342.0 573.903   7
  -1  -4   0 23212.5 481.143   2
   1  -4   0 22790.6 415.023   5
   1   4   0 23200.2 458.958   3
   1  -4   0 22773.5 583.908   7
   1  -4   0 24179.7 525.685   2
   1   4   0 22178.5 435.307   9
  -1   4   0 22433.9 439.525   9
   1  -4   0 22356.9 455.109   6
  -1   4   0 22205.9 457.176   3
  -1   4   0 24584.0 492.713   6
   1  -4   1 20919.2 562.837   7
  -1   4   1 22241.3 418.206   9
   1  -4   1 21135.4 440.813   6
  -1  -4   1 20001.2 556.621   7
   1   4   1 21887.2 412.238   9
   1   4   1 22722.3 442.469   3
  -1   4   1 22985.6 451.878   3
  -1  -4   2 12932.8 426.652   7
  -1   4   2 14899.9 302.778  10
   1  -4   2 14041.5 438.648   7
   1   4   2 15418.0 326.199   3
   1  -4   2 13728.6 329.116   6
  -1   4   2 15706.8 405.679   2
   1   4   2 14984.2 379.960   2
  -1   4   2 14792.0 292.628   9
  -1   4   3 26362.6 508.018  10
   1   4   3 26266.3 570.163   2
  -1   4   4 10773.9 272.544  10
   1   4   4 10926.6 276.781  10
   1   4   5 11845.0 307.282  10
  -1   4   5 10916.1 293.617  10
  -1   4   6 9145.46 278.338  10
   1   4   6 8960.00 276.420  10
  -1   4   7 10279.7 317.503  10
   1   4   7 9817.28 311.342  10
  -1   4   8 4995.13 225.877  10
   1   4   8 5103.81 226.331  10
  -1   5  -8 58.8629 36.0806   4
  -1   5  -8 80.1356 47.2842   9
   1  -5  -7 257.145 118.598   7
   1   5  -7 289.558 57.9845   9
  -1  -5  -7 269.040 111.553   7
  -1   5  -7 274.540 54.1957   4
   1   5  -7 300.682 55.3010   4
  -1   5  -7 281.302 58.4775   9
   1   5  -7 359.542 68.6924   3
   1   5  -6 77.2746 32.7009   4
   1   5  -6 91.2763 39.2748   3
   1  -5  -6 143.550 71.7055   7
  -1   5  -6 86.5310 44.1076   9
  -1   5  -6-8.78192 25.4436   3
  -1  -5  -6 20.1577 68.0718   7
  -1   5  -6 84.3209 31.8405   4
   1   5  -6 65.7405 36.3953   9
   1   5  -5 325.972 46.3336   4
  -1   5  -5 353.649 55.9698   3
   1   5  -5 285.572 50.0341   3
   1  -5  -5 207.773 81.5396   7
  -1   5  -5 301.780 47.5280   4
  -1  -5  -5 299.998 88.1159   7
   1   5  -5 287.543 52.9126   9
  -1   5  -5 301.129 53.0413   9
   1   5  -4 372.082 54.9323   9
  -1   5  -4 362.617 51.8669   9
   1   5  -4 416.439 59.5052   3
  -1  -5  -4 473.861 100.321   7
   1   5  -4 414.527 50.4390   4
   1  -5  -4 469.877 100.137   7
  -1   5  -4 356.492 53.0069   3
  -1   5  -4 465.014 54.1595   4
   1   5  -3 166.727 30.4734   4
   1  -5  -3 154.516 66.2261   7
  -1  -5  -3 182.521 66.3067   7
  -1   5  -3 208.436 42.0233   3
   1   5  -3 145.448 35.6312   3
   1   5  -3 181.988 38.8862   9
  -1   5  -3 140.105 35.5656   9
  -1   5  -2 523.819 56.4643   3
   1   5  -2 529.862 53.4276   9
   1  -5  -2 619.079 99.9469   7
  -1   5  -2 516.883 53.1163   9
   1   5  -2 520.325 57.2242   3
  -1  -5  -2 583.949 98.2390   7
   1   5  -1 427.417 50.2235   3
  -1   5  -1 453.371 51.3759   3
   1   5  -1 426.113 45.6204   9
  -1  -5  -1 462.353 87.8565   7
  -1   5  -1 451.213 48.4124   9
   1  -5  -1 527.453 90.0744   7
  -1   5   0 584.595 50.7307   9
  -1   5   0 533.182 54.8139   3
  -1  -5   0 599.505 95.5568   7
   1   5   0 534.878 47.4113   9
   1  -5   0 706.888 99.5314   7
   1   5   0 577.436 54.8791   3
  -1   5   1 352.398 37.0167   9
  -1   5   1 328.738 42.1322   3
   1   5   1 360.756 43.2543   3
  -1  -5   1 353.747 76.7939   7
   1   5   1 304.936 33.8757   9
   1  -5   2 546.549 94.0578   7
  -1   5   2 573.728 55.6952   3
   1   5   2 568.613 52.6463   3
  -1  -5   2 599.749 96.8338   7
   1  -5   3 214.288 63.7099   7
  -1  -5   3 232.761 64.7560   7
  -1   5   3 252.507 34.0853  10
   1   5   3 270.550 37.0661  10
   1   5   3 245.936 34.6236   3
   1   5   4 242.558 39.1466  10
  -1   5   4 299.705 40.2788  10
  -1   5   5 316.424 46.4201  10
   1   5   5 400.454 53.0591  10
  -1   5   6 100.013 35.9811  10
   1   5   6 148.808 45.2281  10
  -1   5   7 239.153 51.7218  10
   1   5   7 273.867 54.1003  10
  -1   6  -7 7393.97 306.556   3
  -1  -6  -6 5660.68 386.948   7
  -1   6  -6 5638.40 239.380   9
   1  -6  -6 6001.96 399.850   7
   1   6  -6 5541.18 236.937   9
  -1   6  -6 5360.85 243.271   3
   1   6  -6 5353.64 247.203   3
   1   6  -5 11354.1 358.678   3
  -1   6  -5 10351.8 346.962   3
  -1   6  -5 10863.6 336.150   9
   1   6  -5 11325.9 343.661   9
   1  -6  -5 10926.2 517.118   7
  -1  -6  -5 10945.0 517.006   7
  -1   6  -4 7066.48 249.454   9
  -1  -6  -4 7362.08 398.453   7
   1   6  -4 7093.04 262.861   3
   1  -6  -4 7571.46 403.544   7
   1   6  -4 6838.05 243.616   9
  -1   6  -4 6490.75 250.608   3
  -1   6  -3 16605.8 417.667   9
   1   6  -3 16853.2 433.695   3
  -1  -6  -3 16688.0 608.932   7
  -1   6  -3 16305.9 428.910   3
   1   6  -3 16294.5 409.858   9
   1  -6  -3 17037.8 615.940   7
  -1  -6  -2 11782.5 476.870   7
  -1   6  -2 11838.3 321.937   9
   1  -6  -2 12079.5 477.666   7
   1   6  -2 11876.7 319.243   9
   1   6  -2 12185.5 340.682   3
  -1   6  -2 11752.1 334.826   3
   1  -6  -1 26387.0 752.698   7
  -1  -6  -1 24692.3 741.836   7
  -1   6  -1 25242.9 560.111   3
   1   6  -1 25298.9 535.187   9
   1   6  -1 25914.5 563.553   3
  -1   6  -1 24721.7 534.574   9
  -1   6   0 15081.6 356.502   9
   1   6   0 15489.1 384.894   3
   1   6   0 15079.1 355.291   9
   1  -6   0 15776.8 534.623   7
  -1  -6   0 15315.8 531.669   7
  -1   6   0 15320.8 386.909   3
   1   6   1 26258.9 555.045   3
   1  -6   1 25891.2 733.740   7
  -1   6   1 25393.1 555.863   3
  -1   6   2 12287.5 329.176   3
   1   6   2 12081.3 321.618   3
  -1  -6   2 11608.0 462.934   7
   1  -6   2 12271.3 474.606   7
  -1   6   3 16341.1 405.726   3
   1   6   3 16306.8 391.329   3
   1  -6   3 15870.6 572.525   7
  -1  -6   3 15130.2 558.987   7
   1  -6   4 6568.96 362.093   7
  -1  -6   4 6627.88 361.012   7
  -1  -6   5 11004.6 503.278   7
   1  -6   5 11032.5 507.346   7
   1   6   6 5301.10 216.640  10
  -1   6   7 7608.17 280.417  10
   1   6   7 7186.87 275.162  10
   1  -7  -5 1040.43 174.184   7
  -1   7  -5 1200.99 115.448   3
   1   7  -5 1044.13 104.630   9
  -1  -7  -5 1052.07 173.601   7
  -1   7  -5 1094.76 107.428   9
   1   7  -5 1116.02 112.350   3
  -1   7  -4 611.373 82.1939   9
   1   7  -4 691.847 87.2125   3
  -1  -7  -4 775.506 148.988   7
   1   7  -4 629.857 82.0019   9
   1  -7  -4 700.755 163.215   7
  -1   7  -4 572.525 78.0616   3
  -1   7  -3 2746.29 161.614   3
   1   7  -3 2707.40 160.996   3
  -1  -7  -3 2772.55 255.204   7
  -1   7  -3 2580.67 149.663   9
   1   7  -3 2626.69 149.253   9
   1  -7  -3 2742.08 255.576   7
   1  -7  -2 1281.53 167.473   7
  -1   7  -2 1173.39 96.4881   9
  -1  -7  -2 1119.59 161.309   7
   1   7  -2 1369.30 110.656   3
  -1   7  -2 1267.82 105.584   3
   1   7  -2 1174.78 95.3898   9
  -1   7  -1 1794.94 121.823   3
  -1  -7  -1 2012.82 205.992   7
   1  -7  -1 1972.89 204.019   7
  -1   7  -1 1807.94 113.292   9
   1   7  -1 1882.27 124.647   3
   1   7  -1 1714.81 108.840   9
   1  -7   0 934.419 137.398   7
  -1   7   0 878.481 75.8896   9
  -1   7   0 916.665 86.8950   3
   1   7   0 963.543 87.7407   3
  -1  -7   0 840.476 129.779   7
  -1  -7   1 1869.16 190.376   7
  -1   7   1 1674.47 115.812   3
   1   7   1 1830.88 118.325   3
   1  -7   1 1704.12 183.022   7
   1  -7   2 1117.30 149.929   7
   1   7   2 1325.86 99.7723   3
  -1   7   2 1329.66 101.281   3
  -1  -7   2 1244.41 160.038   7
   1  -7   3 2381.12 223.441   7
  -1   7   3 1947.36 122.891   3
  -1  -7   3 2053.40 208.648   7
   1  -7   4 712.675 140.421   7
  -1  -7   4 611.256 125.612   7
   1  -7   5 1335.28 184.446   7
  -1  -7   5 1220.57 182.153   7
   1   8  -3 5209.20 231.956   9
   1   8  -2 3044.65 180.144   3
   1   8  -2 2765.30 159.702   9
  -1   8  -2 3202.03 185.687   3
  -1   8  -2 2942.23 165.685   9
  -1  -8  -2 2847.37 266.245   7
   1  -8  -2 3355.20 286.239   7
  -1   8  -1 4421.01 215.045   3
   1   8  -1 4756.60 224.395   3
  -1   8  -1 4338.03 196.435   9
  -1  -8  -1 4758.81 340.849   7
   1  -8  -1 4780.74 338.418   7
  -1   8   0 3906.84 197.048   3
  -1  -8   0 4050.07 306.013   7
   1   8   0 3776.59 193.174   3
   1  -8   0 3874.05 299.832   7
   1  -8   1 4751.89 326.908   7
  -1  -8   1 4301.89 309.140   7
  -1   8   1 4565.06 212.082   3
   1   8   1 4411.51 206.951   3
  -1  -8   2 3261.27 272.117   7
  -1   8   2 3194.37 174.433   3
   1  -8   2 3095.53 263.978   7
   1   8   2 2899.30 162.237   3
  -2   0  -9 12427.2 558.885   8
   2   0  -9 13465.7 580.565   8
  -2   0  -9 12684.0 405.450   4
  -2   0  -8 1174.40 103.932   4
   2   0  -8 1026.94 148.464   8
  -2   0  -8 1134.81 157.862   8
   2   0  -8 963.904 92.8855   4
  -2   0  -7 23605.6 548.290   4
   2   0  -7 24314.1 721.038   8
  -2   0  -7 22482.1 702.162   8
   2   0  -7 23490.4 544.831   4
  -2   0  -6 2073.69 114.737   4
   2   0  -6 2123.27 176.493   8
  -2   0  -6 1803.20 165.959   8
   2   0  -6 1854.88 107.314   4
   2   0  -5 33739.9 791.055   8
   2   0  -5 32944.3 642.221   4
   2   0  -5 33274.2 597.055   9
  -2   0  -5 32818.9 642.734   4
  -2   0  -4 2311.34 97.9515   4
   2   0  -4 2153.67 143.418   8
  -2   0  -4 2198.46 68.5149   9
  -2   0  -4 2177.58 146.823   8
   2   0  -4 2465.63 82.1173   9
   2   0  -4 2300.33 97.4160   4
   2   0  -3 67560.4 1153.78   4
  -2   0  -3 61732.1 1249.67   8
  -2   0  -3 66558.7 1153.85   4
   2   0  -3 69030.4 1130.04   9
   2   0  -3 62876.2 1249.85   8
  -2   0  -3 71766.5 1112.13   9
   2   0  -2 6298.23 144.634   4
  -2   0  -2 6063.53 141.309   1
   2   0  -2 6811.20 197.963   8
  -2   0  -2 6218.86 193.653   8
  -2   0  -2 6237.91 143.358   4
   2   0  -2 6253.42 134.882   9
  -2   0  -1 56234.2 912.815   1
  -2   0   1 84821.8 1198.78  10
   2   0   1 68813.7 1181.10   6
   2   0   2 4586.13 115.472   1
  -2   0   2 4883.99 115.258  10
   2   0   3 79545.0 1270.46  10
  -2   0   3 78178.6 1273.83  10
  -2   0   4 2993.35 106.845  10
   2   0   4 3120.67 115.023   1
   2   0   4 3095.03 105.891  10
  -2   0   5 32987.4 625.860  10
   2   0   5 32659.1 619.647  10
  -2   0   6 2411.61 115.189  10
   2   0   6 2357.68 112.261  10
   2   0   7 24685.0 542.990  10
  -2   0   7 25513.1 552.390  10
   2   0   8 1018.87 89.6774  10
  -2   0   8 915.144 87.4576  10
  -2   0   9 11777.7 364.828  10
   2   0   9 11137.6 351.115  10
  -2   1  -9 1386.65 122.935   4
  -2   1  -9 1367.25 185.116   8
  -2  -1  -9 1371.25 190.047   8
   2  -1  -9 1664.20 207.037   8
   2   1  -9 1487.76 188.391   8
   2   1  -9 1340.67 116.413   4
  -2   1  -8 630.635 123.540   8
  -2   1  -8 543.720 73.3510   4
  -2  -1  -8 444.829 66.7314   4
   2   1  -8 696.612 129.885   8
  -2  -1  -8 419.149 110.110   8
   2   1  -8 428.267 61.8901   4
   2  -1  -8 542.475 117.953   8
  -2  -1  -7 2011.81 124.461   4
  -2   1  -7 1960.61 187.240   8
   2   1  -7 1984.54 121.916   4
   2  -1  -7 1890.11 188.423   8
  -2  -1  -7 2016.10 193.970   8
   2   1  -7 1928.12 180.261   8
  -2   1  -7 2069.70 126.059   4
  -2  -1  -6 906.763 122.486   8
   2   1  -6 973.932 78.4100   4
  -2   1  -6 1059.85 127.689   8
   2  -1  -6 1022.65 129.120   8
  -2   1  -6 1059.40 82.5756   4
   2   1  -6 1254.65 137.597   8
  -2  -1  -6 1012.58 79.4976   4
   2   1  -6 1001.04 65.4044   9
  -2  -1  -5 3608.44 141.431   4
   2   1  -5 3767.20 124.431   9
  -2   1  -5 3916.64 146.539   3
   2  -1  -5 3569.24 214.316   8
   2   1  -5 3585.60 140.839   4
  -2  -1  -5 3376.59 208.938   8
   2   1  -5 4037.54 171.836   3
  -2   1  -5 3646.36 144.294   4
   2   1  -5 4021.20 219.609   8
  -2   1  -5 3723.61 116.706   9
  -2  -1  -4 63.2246 21.3200   4
  -2   1  -4 62.2133 22.3360   4
  -2   1  -4 109.008 21.7269   3
  -2   1  -4 63.5080 15.8681   9
   2  -1  -4 87.1158 23.2039   9
  -2  -1  -4 55.6572 35.4369   8
   2  -1  -4 62.5250 43.2372   8
   2   1  -4 63.8708 18.8271   4
   2   1  -4 94.4566 27.0427   3
   2   1  -4 97.9183 21.0736   9
  -2   1  -4 79.6870 24.4804   1
   2  -1  -3 5556.87 213.925   8
  -2  -1  -3 5561.79 219.149   7
   2   1  -3 5339.10 144.899   4
  -2  -1  -3 5464.76 145.917   4
   2   1  -3 5466.65 159.369   3
   2  -1  -3 5565.93 218.653   7
   2   1  -3 5411.32 139.122   9
  -2   1  -3 5439.40 148.774   1
  -2   1  -3 5237.92 132.691   3
  -2  -1  -3 5168.72 206.995   8
  -2   1  -3 5309.13 130.892   9
   2  -1  -3 6072.49 162.123   9
  -2   1  -3 5184.32 148.125   4
   2   1  -2 20646.2 376.647   9
  -2  -1  -2 20651.9 445.333   8
  -2  -1  -2 19592.3 447.235   7
  -2   1  -2 20884.6 369.723   9
   2  -1  -2 20848.2 455.780   8
  -2   1  -2 19717.1 383.617   4
   2   1  -2 20801.3 389.715   3
   2  -1  -2 21014.3 452.245   7
   2   1  -2 21222.1 376.475   4
  -2  -1  -2 20599.2 373.684   4
  -2   1  -2 20668.3 365.542   3
   2  -1  -1 10406.4 202.937   5
   2  -1  -1 10769.9 242.470   7
   2   1  -1 10932.5 206.039   9
  -2   1  -1 10638.5 203.527   9
   2   1  -1 10498.7 208.307   3
  -2  -1  -1 9922.59 205.381   6
  -2  -1  -1 10904.0 243.692   7
   2   1  -1 10938.3 194.233   1
  -2  -1  -1 10889.1 206.333  10
  -2   1  -1 10531.3 197.585   3
  -2  -1   0 118.678 19.1466   6
  -2   1   0 141.310 12.0765   6
  -2   1   0 118.482 13.9123   9
   2   1   0 126.462 17.9469   6
   2  -1   0 193.505 30.3529   2
   2  -1   0 126.365 11.1368   6
  -2   1   1 10803.1 199.333  10
  -2  -1   1 11236.8 218.633  10
   2  -1   1 11062.4 215.190   5
  -2  -1   1 10557.8 196.442   1
   2   1   1 10650.8 209.177   6
  -2  -1   2 18853.8 353.180   1
   2   1   2 20297.5 360.350   6
  -2  -1   2 18705.1 352.058  10
   2  -1   2 19489.5 334.773  10
  -2   1   2 19236.8 352.857  10
   2   1   3 4934.29 135.371   6
  -2  -1   3 4635.81 128.157  10
  -2   1   3 4803.27 132.461  10
   2  -1   3 4749.50 118.013  10
  -2  -1   3 5086.41 138.416   1
   2   1   3 5122.55 136.598   1
   2   1   4 155.756 27.7104   1
   2   1   4 152.983 26.4414  10
   2  -1   4 108.395 20.0753  10
  -2  -1   4 107.129 22.2246   1
   2   1   4 287.033 32.5136   6
  -2   1   4 112.956 24.7085  10
  -2  -1   4 133.946 24.5929  10
  -2  -1   5 3324.41 124.245  10
   2  -1   5 3292.89 118.840  10
   2   1   5 3348.86 127.986  10
  -2   1   5 3450.89 131.286  10
   2  -1   6 1012.57 70.7095  10
  -2  -1   6 990.329 72.6574  10
   2   1   6 1017.78 74.9919  10
  -2   1   6 936.311 73.8163  10
   2  -1   7 1748.86 102.349  10
  -2   1   7 1704.05 109.114  10
   2   1   7 1773.69 108.931  10
  -2  -1   7 1749.11 106.262  10
   2   1   8 461.581 65.1778  10
  -2  -1   8 448.641 63.6539  10
   2  -1   8 478.032 62.9452  10
  -2   1   8 547.058 71.3846  10
  -2  -1   9 1238.77 108.380  10
   2   1   9 1198.66 108.030  10
  -2   1   9 1270.52 111.990  10
  -2  -2  -9 9863.68 513.122   8
  -2   2  -9 9898.33 499.290   8
   2   2  -9 9620.90 341.936   4
   2   2  -9 10212.2 496.056   8
  -2   2  -9 9853.88 352.603   4
   2  -2  -9 10288.2 534.680   8
  -2   2  -8 794.301 85.4571   4
   2   2  -8 809.363 87.0070   4
   2   2  -8 957.723 142.013   8
  -2  -2  -8 789.668 138.807   8
   2  -2  -8 906.629 153.164   8
  -2   2  -8 827.950 139.981   8
   2  -2  -7 18673.1 648.355   8
   2   2  -7 17662.7 446.256   4
   2   2  -7 18419.8 615.362   8
  -2   2  -7 17730.0 454.925   4
  -2  -2  -7 17290.8 624.683   8
  -2   2  -6 2050.73 98.9854   9
   2   2  -6 2025.61 127.096   3
   2   2  -6 2172.52 117.568   4
   2  -2  -6 2120.69 190.832   8
   2   2  -6 2095.03 104.002   9
  -2  -2  -6 2240.43 192.242   8
  -2   2  -6 2087.56 119.013   4
   2  -2  -5 24893.3 692.980   8
  -2   2  -5 25399.6 501.313   9
  -2  -2  -5 25675.3 693.801   8
  -2   2  -5 25916.5 521.700   3
   2   2  -5 25747.1 527.867   4
  -2  -2  -5 25353.1 697.485   7
   2  -2  -5 25666.0 696.084   7
  -2   2  -5 25378.0 536.025   4
   2   2  -5 24936.4 546.530   3
   2   2  -5 25765.8 511.254   9
   2   2  -4 7521.92 196.851   9
  -2   2  -4 7279.66 189.226   9
   2  -2  -4 7559.06 298.584   7
  -2   2  -4 7208.39 208.007   4
  -2  -2  -4 7412.93 292.523   8
   2   2  -4 7509.83 214.096   3
   2  -2  -4 7346.10 300.489   8
   2   2  -4 7606.26 203.331   4
  -2  -2  -4 7559.53 300.854   7
  -2   2  -4 7496.50 195.700   3
  -2   2  -3 42480.0 739.422   3
   2   2  -3 41300.9 756.993   3
   2   2  -3 43056.3 740.539   1
   2   2  -3 42672.6 743.862   9
  -2   2  -3 42149.4 756.266   1
  -2   2  -3 41139.1 756.734   4
   2  -2  -3 39716.8 857.948   7
  -2  -2  -3 39201.7 858.503   7
   2   2  -3 42974.4 743.289   4
  -2   2  -3 42013.7 738.340   9
   2  -2  -2 7208.14 168.160   5
  -2   2  -2 6863.88 164.281   9
  -2   2  -2 6706.00 162.011   3
   2   2  -2 6773.60 156.053   1
  -2  -2  -2 6704.09 174.086   6
   2   2  -2 6771.66 172.361   3
   2   2  -2 6794.31 164.361   9
   2  -2  -2 7281.17 231.688   7
  -2  -2  -2 6834.60 228.727   7
   2   2  -2 6850.95 157.451   4
   2  -2  -1 47009.9 821.237   6
  -2  -2  -1 47632.4 833.285   6
   2   2  -1 49853.9 801.485   4
   2  -2  -1 49704.6 815.955   5
  -2   2  -1 49704.7 821.406   9
   2  -2  -1 44174.3 887.317   7
  -2   2  -1 49522.2 822.788   3
   2   2  -1 48263.0 817.198   9
   2   2  -1 49633.6 826.320   3
  -2  -2  -1 43679.8 887.812   7
  -2  -2   0 170.074 40.1895   7
   2   2   0 164.528 18.3025   9
   2  -2   0 177.778 19.2294   6
   2  -2   0 148.995 41.8091   2
   2   2   0 224.269 28.0289   6
  -2   2   0 163.037 21.2093   6
  -2  -2   0 183.308 21.4095  10
  -2   2   0 208.480 21.6726   9
   2  -2   0 166.410 36.7604   7
  -2  -2   0 212.144 26.9702   6
   2  -2   0 202.023 23.8668   5
   2   2   0 146.311 18.1021   3
   2   2   1 51159.6 869.148   6
   2  -2   1 48862.5 844.230   6
   2   2   1 52693.6 831.804   9
  -2  -2   1 47855.8 880.832  10
  -2   2   1 52498.1 904.299   2
   2   2   1 50977.2 844.322   3
   2  -2   1 46273.8 886.989   5
  -2   2   1 51465.9 844.696   9
  -2   2   1 52149.4 862.003   6
  -2   2   1 51391.2 835.808  10
   2   2   2 7028.54 174.568   6
  -2   2   2 7284.13 178.485   6
  -2   2   2 6499.49 154.904  10
  -2   2   2 6945.01 147.540   9
   2  -2   2 7177.30 171.360   5
  -2  -2   2 7216.88 173.815  10
  -2   2   3 38396.5 686.498  10
   2  -2   3 38315.8 655.606  10
  -2   2   3 38080.7 656.708   9
   2   2   3 40494.4 707.659   6
  -2   2   3 41158.7 717.022   6
  -2  -2   3 38879.2 685.966  10
  -2   2   4 7370.85 197.030  10
   2   2   4 7483.39 200.703  10
  -2  -2   4 7255.68 188.407  10
   2  -2   4 7370.01 172.625  10
   2   2   5 24216.7 498.868  10
  -2   2   5 24629.8 500.072  10
  -2  -2   5 23467.4 480.611  10
   2  -2   5 24121.5 465.305  10
   2   2   6 1916.59 107.829  10
  -2   2   6 1891.15 107.390  10
  -2  -2   6 1788.38 97.1086  10
   2   2   7 17076.7 424.583  10
  -2   2   7 17423.7 431.788  10
  -2  -2   7 16765.3 408.314  10
  -2   2   8 841.239 89.7476  10
   2   2   8 784.369 82.9825  10
   2   2   9 9674.22 333.762  10
  -2   2   9 9677.63 335.423  10
   2   3  -9 5029.42 237.440   4
   2  -3  -8 246.445 104.629   8
   2   3  -8 228.810 50.1925   4
  -2  -3  -8 229.366 107.446   8
  -2   3  -8 141.759 39.7980   4
  -2   3  -7 8254.73 252.675   9
   2   3  -7 8252.35 300.865   3
   2   3  -7 8330.85 275.470   4
   2   3  -7 7915.92 252.853   9
  -2   3  -7 7990.37 279.893   4
  -2   3  -6 1778.87 108.613   3
   2  -3  -6 1598.26 172.393   7
  -2   3  -6 1683.97 110.372   4
   2   3  -6 1703.95 105.217   4
   2   3  -6 1614.13 112.169   3
   2   3  -6 1627.87 99.2091   9
  -2   3  -6 1550.62 94.1639   9
  -2  -3  -6 1819.16 180.265   7
  -2  -3  -5 12337.8 454.799   7
   2   3  -5 12384.5 314.191   4
  -2   3  -5 12657.3 307.929   9
   2   3  -5 12307.2 308.647   9
  -2   3  -5 12154.2 312.321   3
   2  -3  -5 12433.6 454.032   7
  -2   3  -5 12243.7 323.711   4
   2   3  -5 12437.7 331.574   3
   2   3  -4 4199.51 156.143   3
  -2   3  -4 4014.25 142.445   9
   2   3  -4 4136.04 144.056   4
  -2   3  -4 4176.40 155.215   4
  -2   3  -4 4130.88 146.811   3
   2   3  -4 4045.21 144.214   9
  -2  -3  -4 4068.64 226.003   7
   2  -3  -4 4352.05 229.276   7
   2  -3  -3 28663.9 687.908   7
   2   3  -3 29779.0 579.158   3
  -2  -3  -3 28431.1 689.649   7
  -2   3  -3 29902.7 562.843   9
   2   3  -3 28843.5 549.266   1
  -2   3  -3 29918.7 565.977   3
  -2   3  -3 29309.3 572.991   4
   2   3  -3 30828.9 556.839   4
   2   3  -3 28880.2 558.834   9
  -2  -3  -2 1633.81 84.2103   6
  -2  -3  -2 1671.76 120.707   7
  -2   3  -2 1655.48 76.3692   9
   2   3  -2 1784.07 70.5702   1
   2   3  -2 1521.01 72.4555   9
  -2   3  -2 1587.76 75.8334   3
   2  -3  -2 1775.36 122.798   7
   2   3  -2 1855.39 71.7443   4
   2  -3  -2 1835.06 75.6642   5
   2   3  -2 1597.25 79.2556   3
   2  -3  -1 40619.8 851.437   7
  -2  -3  -1 41728.0 762.927   6
   2  -3  -1 41759.1 747.056   6
   2  -3  -1 44469.8 732.462   5
  -2   3  -1 43724.0 746.008   9
   2   3  -1 42398.9 751.774   3
   2   3  -1 42556.1 738.497   9
  -2   3  -1 41315.0 749.215   3
   2   3   0 212.610 25.7977   3
   2  -3   0 211.872 46.3535   7
  -2   3   0 204.784 27.5494   6
  -2   3   0 203.585 25.2495   9
  -2   3   0 188.487 26.9581   3
  -2  -3   0 194.452 28.5311   6
   2   3   0 392.908 30.1512   9
  -2  -3   0 200.468 22.0760  10
  -2  -3   0 250.876 30.2382   2
   2  -3   0 243.361 24.7880   5
   2   3   0 286.665 37.0177   6
   2  -3   0 214.300 25.2008   6
  -2  -3   0 207.203 46.9494   7
   2  -3   0 261.700 45.0221   2
   2  -3   1 42871.5 875.579   7
   2  -3   1 41515.4 752.708   6
  -2   3   1 44829.7 747.209   9
  -2   3   1 45888.2 778.402   6
  -2  -3   1 39833.5 864.996   7
   2   3   1 43549.6 755.066   3
  -2   3   1 43756.9 728.631  10
   2   3   1 43308.2 734.721   9
   2  -3   1 41678.1 774.374   5
  -2   3   1 46466.1 866.970   2
   2   3   1 45913.8 789.803   6
  -2  -3   1 44876.7 759.070  10
  -2  -3   1 42982.2 799.081   6
   2   3   1 40313.0 789.314   2
  -2   3   2 1462.17 61.1390  10
   2  -3   2 1460.31 70.9096   6
  -2   3   2 1571.80 78.5025   6
  -2   3   2 1577.07 90.7525   2
   2   3   2 1530.75 79.2093   6
   2   3   2 1390.18 48.5634   9
   2  -3   2 1789.43 89.6659   5
   2   3   2 1460.28 63.6170   3
  -2   3   2 1423.20 57.0985   9
  -2  -3   2 1378.07 80.1711  10
   2  -3   3 32146.2 597.195   5
  -2  -3   3 32126.7 599.265  10
   2  -3   4 4042.97 140.417   5
   2   3   4 3729.27 138.134  10
  -2  -3   4 3970.39 136.110  10
  -2   3   4 3619.34 130.975  10
   2   3   5 12256.2 312.957  10
  -2   3   5 12490.9 310.088  10
   2   3   6 1523.41 100.073  10
  -2   3   6 1663.81 102.799  10
  -2   3   7 8583.51 278.516  10
   2   3   7 8468.00 276.389  10
   2   3   8 184.504 49.8070  10
  -2   3   8 284.736 61.2103  10
   2   4  -8 175.078 44.5446   4
  -2   4  -8 180.206 52.3656   4
   2   4  -8 199.831 48.4591   9
   2   4  -7 3117.53 177.584   3
  -2   4  -7 2916.08 164.449   4
   2   4  -7 3044.81 157.056   9
   2   4  -7 2898.72 155.463   4
  -2  -4  -7 3285.34 276.933   7
  -2   4  -7 3107.47 157.443   9
   2  -4  -7 3306.44 276.973   7
   2  -4  -6 789.650 130.248   7
  -2   4  -6 699.061 75.2921   4
   2   4  -6 856.212 85.8301   3
   2   4  -6 759.632 75.0168   9
  -2  -4  -6 798.454 132.809   7
  -2   4  -6 703.918 73.4792   3
   2   4  -6 847.710 76.6327   4
  -2   4  -6 764.858 75.9828   9
   2   4  -5 4753.10 179.880   9
   2   4  -5 5084.13 180.713   4
  -2   4  -5 4796.16 185.679   3
   2  -4  -5 4927.41 288.567   7
  -2   4  -5 4722.71 178.284   9
  -2  -4  -5 4956.48 290.190   7
   2   4  -5 4493.20 186.888   3
  -2   4  -5 4762.38 187.859   4
   2   4  -4 417.850 53.4736   3
   2   4  -4 284.819 43.6291   9
  -2   4  -4 377.922 48.7230   4
  -2  -4  -4 314.555 76.4281   7
   2   4  -4 384.880 43.5082   4
   2  -4  -4 352.199 79.4060   7
  -2   4  -4 316.722 44.0131   3
  -2   4  -4 307.897 44.1593   9
   2   4  -3 6529.07 198.714   9
   2   4  -3 7162.66 193.873   4
  -2  -4  -3 7378.94 315.078   7
  -2   4  -3 7008.40 208.774   3
   2   4  -3 7035.83 215.524   3
   2   4  -3 6523.66 186.585   1
   2  -4  -3 7584.42 314.938   7
  -2   4  -3 6876.02 203.558   9
  -2   4  -2 453.453 45.8919   9
   2  -4  -2 457.457 74.7623   7
  -2   4  -2 473.275 47.8873   3
   2   4  -2 660.570 52.6385   9
   2   4  -2 455.287 47.9556   3
  -2  -4  -2 541.741 79.1069   7
   2   4  -2 529.549 40.9154   4
  -2   4  -1 7676.36 203.269   9
  -2  -4  -1 7889.24 303.736   7
   2   4  -1 7941.23 212.933   3
   2  -4  -1 7760.72 188.897   5
   2   4  -1 7706.85 198.952   9
   2  -4  -1 8109.06 303.562   7
  -2   4  -1 7649.98 211.100   3
  -2   4   0 383.676 37.9094   9
   2   4   0 379.137 39.0443   3
   2  -4   0 365.547 37.8439   6
   2   4   0 414.284 36.4310   9
  -2   4   0 392.621 44.5305   6
  -2  -4   0 455.424 43.3625   2
  -2  -4   0 407.886 33.4909  10
   2  -4   0 455.298 70.7373   7
   2  -4   0 468.466 62.4740   2
  -2  -4   0 362.797 67.2506   7
   2  -4   0 437.728 34.1205   5
  -2   4   0 399.443 42.3408   3
  -2  -4   1 8592.05 190.066  10
  -2   4   1 7935.96 194.512   9
   2  -4   1 7443.52 201.987   6
   2  -4   1 8161.42 197.623   5
  -2   4   1 7618.95 172.772  10
   2  -4   1 8481.27 308.118   7
   2   4   1 8225.52 208.904   3
   2   4   1 8064.32 186.595   9
  -2  -4   1 8269.93 307.276   7
   2  -4   2 259.342 59.1937   7
   2  -4   2 280.086 34.2511   6
   2   4   2 312.468 46.3197   2
  -2   4   2 350.943 31.7490   9
  -2  -4   2 216.851 53.2879   7
  -2   4   2 347.486 32.0416  10
   2   4   2 292.135 32.6648   3
  -2   4   3 6057.60 170.419  10
   2  -4   3 5989.88 188.802   6
   2   4   3 6429.02 175.691   3
  -2   4   4 265.538 36.8731  10
   2   4   4 292.202 41.5209  10
   2   4   5 4959.23 182.086  10
  -2   4   5 4902.98 176.191  10
   2   4   6 815.251 78.1359  10
  -2   4   6 810.103 75.8319  10
   2   4   7 2931.28 158.314  10
  -2   4   7 3064.84 160.013  10
  -2   4   8 199.487 59.8449  10
   2   4   8 176.226 52.4622  10
  -2   5  -8 892.496 94.5567   9
   2   5  -7 14436.0 410.258   9
  -2   5  -7 13934.7 402.505   9
   2  -5  -7 15460.4 637.381   7
  -2  -5  -7 15236.4 640.415   7
   2   5  -7 13197.5 428.064   3
  -2   5  -7 13731.8 415.304   4
  -2   5  -6 985.155 91.3465   4
  -2  -5  -6 1206.79 166.249   7
  -2   5  -6 1041.07 94.9477   3
   2   5  -6 1096.29 95.8178   9
   2  -5  -6 1107.94 164.015   7
  -2   5  -6 1008.60 90.4346   9
   2   5  -6 1109.08 102.267   3
  -2   5  -5 18670.7 462.907   4
   2  -5  -5 18817.3 647.737   7
   2   5  -5 18511.2 455.234   9
   2   5  -5 18386.8 473.740   3
  -2   5  -5 18757.3 458.231   9
  -2  -5  -5 18530.3 646.956   7
  -2   5  -5 18782.1 470.223   3
   2   5  -4 4092.20 169.376   9
   2  -5  -4 4379.27 273.467   7
  -2  -5  -4 4524.70 278.144   7
  -2   5  -4 4014.68 172.128   3
  -2   5  -4 4190.03 172.736   4
   2   5  -4 4075.89 178.424   3
  -2   5  -4 4048.05 169.472   9
   2   5  -3 30684.7 630.594   3
  -2   5  -3 28448.2 601.969   9
   2   5  -3 28670.8 599.455   9
  -2   5  -3 29120.2 617.204   3
   2  -5  -3 31536.5 820.013   7
  -2  -5  -3 29966.6 811.984   7
   2   5  -2 2710.68 120.419   9
  -2   5  -2 2823.77 130.212   3
   2   5  -2 2760.07 131.742   3
   2  -5  -2 2932.12 201.474   7
  -2  -5  -2 3064.53 208.239   7
  -2   5  -2 2852.86 126.062   9
  -2  -5  -1 31200.4 794.772   7
  -2   5  -1 31224.9 611.763   9
   2   5  -1 30730.0 602.818   9
   2   5  -1 31610.2 630.016   3
   2  -5  -1 31601.3 793.646   7
  -2   5  -1 31264.1 630.690   3
  -2   5   0 7799.33 212.007   9
  -2  -5   0 7941.49 330.469   7
   2   5   0 7671.50 206.220   9
   2   5   0 7942.62 227.352   3
  -2   5   0 7550.14 227.354   3
   2  -5   0 7909.36 325.440   7
   2   5   1 30850.6 583.255   9
   2  -5   1 32436.2 792.765   7
   2   5   1 32213.4 621.282   3
  -2   5   1 31656.3 593.315   9
  -2   5   1 31404.8 630.882   3
   2   5   2 2621.93 114.283   3
   2  -5   2 2798.26 192.608   7
  -2  -5   2 2644.24 191.456   7
   2   5   3 28347.1 556.831   3
   2  -5   3 27872.1 747.623   7
  -2   5   4 4289.68 153.981  10
   2   5   4 4496.66 166.212  10
   2   5   5 17574.3 421.106  10
  -2   5   5 16906.0 407.300  10
  -2   5   6 1106.02 89.5760  10
   2   5   6 1126.18 94.0673  10
   2   5   7 13737.0 396.940  10
  -2   5   7 13842.9 396.009  10
  -2  -6  -6 448.585 135.207   7
  -2   6  -6 348.360 56.8414   4
   2   6  -6 464.417 74.3208   9
  -2   6  -6 390.277 66.6341   3
   2   6  -6 401.764 68.4781   3
   2  -6  -6 664.366 150.758   7
  -2   6  -6 500.141 78.5385   9
  -2  -6  -5 132.267 75.8498   7
   2   6  -5 107.450 42.8050   9
  -2   6  -5 340.392 60.5237   9
  -2   6  -5 212.586 51.1572   3
   2  -6  -5 236.706 99.2627   7
   2   6  -5 179.493 45.5404   3
  -2   6  -5 164.879 42.6316   4
  -2   6  -4 42.2530 30.6029   3
   2  -6  -4 198.284 83.0059   7
  -2  -6  -4 107.781 71.6256   7
  -2   6  -4 44.5340 24.8848   4
   2   6  -4 112.687 41.9181   3
   2   6  -4 72.4881 36.3823   9
  -2   6  -4 55.7313 34.0112   9
   2  -6  -3 781.160 130.534   7
   2   6  -3 797.706 80.5425   3
  -2   6  -3 845.093 82.6710   3
  -2   6  -3 740.621 74.2731   9
  -2  -6  -3 892.166 135.859   7
   2   6  -3 803.906 77.4021   9
  -2   6  -2 156.080 39.3968   3
  -2  -6  -2 142.036 73.8540   7
  -2   6  -2 104.650 37.0656   9
   2  -6  -2 147.449 66.6461   7
   2   6  -2 154.221 41.9924   3
   2   6  -2 106.687 35.0500   9
   2   6  -1 1470.47 100.189   3
  -2   6  -1 1280.87 88.7793   9
  -2   6  -1 1296.45 95.0373   3
   2  -6  -1 1489.71 160.071   7
  -2  -6  -1 1421.73 156.951   7
   2   6  -1 1356.61 87.1883   9
   2   6   0 18.7818 21.8735   3
  -2  -6   0 44.2120 48.7291   7
  -2   6   0 47.1674 32.7416   3
   2   6   0 59.0497 27.3011   9
  -2   6   0 35.6399 27.7559   9
   2  -6   0 49.3170 53.5528   7
  -2   6   1 1503.92 100.067   3
  -2  -6   1 1611.57 159.021   7
   2   6   1 1598.07 98.8974   3
   2  -6   1 1742.06 166.442   7
   2  -6   2 143.643 66.7013   7
   2   6   2 165.416 36.3133   3
  -2   6   2 108.670 34.8025   3
  -2  -6   2 140.450 64.8180   7
  -2   6   3 762.561 73.0123   3
   2  -6   3 929.018 135.922   7
  -2  -6   3 782.119 124.709   7
   2  -6   4 49.6911 54.2309   7
  -2  -6   4 42.7104 52.7787   7
   2  -6   5 255.301 88.0150   7
   2   6   5 519.756 63.3168  10
  -2  -6   5 261.072 91.0307   7
   2   6   6 471.829 68.2919  10
   2   6   7 331.216 63.4618  10
  -2   7  -5 10899.8 375.591   3
   2   7  -5 10936.3 377.564   3
  -2  -7  -5 11271.3 559.401   7
   2   7  -4 1072.99 107.776   3
  -2   7  -4 1020.41 101.550   3
  -2  -7  -4 1178.01 177.006   7
   2  -7  -4 1254.63 180.494   7
  -2   7  -4 1064.25 100.478   9
   2   7  -4 1018.43 98.6395   9
  -2   7  -3 13374.1 398.376   3
  -2  -7  -3 13845.9 587.028   7
   2   7  -3 12730.5 372.259   9
   2  -7  -3 14218.0 589.544   7
  -2   7  -3 12602.6 373.596   9
   2   7  -3 13241.6 399.535   3
  -2  -7  -2 2086.13 208.001   7
   2  -7  -2 2298.70 217.216   7
  -2   7  -2 1896.30 121.731   9
  -2   7  -2 1840.91 128.091   3
   2   7  -2 2044.92 134.721   3
   2   7  -2 1828.00 118.545   9
   2  -7  -1 13325.7 532.705   7
   2   7  -1 12034.0 332.487   9
  -2   7  -1 11981.2 360.517   3
  -2   7  -1 12148.1 339.963   9
  -2  -7  -1 13290.4 537.215   7
   2   7  -1 12605.2 366.415   3
   2  -7   0 905.843 129.953   7
  -2   7   0 1007.67 80.4242   9
   2   7   0 1165.08 94.8051   3
  -2  -7   0 985.072 140.250   7
  -2   7   0 1052.17 93.3809   3
  -2  -7   1 12523.9 506.143   7
   2   7   1 12316.9 351.858   3
   2  -7   1 13039.4 511.920   7
  -2   7   1 12281.7 357.896   3
   2   7   2 1821.83 114.757   3
  -2  -7   2 1884.38 188.962   7
  -2   7   2 1648.49 115.141   3
   2  -7   2 1677.21 183.561   7
  -2  -7   3 12207.6 520.856   7
   2  -7   3 12478.7 526.465   7
  -2   7   3 11965.8 351.957   3
  -2  -7   4 1115.21 163.133   7
   2  -7   4 1195.33 175.213   7
   2  -7   5 11914.9 559.714   7
  -2  -7   5 10719.5 533.045   7
   2   8  -3 6070.00 252.018   9
  -2   8  -2 736.873 90.3315   3
  -2   8  -2 643.508 79.6565   9
   2   8  -2 634.140 85.5262   3
   2  -8  -2 744.355 139.995   7
  -2  -8  -2 716.397 134.597   7
   2   8  -2 704.785 82.0909   9
  -2   8  -1 5931.79 251.766   3
   2   8  -1 5827.91 250.808   3
  -2   8  -1 5444.63 224.691   9
  -2  -8  -1 6144.74 383.060   7
   2  -8  -1 6483.43 390.899   7
   2   8   0 372.566 65.6560   3
  -2  -8   0 283.994 94.4522   7
   2  -8   0 329.588 90.6049   7
  -2   8   0 326.654 62.1527   3
   2  -8   1 5759.18 357.805   7
  -2   8   1 5691.94 243.579   3
   2   8   1 5970.03 243.385   3
  -2  -8   1 5876.40 362.145   7
   2  -8   2 644.082 125.006   7
  -2  -8   2 576.779 119.462   7
  -2   8   2 736.802 84.1847   3
  -2   8   3 5849.52 243.848   3
  -3   0  -9 61.8650 24.4148   4
  -3   0  -9-67.3273 84.7197   8
   3   0  -9-22.4050 70.0224   8
  -3   0  -8-15.1979 56.7976   8
  -3   0  -8 48.0184 36.3869   4
   3   0  -8-16.4347 67.6542   8
   3   0  -7 44.5765 64.1842   8
  -3   0  -7 87.2047 60.9670   8
   3   0  -7-5.44729 24.5250   4
  -3   0  -7 10.1098 27.2948   4
  -3   0  -6 42.6220 22.3541   4
   3   0  -6 6.46025 20.3302   4
   3   0  -6 58.2627 54.9492   8
  -3   0  -6 26.2859 44.4733   8
  -3   0  -5 12.8393 21.5284   4
   3   0  -5 18.9150 18.6323   4
  -3   0  -5 0.37606 37.2243   8
   3   0  -5-0.87727 13.6610   9
   3   0  -5 40.9894 42.6142   8
   3   0  -4 35.9856 16.4990   4
   3   0  -4 19.3081 16.0260   9
  -3   0  -4 1.90964 8.43972   9
  -3   0  -4 21.6642 17.1694   4
   3   0  -4 27.2328 36.2541   8
  -3   0  -4 17.4595 32.2508   8
   3   0  -3 18.8851 15.8729   4
   3   0  -3 47.8765 15.8249   9
  -3   0  -3 61.6439 18.8404   4
  -3   0  -3 7.07880 7.64512   9
  -3   0  -3 45.9853 33.4388   8
  -3   0  -3 55.4740 18.2419   1
   3   0  -3-3.61245 30.9130   8
   3   0  -2 31.0446 28.1717   8
  -3   0  -2 52.6781 16.8359   1
   3   0  -2 18.5289 15.2464   9
  -3   0  -2 92.0417 36.0551   8
  -3   0  -2 59.6760 17.6507   4
  -3   0  -2 42.9058 11.2118   9
  -3   0  -1 27.1423 10.6106  10
   3   0  -1 42.0224 17.5801   9
   3   0  -1 86.9463 12.8262   5
  -3   0  -1 17.9714 6.62898   6
   3   0   0 38.3947 15.5605   2
  -3   0   1 21.5820 12.4536  10
   3   0   1 49.7790 7.67259   6
  -3   0   2 58.1764 18.4429  10
  -3   0   3 24.4885 14.1447  10
   3   0   3 84.1882 19.8872   1
  -3   0   4 21.5639 16.4253  10
   3   0   4 37.6529 20.4088   1
   3   0   4 20.8273 14.9837  10
   3   0   5 18.4534 19.0163  10
  -3   0   5 4.99099 21.2182  10
   3   0   6 35.7610 24.2099  10
  -3   0   6 14.7853 26.5680  10
  -3   0   7 30.7483 33.6851  10
   3   0   7-8.48226 22.3817  10
   3   0   8 12.6106 34.4156  10
  -3   0   8 39.0833 40.4246  10
   3   0   9 65.5904 42.7300  10
  -3   0   9 16.9589 41.6037  10
  -3  -1  -9 1485.72 126.934   4
   3   1  -9 1816.89 205.504   8
   3   1  -9 1532.46 124.947   4
  -3  -1  -9 1858.83 217.473   8
   3  -1  -9 1643.19 207.218   8
  -3   1  -9 1522.06 192.512   8
  -3   1  -9 1671.56 136.499   4
  -3   1  -8 14335.5 562.496   8
  -3  -1  -8 14005.9 412.485   4
  -3  -1  -8 14353.8 570.489   8
  -3   1  -8 14001.8 411.665   4
   3   1  -8 15268.3 567.560   8
   3  -1  -8 15101.3 589.529   8
   3   1  -8 14110.2 406.757   4
   3  -1  -7 2834.54 223.549   8
   3   1  -7 2495.57 136.715   4
  -3   1  -7 2370.16 136.559   4
   3   1  -7 2815.46 215.357   8
  -3  -1  -7 2782.60 220.737   8
  -3   1  -7 2377.36 203.739   8
  -3  -1  -7 2470.46 138.675   4
   3   1  -6 25135.8 510.859   9
   3   1  -6 24754.1 545.766   4
   3   1  -6 27615.3 718.789   8
   3  -1  -6 26906.7 726.957   8
  -3  -1  -6 25298.9 711.901   8
  -3   1  -6 24020.3 702.229   8
  -3   1  -6 26271.0 561.074   4
  -3  -1  -6 25220.4 553.292   4
  -3  -1  -5 7280.20 215.443   4
   3   1  -5 7158.49 212.190   4
  -3   1  -5 7169.44 181.417   9
   3  -1  -5 8055.29 324.892   8
  -3   1  -5 7324.32 222.029   4
   3   1  -5 7187.92 195.487   9
   3   1  -5 7779.92 311.770   8
  -3  -1  -5 7356.46 309.925   8
  -3   1  -4 47550.2 802.833   9
  -3  -1  -4 44868.6 832.043   4
  -3   1  -4 45981.9 811.124   3
   3   1  -4 47705.0 820.085   9
  -3   1  -4 45963.6 844.597   4
   3   1  -4 46070.0 876.911   3
   3  -1  -4 45801.0 972.219   8
  -3  -1  -4 44622.4 965.065   8
   3   1  -4 46655.6 835.119   4
   3  -1  -4 48499.0 855.411   9
   3  -1  -3 5130.68 162.665   9
  -3   1  -3 4982.93 143.951   1
   3   1  -3 4825.31 135.765   4
   3   1  -3 4858.36 155.332   3
   3  -1  -3 5037.27 204.132   7
   3  -1  -3 4974.89 200.402   8
  -3   1  -3 4818.90 121.118   3
  -3  -1  -3 4818.02 193.849   8
  -3   1  -3 4875.21 144.108   4
  -3  -1  -3 4891.34 203.782   7
  -3  -1  -3 5043.37 137.505   4
  -3   1  -3 4758.15 123.410   9
   3   1  -3 4765.28 131.670   9
  -3   1  -2 48044.6 787.994   9
  -3  -1  -2 43455.9 864.048   7
  -3  -1  -2 45325.9 795.907   6
  -3   1  -2 47764.6 776.328   3
  -3  -1  -2 46833.9 861.258   8
   3  -1  -2 46414.1 869.912   7
   3  -1  -2 47226.0 797.767   5
   3   1  -2 46365.8 814.473   3
  -3  -1  -2 45951.5 785.111   4
   3   1  -2 47969.5 797.292   9
   3   1  -2 47642.7 789.817   4
   3  -1  -2 45498.8 874.358   8
  -3   1  -1 7219.52 152.401   9
   3  -1  -1 7455.80 156.305   5
   3   1  -1 7017.68 157.551   3
   3  -1  -1 7515.20 182.612   7
  -3  -1  -1 7035.49 154.700  10
   3   1  -1 6926.82 152.860   9
  -3  -1  -1 6543.42 151.543   6
  -3  -1  -1 7624.96 185.401   7
  -3  -1   0 52823.6 927.513   6
  -3  -1   0 56355.3 932.058  10
  -3   1   0 55452.0 911.210   9
   3  -1   0 55561.9 938.375   5
  -3   1   0 54202.2 888.674   6
   3   1   0 54948.4 901.154   3
   3   1   0 56838.1 903.041   9
   3  -1   0 52011.1 961.043   2
   3   1   1 6089.51 116.971   1
  -3  -1   1 6547.48 156.990  10
  -3  -1   1 6021.67 121.995   1
   3  -1   1 6636.32 154.119   5
   3   1   1 5992.10 136.148   6
  -3   1   1 6106.15 128.527  10
  -3   1   1 6288.24 151.279   2
  -3  -1   2 41638.2 713.868  10
  -3   1   2 41766.1 707.741  10
   3   1   2 42824.6 710.496   6
  -3  -1   2 40543.2 705.450   1
   3   1   2 41217.4 699.339   1
  -3  -1   3 3897.23 118.542   1
  -3   1   3 3775.68 115.375  10
   3   1   3 3844.05 113.721   1
   3  -1   3 3832.08 102.619  10
   3   1   3 3984.90 116.679   6
  -3  -1   3 3763.82 113.785  10
   3   1   4 45241.3 819.265   6
   3   1   4 46280.0 823.498   1
  -3  -1   4 47517.3 835.057   1
  -3   1   4 46515.3 826.085  10
   3   1   4 47449.3 827.637  10
   3  -1   4 45413.0 800.851  10
  -3  -1   4 45997.6 818.657  10
   3   1   5 6247.54 186.110  10
  -3  -1   5 5810.25 179.970  10
   3  -1   5 6237.04 173.299  10
  -3   1   5 6108.28 186.759  10
   3  -1   6 24686.7 505.072  10
   3   1   6 24672.1 521.377  10
  -3  -1   6 24538.3 519.564  10
  -3   1   6 24782.3 525.589  10
   3  -1   7 2704.88 127.892  10
  -3  -1   7 2470.51 129.738  10
  -3   1   7 2758.22 139.483  10
   3   1   7 2463.70 128.975  10
   3   1   8 14028.4 384.975  10
  -3  -1   8 13839.4 383.464  10
  -3   1   8 14391.3 396.681  10
   3  -1   8 13557.4 366.380  10
  -3  -1   9 1663.88 125.343  10
  -3   1   9 1754.43 135.871  10
   3   1   9 1618.55 123.366  10
  -3   2  -9 756.067 91.0562   4
  -3  -2  -9 689.905 140.958   8
   3  -2  -9 752.126 147.092   8
   3   2  -9 668.548 82.2851   4
   3   2  -9 811.579 142.844   8
  -3   2  -9 799.163 150.484   8
  -3   2  -8 3725.88 190.112   4
  -3   2  -8 3736.00 284.264   8
  -3  -2  -8 3814.66 289.211   8
   3  -2  -8 3818.31 296.925   8
   3   2  -8 3917.41 278.444   8
   3   2  -8 3621.36 181.416   4
  -3   2  -7 760.428 80.6271   4
   3   2  -7 671.179 115.279   8
   3  -2  -7 685.259 129.992   8
  -3  -2  -7 591.251 115.734   8
   3   2  -7 622.209 70.3160   4
   3   2  -6 11324.3 290.746   9
  -3   2  -6 11192.8 279.842   9
  -3   2  -6 11551.1 323.044   4
   3  -2  -6 11948.0 466.214   8
   3   2  -6 11306.6 310.284   4
   3   2  -6 11544.5 348.320   3
  -3  -2  -6 11418.0 447.241   8
   3  -2  -5 1543.02 146.133   7
  -3  -2  -5 1566.23 144.707   8
  -3   2  -5 1434.74 91.1669   4
  -3  -2  -5 1646.11 152.849   7
   3  -2  -5 1585.20 149.289   8
   3   2  -5 1518.33 99.8758   3
   3   2  -5 1527.83 84.3413   9
   3   2  -5 1475.57 87.3320   4
  -3   2  -5 1634.11 86.3145   3
  -3   2  -5 1513.79 78.9815   9
  -3   2  -4 10583.5 276.379   4
   3   2  -4 11018.6 265.255   4
   3  -2  -4 11220.9 372.703   7
  -3   2  -4 10992.0 256.443   3
   3  -2  -4 11719.3 383.122   8
   3   2  -4 10923.1 284.853   3
   3   2  -4 11284.2 264.206   9
  -3   2  -4 11256.0 255.752   9
  -3  -2  -4 11342.1 379.988   7
  -3  -2  -4 11565.1 371.667   8
  -3   2  -3 4588.41 133.654   9
   3   2  -3 4742.78 134.282   4
  -3   2  -3 4641.84 148.142   4
   3   2  -3 4818.92 140.297   9
   3  -2  -3 4955.85 205.805   7
  -3   2  -3 4586.61 131.130   3
  -3  -2  -3 4802.46 205.338   7
   3   2  -3 4572.69 148.915   3
  -3   2  -2 30014.8 547.264   3
  -3  -2  -2 30254.9 567.304   6
  -3   2  -2 31316.3 553.664   9
   3   2  -2 30970.7 555.634   9
   3  -2  -2 29876.7 632.344   7
   3   2  -2 31251.4 537.316   1
   3   2  -2 30535.5 564.764   3
   3  -2  -2 32105.2 556.578   5
  -3  -2  -2 28990.4 634.305   7
   3   2  -2 30422.3 538.205   4
   3   2  -1 7786.86 176.512   9
   3  -2  -1 7836.43 177.513   5
   3   2  -1 7589.49 180.514   3
  -3  -2  -1 7907.22 228.983   7
   3   2  -1 7877.22 154.359   4
  -3  -2  -1 7611.09 188.962   6
   3   2  -1 8060.51 154.861   1
  -3   2  -1 7842.77 178.578   9
  -3  -2  -1 7996.82 179.040  10
   3  -2  -1 8224.40 229.307   7
  -3   2  -1 7633.54 177.501   3
   3   2   0 13923.2 296.352   6
  -3  -2   0 13063.0 291.848   6
   3  -2   0 13907.7 343.075   2
   3   2   0 13671.4 267.168   3
  -3   2   0 13648.6 270.522   9
  -3  -2   0 13520.6 246.727   2
   3  -2   0 14828.3 290.069   5
  -3  -2   0 14075.7 333.832   7
  -3  -2   0 13946.8 278.661  10
   3  -2   0 14477.3 334.215   7
  -3   2   0 14305.9 265.036   6
   3  -2   0 13313.0 256.994   6
   3   2   0 14052.6 264.671   9
   3   2   1 7599.43 150.127   9
  -3   2   1 7404.13 151.061  10
  -3   2   1 7749.30 172.216   6
  -3   2   1 7806.67 209.267   2
  -3   2   1 7273.20 162.862   9
   3  -2   1 6906.37 148.680   6
   3   2   1 7149.48 153.881   3
  -3  -2   1 7351.49 199.388  10
   3   2   1 7525.16 179.155   6
   3  -2   1 7676.80 207.460   5
  -3   2   2 27725.3 498.321  10
  -3   2   2 29456.6 527.200   6
   3  -2   2 27733.9 524.973   5
   3   2   2 28616.5 520.841   6
  -3   2   2 26848.8 495.562   9
   3   2   2 28136.1 480.899   3
  -3  -2   2 28477.1 529.704  10
   3   2   3 5469.07 156.569   6
  -3  -2   3 5410.47 149.694   1
   3  -2   3 5078.89 119.360  10
   3  -2   3 5619.27 155.809   5
  -3  -2   3 5257.84 150.419  10
  -3   2   3 5186.74 144.612  10
  -3  -2   4 11711.2 275.385   1
  -3   2   4 10873.7 262.915  10
  -3  -2   4 10684.2 259.359  10
   3   2   4 11704.9 265.734   1
   3  -2   4 10987.6 234.196  10
   3  -2   5 1355.81 68.7871  10
   3   2   5 1291.83 81.7965  10
  -3  -2   5 1304.52 77.1332  10
  -3   2   5 1478.49 85.7217  10
   3   2   6 10633.3 293.853  10
  -3   2   6 10834.2 296.697  10
  -3  -2   6 10602.8 283.020  10
   3   2   7 631.304 69.6969  10
  -3   2   7 746.213 76.9962  10
  -3  -2   7 725.756 70.7041  10
  -3  -2   8 3805.12 176.620  10
   3   2   8 3802.59 183.341  10
  -3   2   8 4010.19 188.263  10
   3   2   9 898.031 96.3661  10
  -3   2   9 743.773 93.4753  10
   3   3  -9 304.779 59.0739   4
   3   3  -8 3798.68 189.377   4
   3   3  -8 4587.74 308.588   8
  -3   3  -8 3858.84 201.629   4
   3   3  -7 1179.04 89.8668   9
   3   3  -7 1192.90 110.112   3
  -3   3  -7 1168.66 102.255   4
   3   3  -7 1292.77 98.7346   4
  -3   3  -6 11138.2 328.950   4
   3   3  -6 11320.5 312.661   4
   3  -3  -6 11751.1 467.711   7
  -3  -3  -6 12327.4 484.399   7
   3   3  -6 11339.9 307.288   9
   3   3  -6 11387.3 341.992   3
  -3   3  -6 11287.0 299.387   9
   3   3  -5 1331.93 85.8832   9
  -3   3  -5 1333.56 82.3606   9
  -3   3  -5 1385.55 93.9081   4
   3   3  -5 1261.57 92.7509   3
   3  -3  -5 1447.82 146.142   7
  -3  -3  -5 1321.55 142.132   7
   3   3  -5 1317.51 83.8868   4
  -3   3  -5 1366.84 85.2291   3
  -3   3  -4 15066.0 340.356   9
   3   3  -4 15659.3 341.580   4
  -3   3  -4 14927.6 361.594   4
   3   3  -4 14935.5 345.091   9
   3  -3  -4 15380.9 468.943   7
   3   3  -4 15098.1 363.553   3
  -3  -3  -4 15529.8 476.793   7
  -3   3  -4 14942.1 342.559   3
   3   3  -3 4411.58 151.508   3
   3   3  -3 4064.60 126.680   1
  -3   3  -3 4150.96 138.033   3
  -3  -3  -3 4452.89 212.846   7
   3  -3  -3 4525.74 211.479   7
  -3   3  -3 4106.52 138.215   9
   3   3  -3 4400.40 131.919   4
   3   3  -3 4127.78 138.353   9
   3   3  -2 22871.7 460.869   3
  -3  -3  -2 24071.4 473.925   6
   3   3  -2 22173.2 445.803   9
   3   3  -2 23286.2 427.621   4
   3  -3  -2 23495.3 445.294   5
  -3   3  -2 22658.9 450.293   9
   3   3  -2 23515.2 426.601   1
  -3   3  -2 22509.9 449.519   3
  -3  -3  -2 22921.3 554.103   7
   3  -3  -2 23484.8 555.526   7
   3  -3  -1 9795.85 228.330   6
   3   3  -1 9806.52 232.957   3
  -3  -3  -1 10200.6 250.345   6
  -3   3  -1 9731.11 232.433   3
   3   3  -1 9833.20 224.802   9
  -3   3  -1 9994.96 229.872   9
   3  -3  -1 10498.4 225.975   5
  -3  -3  -1 10242.3 226.768  10
  -3  -3  -1 10349.3 313.211   7
   3  -3  -1 10950.6 316.645   7
   3   3   0 18362.2 364.754   3
   3  -3   0 17377.3 353.810   6
  -3  -3   0 18211.1 394.339   6
   3   3   0 19966.1 410.109   6
  -3   3   0 18113.3 362.165   9
  -3   3   0 19806.2 376.382   6
   3  -3   0 19603.4 458.524   2
  -3  -3   0 18667.4 350.514   2
   3  -3   0 19210.4 369.843   5
   3   3   0 18408.4 354.848   9
   3  -3   0 19272.1 462.379   7
  -3  -3   0 18676.6 362.350  10
  -3  -3   0 18918.9 464.648   7
   3   3   1 10519.6 215.720   9
  -3   3   1 11788.3 323.581   2
  -3   3   1 10867.8 245.998   6
   3  -3   1 11197.4 321.346   7
   3  -3   1 10743.4 264.031   5
   3   3   1 11413.2 254.022   2
  -3  -3   1 11010.8 279.139   6
   3   3   1 10368.8 227.276   3
  -3   3   1 9932.92 205.616  10
   3   3   1 10882.1 258.277   6
  -3   3   1 10318.0 227.828   9
  -3  -3   1 10778.4 248.955  10
   3  -3   1 10096.3 221.328   6
  -3  -3   1 10911.8 321.362   7
  -3   3   2 22106.3 422.387  10
  -3   3   2 23830.5 463.337   6
   3   3   2 22830.2 401.788   9
  -3   3   2 25037.8 507.099   2
   3  -3   2 22716.5 431.446   6
   3  -3   2 24471.6 495.831   5
   3   3   2 23236.5 465.682   6
  -3   3   2 22873.2 423.292   9
  -3  -3   2 22148.9 484.818  10
   3   3   2 22800.3 423.957   3
   3   3   3 4685.42 126.802   3
  -3   3   3 4610.96 120.629   9
  -3   3   3 4516.82 137.157  10
  -3  -3   3 4931.67 164.879  10
   3  -3   3 5074.45 163.733   5
  -3   3   4 15107.3 343.263  10
  -3  -3   4 15988.5 356.492  10
   3  -3   4 16025.9 360.447   5
   3  -3   5 1751.67 99.1321   5
   3   3   5 1688.78 97.3320  10
  -3   3   5 1771.01 96.3405  10
  -3  -3   5 1680.07 93.3569  10
  -3   3   6 11701.3 316.371  10
   3   3   6 11162.8 313.962  10
  -3   3   7 1093.17 93.4777  10
   3   3   7 1123.51 95.6161  10
   3   3   8 3789.04 187.969  10
  -3   3   8 3910.00 191.169  10
  -3   4  -8 9593.91 338.061   4
   3   4  -8 8862.93 310.108   4
   3   4  -8 8360.14 295.333   9
   3   4  -7 3166.18 160.322   9
  -3   4  -7 3216.62 157.834   9
  -3   4  -7 2942.24 168.140   4
   3   4  -7 3124.42 160.141   4
   3  -4  -7 3067.77 264.373   7
   3   4  -7 3030.18 179.484   3
  -3  -4  -7 3338.64 277.904   7
   3   4  -6 18580.0 481.950   3
   3   4  -6 18848.5 448.870   4
   3  -4  -6 19325.5 644.153   7
  -3   4  -6 18771.8 448.385   9
   3   4  -6 18309.4 450.711   9
  -3  -4  -6 18956.1 649.023   7
  -3   4  -6 17710.0 464.813   4
   3  -4  -5 4082.32 256.182   7
  -3   4  -5 3988.21 162.777   9
   3   4  -5 3892.41 175.595   3
  -3   4  -5 4015.55 174.906   4
   3   4  -5 4120.37 159.969   4
  -3  -4  -5 4147.84 260.779   7
   3   4  -5 4177.61 167.262   9
  -3   4  -5 4164.55 169.759   3
   3   4  -4 34420.2 648.293   4
  -3   4  -4 33806.2 664.861   9
   3   4  -4 33657.3 684.995   3
   3   4  -4 33016.8 664.197   9
  -3  -4  -4 33035.6 834.972   7
   3  -4  -4 33128.4 828.631   7
  -3   4  -4 33276.9 681.313   4
  -3   4  -4 32658.3 663.974   3
   3   4  -3 1434.98 83.9658   9
   3   4  -3 1541.29 76.4174   4
  -3   4  -3 1473.98 86.5244   3
  -3   4  -3 1525.31 87.2201   9
   3   4  -3 1499.16 92.6548   3
   3  -4  -3 1874.37 149.627   7
  -3  -4  -3 1707.97 145.948   7
   3   4  -2 24075.4 443.799   4
  -3  -4  -2 23058.6 600.745   7
   3   4  -2 23091.9 483.088   3
   3   4  -2 22241.4 462.512   9
   3  -4  -2 23477.7 599.362   7
  -3   4  -2 22712.1 470.459   9
  -3   4  -2 22559.9 474.423   3
   3  -4  -2 23326.0 456.635   5
   3   4  -1 1699.99 87.2685   3
  -3   4  -1 1715.48 83.4594   9
  -3   4  -1 1546.92 83.3587   3
   3   4  -1 1589.92 77.6397   9
  -3  -4  -1 1816.24 136.640   7
   3  -4  -1 1661.05 83.1766   6
   3  -4  -1 1956.78 140.455   7
   3  -4  -1 1679.23 75.4963   5
  -3   4   0 37989.6 693.713   9
   3  -4   0 39191.9 836.466   7
  -3   4   0 38299.7 722.087   6
   3  -4   0 35435.4 684.223   6
   3   4   0 37354.0 678.707   9
  -3  -4   0 37003.7 834.528   7
   3  -4   0 37168.7 794.552   2
   3   4   0 38919.5 702.506   3
  -3   4   0 37221.2 711.491   3
   3  -4   0 39843.4 688.056   5
  -3  -4   0 39188.5 681.322  10
   3  -4   1 2029.08 141.777   7
  -3   4   1 1894.51 96.2828   6
  -3  -4   1 2091.22 85.4006  10
   3  -4   1 2123.69 92.8294   5
   3   4   1 1897.01 85.9535   3
  -3  -4   1 2096.75 145.646   7
   3  -4   1 2072.00 85.8220   6
  -3   4   1 1864.36 81.1832   9
   3   4   1 1868.06 74.5103   9
  -3   4   2 21169.2 398.665  10
  -3  -4   2 20434.0 550.753   7
  -3   4   2 21181.7 405.012   9
   3  -4   2 19288.7 458.873   5
   3  -4   2 21951.1 564.599   7
   3   4   2 22041.3 421.224   3
   3  -4   2 20352.8 416.340   6
  -3   4   3 1079.69 62.6189  10
   3   4   3 1146.01 62.7098   3
  -3   4   4 32542.2 627.696  10
  -3   4   5 3910.74 153.904  10
   3   4   5 3908.54 160.113  10
   3   4   6 17764.7 441.593  10
  -3   4   6 17992.0 436.140  10
  -3   4   7 3068.62 159.461  10
   3   4   7 2926.76 158.860  10
   3   4   8 8338.54 299.863  10
  -3   4   8 8593.66 304.757  10
  -3   5  -8 185.783 49.4240   9
   3   5  -7 13.2886 33.1248   3
   3   5  -7 65.3855 46.9406   9
  -3   5  -7 12.6935 34.9727   9
   3  -5  -7 8.54840 60.8326   7
  -3   5  -7 23.5984 23.9686   4
  -3  -5  -7 79.3806 86.9927   7
   3  -5  -6 43.6387 75.9900   7
   3   5  -6 30.6106 30.2155   9
  -3   5  -6 51.4591 36.4659   9
  -3   5  -6 19.5369 19.8942   3
   3   5  -6 100.163 44.9112   3
  -3   5  -6 27.7504 14.6935   4
  -3  -5  -6 7.66034 66.8286   7
  -3   5  -5 35.5841 28.5084   3
  -3   5  -5-12.1387 26.6654   9
  -3  -5  -5-33.2564 60.1297   7
   3   5  -5-2.06429 28.1718   9
  -3   5  -5 25.4185 29.1534   4
   3   5  -5 49.4990 30.3239   3
   3  -5  -5 55.1154 61.6209   7
  -3  -5  -4 167.046 66.6747   7
   3   5  -4 126.596 39.2449   3
   3   5  -4 143.148 35.6645   9
  -3   5  -4 104.504 34.2982   9
  -3   5  -4 161.491 38.4129   4
  -3   5  -4 146.766 34.4409   3
   3  -5  -4 213.323 77.2218   7
  -3  -5  -3 107.997 66.3309   7
   3  -5  -3 25.6762 48.8341   7
   3   5  -3 0.53760 23.9743   9
  -3   5  -3 8.51028 26.7588   9
  -3   5  -3 16.7630 26.1310   3
   3   5  -3 20.6410 29.4729   3
  -3   5  -2 942.768 74.4198   3
   3   5  -2 1006.92 78.2806   3
   3   5  -2 962.278 71.1580   9
  -3   5  -2 956.331 73.2299   9
  -3  -5  -2 1002.83 118.412   7
   3  -5  -2 1005.53 64.9320   5
   3  -5  -2 1071.98 123.386   7
  -3   5  -1 261.328 41.9240   3
   3   5  -1 345.027 46.5083   3
  -3   5  -1 295.086 41.1802   9
   3   5  -1 267.257 38.0609   9
  -3  -5  -1 408.662 78.2736   7
   3  -5  -1 435.905 84.2471   7
   3  -5   0 802.161 101.111   7
   3   5   0 703.208 53.8016   9
  -3   5   0 729.397 57.7627   9
   3   5   0 710.296 60.6408   3
  -3   5   0 682.603 61.2220   3
  -3  -5   0 894.411 110.088   7
   3  -5   1 439.660 81.4911   7
  -3   5   1 335.638 45.7643   3
  -3   5   1 374.227 40.7842   9
   3   5   1 364.679 43.3728   3
   3   5   1 322.525 35.8829   9
  -3  -5   1 545.469 89.1657   7
  -3  -5   2 1098.82 123.680   7
   3  -5   2 1045.98 118.328   7
   3   5   2 1072.26 70.0234   3
  -3  -5   3 46.1625 46.7089   7
   3  -5   3 69.3307 47.7071   7
  -3   5   4 167.093 30.6251  10
   3   5   5 24.0733 27.3938  10
  -3   5   5 18.4418 21.3284  10
   3   5   6 76.8392 44.0771  10
  -3   5   6 46.6306 34.4389  10
  -3   5   7 23.3485 39.1684  10
   3   5   7 39.0637 43.8286  10
  -3   6  -7 1716.70 135.464   4
   3   6  -6 11923.6 372.011   9
  -3   6  -6 10780.1 361.273   4
  -3   6  -6 11534.2 365.329   9
  -3  -6  -6 13135.0 585.487   7
   3   6  -6 11613.7 389.608   3
   3  -6  -6 12677.2 572.104   7
  -3   6  -6 11686.0 380.915   3
   3   6  -5 2267.03 141.496   9
  -3   6  -5 2263.71 141.645   9
  -3   6  -5 2507.52 149.377   4
  -3   6  -5 2242.04 145.394   3
   3   6  -5 2275.71 150.706   3
   3  -6  -5 2580.04 237.981   7
  -3  -6  -5 2369.11 230.481   7
  -3   6  -4 20044.8 507.590   3
   3   6  -4 20092.3 495.296   9
  -3   6  -4 20847.7 503.152   9
  -3  -6  -4 21967.6 719.495   7
   3   6  -4 20783.3 523.437   3
  -3   6  -4 20269.8 502.421   4
   3  -6  -4 21798.1 715.326   7
   3   6  -3 5338.34 204.696   9
  -3   6  -3 5350.52 206.070   9
  -3  -6  -3 6382.62 350.478   7
   3   6  -3 5564.81 221.547   3
  -3   6  -3 5627.59 218.460   3
   3  -6  -3 6570.63 352.325   7
  -3   6  -2 25235.9 569.741   3
   3   6  -2 24831.0 544.118   9
  -3   6  -2 24795.1 550.258   9
  -3  -6  -2 24785.5 741.665   7
   3   6  -2 25561.7 573.073   3
   3  -6  -2 26604.4 751.199   7
   3   6  -1 5214.42 199.802   3
  -3   6  -1 5243.74 187.869   9
  -3  -6  -1 5814.03 312.360   7
   3   6  -1 4940.78 179.118   9
  -3   6  -1 5191.30 199.837   3
   3  -6  -1 5911.17 309.544   7
  -3   6   0 29004.3 629.177   3
  -3   6   0 29248.4 600.163   9
  -3  -6   0 29958.5 801.352   7
   3   6   0 29407.1 590.549   9
   3   6   0 30311.0 627.577   3
   3  -6   0 30906.0 799.417   7
  -3   6   1 5391.45 178.310   9
  -3   6   1 5326.24 201.362   3
  -3  -6   1 5758.41 302.869   7
   3  -6   1 5821.00 301.586   7
   3   6   1 5600.58 196.833   3
  -3  -6   2 23717.7 704.455   7
   3   6   2 24105.8 521.909   3
  -3   6   2 24175.0 546.303   3
   3  -6   2 24811.4 716.975   7
   3  -6   3 5626.03 313.442   7
  -3  -6   3 5784.95 318.196   7
   3  -6   4 21187.7 690.318   7
  -3  -6   4 19480.2 662.573   7
   3  -6   5 2456.77 227.316   7
  -3  -6   5 2432.21 219.232   7
   3   6   5 2175.88 127.130  10
   3   6   6 10890.6 338.338  10
  -3   7  -5 230.035 55.1785   3
   3   7  -4 2673.33 167.503   3
   3  -7  -4 2926.26 263.105   7
  -3   7  -4 2367.64 151.526   9
   3   7  -4 2126.37 142.267   9
  -3   7  -4 2360.85 155.703   3
  -3  -7  -4 2723.25 260.775   7
  -3  -7  -3 280.817 100.059   7
   3   7  -3 240.913 51.1173   3
   3  -7  -3 372.449 112.268   7
   3   7  -3 190.975 50.9884   9
  -3   7  -3 207.377 49.5382   9
  -3   7  -3 253.073 57.7364   3
   3  -7  -2 3285.67 256.910   7
   3   7  -2 2768.54 159.047   3
   3   7  -2 2629.66 142.622   9
  -3   7  -2 2635.87 145.366   9
  -3   7  -2 2733.79 156.433   3
  -3  -7  -2 3214.65 253.766   7
  -3  -7  -1 329.853 95.4961   7
   3   7  -1 317.103 54.9883   3
   3  -7  -1 296.576 90.1723   7
   3   7  -1 238.850 45.0178   9
  -3   7  -1 291.296 51.9046   9
  -3   7  -1 276.895 53.5500   3
   3   7   0 3396.46 166.806   3
  -3  -7   0 3317.77 247.304   7
  -3   7   0 3041.77 144.629   9
  -3   7   0 3231.50 166.166   3
   3  -7   0 3426.85 250.997   7
  -3  -7   1 665.689 120.629   7
  -3   7   1 480.547 64.3608   3
   3   7   1 391.998 56.3969   3
   3  -7   1 576.266 112.824   7
   3   7   2 2653.44 139.083   3
  -3   7   2 2405.18 141.734   3
   3  -7   2 2789.71 232.558   7
  -3  -7   2 3139.85 246.510   7
   3  -7   3 248.573 84.5352   7
  -3  -7   3 257.309 84.5007   7
  -3   7   3 163.289 40.3441   3
  -3   7   4 2262.22 141.403   3
  -3  -7   4 2838.29 247.883   7
   3  -7   4 2842.37 250.770   7
   3   8  -2 8675.01 301.775   9
  -3   8  -2 8839.68 310.124   9
   3  -8  -2 10116.7 494.807   7
   3   8  -2 9394.48 337.885   3
  -3  -8  -2 10020.4 497.961   7
   3   8  -1 1543.37 124.829   3
  -3   8  -1 1662.78 128.664   3
   3  -8  -1 1769.58 204.354   7
  -3  -8  -1 1713.77 202.204   7
  -3   8  -1 1395.72 109.699   9
   3  -8   0 7224.03 401.453   7
   3   8   0 6502.13 262.883   3
  -3   8   0 6332.04 262.372   3
  -3  -8   0 6572.74 387.757   7
   3   8   1 1523.53 118.343   3
  -3   8   1 1662.76 127.940   3
   3  -8   1 1512.25 182.356   7
  -3  -8   1 1456.64 179.375   7
   3  -8   2 9324.61 461.495   7
  -3  -8   2 9113.26 456.792   7
  -3   8   2 8462.54 308.776   3
  -3   8   3 367.678 60.8922   3
  -4   0  -9 4003.58 211.576   4
  -4   0  -9 4005.68 297.660   8
   4   0  -9 4159.84 307.439   8
  -4   0  -8 13256.6 399.063   4
   4   0  -8 14304.4 550.217   8
  -4   0  -8 13492.0 535.913   8
  -4   0  -7 10670.7 327.375   4
   4   0  -7 11794.7 456.083   8
  -4   0  -7 11109.2 446.967   8
   4   0  -6 23709.0 651.155   8
  -4   0  -6 22914.6 649.513   8
  -4   0  -6 22478.4 509.497   4
  -4   0  -5 11062.9 289.973   4
   4   0  -5 11592.1 386.151   8
  -4   0  -5 11495.8 390.941   8
   4   0  -5 11154.6 267.621   9
   4   0  -4 57442.0 991.042   9
   4   0  -4 58104.5 1124.83   8
  -4   0  -4 58008.4 948.755   9
  -4   0  -4 55411.5 1127.22   8
  -4   0  -4 55555.3 1007.59   4
  -4   0  -4 57436.6 1008.72   1
   4   0  -3 38325.4 676.047   9
  -4   0  -3 36826.7 677.393   4
  -4   0  -3 37749.5 677.452   1
  -4   0  -3 38878.1 639.505   9
  -4   0  -3 39210.8 776.052   8
   4   0  -3 35655.8 754.351   8
  -4   0  -2 75046.1 1260.02   4
  -4   0  -2 79351.1 1239.35   9
   4   0  -2 75985.0 1270.97   9
   4   0  -2 75877.5 1319.17   8
  -4   0  -2 72279.8 1316.84   8
   4   0  -2 76194.2 1253.57   5
  -4   0  -2 75343.4 1258.16   1
  -4   0  -1 19867.2 363.291  10
   4   0  -1 20189.3 363.856   5
  -4   0  -1 20255.3 341.641   6
   4   0  -1 21403.2 395.556   9
   4   0   0 52042.0 920.329   5
   4   0   0 52115.0 906.767   2
   4   0   1 18907.5 322.337   6
   4   0   1 19553.9 351.934   5
  -4   0   1 19062.3 351.647  10
   4   0   2 72907.6 1200.37   6
  -4   0   2 75958.9 1227.63  10
   4   0   3 36121.8 624.365   6
  -4   0   3 36416.0 647.815  10
   4   0   4 59964.3 1027.50  10
  -4   0   4 59297.0 1037.00  10
   4   0   5 10249.5 253.739  10
  -4   0   5 10364.9 264.341  10
   4   0   6 20325.7 445.233  10
  -4   0   6 20977.2 461.622  10
   4   0   7 10272.6 292.011  10
  -4   0   7 10930.9 309.308  10
   4   0   8 13108.1 362.794  10
  -4   0   8 13090.4 374.628  10
  -4   0   9 3325.63 182.477  10
   4   0   9 3098.05 169.229  10
  -4  -1  -9 119.416 40.8757   4
  -4  -1  -9 190.858 85.5784   8
  -4   1  -9 202.825 56.6018   4
   4   1  -9 263.305 99.8285   8
   4  -1  -9 321.776 117.873   8
  -4   1  -9 215.255 97.9716   8
   4   1  -8 339.957 93.8322   8
  -4   1  -8 357.902 62.9494   4
  -4  -1  -8 316.148 56.9106   4
  -4   1  -8 308.457 88.6494   8
   4   1  -8 307.249 54.7634   4
   4  -1  -8 335.705 99.6091   8
  -4  -1  -8 301.268 94.6946   8
  -4   1  -7 608.496 72.4268   4
   4   1  -7 685.816 72.3333   4
   4  -1  -7 684.501 117.672   8
  -4  -1  -7 626.003 105.405   8
   4   1  -7 682.602 107.997   8
  -4   1  -7 539.821 101.074   8
  -4  -1  -7 780.249 79.1395   4
   4   1  -6 1088.49 73.3738   9
   4   1  -6 1063.04 81.7724   4
   4  -1  -6 1076.23 129.779   8
  -4  -1  -6 1099.67 126.606   8
  -4   1  -6 1201.44 91.0548   4
   4   1  -6 1181.83 129.017   8
  -4   1  -6 1189.47 135.503   8
  -4  -1  -6 1165.48 86.8668   4
   4   1  -5 2038.64 102.641   4
  -4  -1  -5 2127.94 106.619   4
   4   1  -5 2090.57 94.3287   9
  -4   1  -5 2147.25 84.1979   9
  -4  -1  -5 2141.84 159.608   8
   4  -1  -5 2230.59 164.275   8
   4   1  -5 2326.03 163.482   8
  -4   1  -5 2006.14 107.025   4
   4   1  -4 4050.44 163.635   3
  -4  -1  -4 3882.77 133.789   4
   4   1  -4 3847.48 126.955   9
  -4   1  -4 3775.95 139.309   4
  -4   1  -4 3894.54 114.793   9
   4   1  -4 3768.54 131.763   4
  -4  -1  -4 4010.13 196.155   8
   4  -1  -4 4146.04 201.864   8
   4  -1  -4 4385.19 158.870   9
  -4   1  -4 4022.54 116.592   3
  -4  -1  -3 1626.21 70.5485   4
   4   1  -3 1651.22 72.7417   9
  -4   1  -3 1604.65 58.8935   3
  -4   1  -3 1738.79 79.4287   1
  -4   1  -3 1692.97 80.2253   4
   4   1  -3 1761.66 91.5021   3
   4  -1  -3 1849.68 98.9908   9
   4  -1  -3 1796.72 114.802   8
  -4  -1  -3 1865.47 112.986   8
  -4   1  -3 1657.46 65.0735   9
   4  -1  -3 1812.90 117.731   7
  -4  -1  -3 1759.94 116.540   7
   4   1  -3 1685.96 72.1758   4
   4   1  -2 5309.68 129.295   4
  -4  -1  -2 5579.37 128.708   4
  -4  -1  -2 5060.31 133.843   6
   4   1  -2 5403.60 154.096   3
   4  -1  -2 5791.52 189.291   8
  -4  -1  -2 6048.58 178.643   8
   4  -1  -2 5680.27 181.993   7
  -4   1  -2 5315.65 118.432   3
   4  -1  -2 5325.37 138.431   5
  -4  -1  -2 5514.52 182.173   7
  -4   1  -2 5337.49 131.784   9
   4   1  -2 5274.87 138.093   9
  -4  -1  -1 6910.82 130.143   1
   4  -1  -1 7312.71 177.081   7
   4   1  -1 6622.52 154.503   9
  -4  -1  -1 7176.12 177.853   7
  -4   1  -1 6568.52 152.323   9
  -4  -1  -1 6689.14 157.823  10
   4   1  -1 6779.29 161.186   3
   4  -1  -1 6936.12 160.361   5
  -4  -1  -1 6564.13 154.533   6
  -4  -1   0 992.867 54.9731   6
   4  -1   0 1134.68 64.3902   5
  -4  -1   0 1059.70 61.5724  10
   4  -1   0 1016.44 70.4515   2
  -4   1   0 979.214 48.8039   9
   4   1   0 1015.72 41.7653   3
   4   1   0 993.122 43.8530   9
  -4   1   1 8131.02 191.548   2
   4  -1   1 8450.87 198.748   5
  -4  -1   1 8028.35 201.010  10
   4   1   1 8598.93 177.660   9
   4   1   1 7833.08 171.092   6
  -4   1   1 7528.75 162.909  10
  -4   1   2 5910.13 146.275  10
   4   1   2 6241.78 138.137   1
  -4  -1   2 5908.82 156.336  10
   4  -1   2 6443.90 160.481   5
   4   1   2 6466.72 147.544   6
  -4   1   3 1414.17 66.4386  10
   4   1   3 1407.48 62.5180   1
   4  -1   3 1344.15 55.2841  10
  -4  -1   3 1439.08 68.3941  10
   4   1   3 1497.14 65.3933   6
  -4  -1   3 1512.62 69.6701   1
  -4   1   4 3996.93 134.645  10
  -4  -1   4 4241.41 140.877   1
   4  -1   4 4224.40 122.382  10
   4   1   4 4230.12 135.099   1
   4   1   4 4069.62 130.714   6
  -4  -1   4 4039.25 134.196  10
   4  -1   5 2485.32 98.5783  10
  -4   1   5 2339.17 108.199  10
  -4  -1   5 2455.49 109.159  10
   4   1   5 2342.20 106.557  10
   4  -1   6 890.975 65.0657  10
  -4   1   6 957.866 75.5251  10
   4   1   6 950.032 73.1338  10
  -4  -1   6 871.876 71.3051  10
  -4  -1   7 625.391 65.9541  10
   4   1   7 636.597 67.9472  10
  -4   1   7 570.327 65.6483  10
   4  -1   7 583.362 59.4399  10
  -4  -1   8 294.835 54.0427  10
  -4   1   8 308.618 58.3550  10
   4   1   8 304.479 53.0683  10
  -4   1   9 144.224 53.9317  10
   4   1   9 142.502 48.4874  10
  -4  -1   9 106.715 45.2947  10
  -4   2  -9 2173.49 156.185   4
   4  -2  -9 2446.48 249.498   8
   4   2  -9 2559.20 235.803   8
  -4   2  -9 2422.65 241.399   8
  -4  -2  -9 2285.81 230.661   8
   4   2  -9 2328.72 155.209   4
   4   2  -8 7369.15 272.549   4
  -4   2  -8 8174.29 419.780   8
  -4  -2  -8 7957.32 413.657   8
   4   2  -8 7898.96 395.701   8
  -4   2  -8 7219.22 282.225   4
   4   2  -7 3080.59 142.441   9
  -4   2  -7 3200.47 164.929   4
   4  -2  -7 3502.72 258.155   8
   4   2  -7 3162.73 156.372   4
  -4  -2  -7 3416.21 247.866   8
   4   2  -7 3423.54 242.042   8
   4   2  -6 17678.3 465.743   3
   4   2  -6 16867.3 410.855   4
  -4   2  -6 17210.3 381.989   9
   4   2  -6 17121.4 397.978   9
   4  -2  -6 18621.2 595.104   8
  -4  -2  -6 18444.7 573.734   8
  -4   2  -6 16647.6 426.960   4
  -4  -2  -6 17843.8 427.732   4
  -4   2  -5 5592.66 168.836   9
   4   2  -5 5635.63 183.606   4
  -4  -2  -5 5866.69 191.275   4
   4   2  -5 5598.14 178.451   9
  -4   2  -5 5557.54 195.618   4
  -4  -2  -5 6065.77 278.602   8
   4  -2  -5 5910.82 283.458   7
  -4  -2  -5 5841.42 286.410   7
   4  -2  -5 6303.00 293.590   8
   4   2  -5 5497.54 207.254   3
   4   2  -4 21760.7 448.886   9
  -4   2  -4 21818.3 437.150   9
  -4   2  -4 21886.8 470.483   4
  -4  -2  -4 22537.8 581.424   7
  -4  -2  -4 22126.5 452.595   4
  -4   2  -4 22711.7 436.943   3
   4  -2  -4 22064.0 580.009   8
  -4  -2  -4 23078.4 568.668   8
   4   2  -4 21930.0 479.394   3
   4  -2  -4 22421.7 573.517   7
   4   2  -4 22466.7 448.673   4
   4   2  -3 16366.6 327.599   4
  -4  -2  -3 16198.1 350.225   6
  -4   2  -3 16175.8 331.684   9
  -4   2  -3 16085.5 324.189   3
   4   2  -3 16369.6 340.391   9
   4   2  -3 15930.8 356.357   3
  -4   2  -3 15386.6 351.008   4
   4  -2  -3 16739.4 428.577   7
  -4  -2  -3 16428.4 431.222   7
  -4  -2  -3 16427.9 330.534   4
   4   2  -2 30820.4 532.028   4
   4   2  -2 31347.7 558.214   9
  -4   2  -2 30743.3 551.992   9
  -4  -2  -2 29947.7 564.825   6
  -4  -2  -2 29768.1 629.769   7
   4   2  -2 29655.5 565.036   3
  -4   2  -2 29972.7 542.848   3
   4  -2  -2 30624.1 557.711   5
   4  -2  -2 29876.5 625.765   7
  -4   2  -1 14011.4 284.981   9
   4   2  -1 13673.0 285.989   3
   4   2  -1 13819.3 281.667   9
  -4  -2  -1 13805.3 298.203   6
  -4  -2  -1 14069.5 333.784   7
   4  -2  -1 14519.7 291.333   5
   4  -2  -1 14222.1 332.131   7
  -4  -2  -1 14008.2 287.534  10
  -4  -2   0 60624.1 1016.74  10
   4   2   0 60512.4 988.578   9
   4  -2   0 60036.8 1091.04   2
   4  -2   0 59566.7 973.991   6
  -4   2   0 57509.0 996.024   9
  -4  -2   0 60074.5 1064.06   7
   4  -2   0 60080.3 1028.15   5
   4  -2   0 61598.1 1059.90   7
   4   2   0 58987.1 989.453   3
  -4  -2   0 55974.2 1026.32   6
  -4   2   0 58386.4 977.999   6
   4  -2   1 15206.0 344.685   7
   4   2   1 14470.2 300.377   6
   4   2   1 14378.7 268.444   9
   4   2   1 14182.5 269.129   3
  -4   2   1 15693.0 347.151   2
   4  -2   1 14355.7 257.558   6
   4  -2   1 14774.7 340.979   5
  -4   2   1 14127.3 287.715   9
  -4   2   1 14402.3 268.180  10
  -4   2   1 14923.5 290.237   6
  -4  -2   1 14250.1 334.745  10
  -4  -2   1 14233.3 340.296   7
   4   2   2 28323.8 515.543   6
  -4   2   2 27000.9 502.623   9
   4  -2   2 28831.9 534.811   5
   4   2   2 26936.2 466.722   3
  -4  -2   2 28040.2 537.245  10
  -4   2   2 26953.9 490.498  10
   4  -2   3 15963.5 334.972   5
   4   2   3 15672.3 306.081   1
   4   2   3 15218.2 274.354   3
  -4  -2   3 15503.9 319.791   1
  -4  -2   3 15236.0 328.787  10
   4  -2   3 14527.0 278.998  10
   4   2   3 15538.5 327.616   6
  -4   2   3 15026.9 314.932  10
   4  -2   4 20338.3 384.743  10
  -4  -2   4 20484.1 423.665  10
  -4  -2   4 20926.9 429.909   1
   4   2   4 20274.3 410.302   1
  -4   2   4 20501.9 421.314  10
   4   2   5 6021.38 191.437  10
  -4   2   5 5737.83 185.481  10
  -4  -2   5 5612.31 181.914  10
   4   2   6 17234.8 406.953  10
  -4   2   6 16897.5 401.836  10
  -4  -2   6 16338.5 394.675  10
   4   2   7 3404.24 160.990  10
  -4  -2   7 3569.09 160.232  10
  -4   2   7 3215.36 157.148  10
   4   2   8 6787.61 252.376  10
  -4  -2   8 7135.29 257.964  10
  -4   2   8 7266.45 265.821  10
   4   2   9 2293.12 151.663  10
  -4   2   9 2476.24 161.511  10
   4   3  -9 2347.49 156.077   4
  -4   3  -8 5342.23 241.780   4
   4   3  -8 5441.49 333.555   8
   4   3  -8 5155.95 223.566   4
   4   3  -7 4778.43 197.678   4
  -4   3  -7 4485.96 206.795   4
   4   3  -7 4489.63 185.367   9
   4   3  -7 4824.42 230.452   3
   4   3  -6 8229.65 252.492   4
  -4   3  -6 7975.28 240.637   9
  -4   3  -6 8159.44 272.130   4
   4  -3  -6 8409.12 384.948   7
  -4  -3  -6 8707.89 393.868   7
   4   3  -6 8216.77 284.243   3
   4   3  -6 7985.48 248.602   9
  -4   3  -5 5064.62 172.591   3
   4   3  -5 4898.68 169.093   4
   4   3  -5 4860.78 192.177   3
   4   3  -5 4762.23 171.908   9
  -4   3  -5 4659.51 164.680   9
   4  -3  -5 4851.93 260.347   7
  -4  -3  -5 4970.84 267.919   7
  -4   3  -5 4639.55 185.492   4
   4   3  -4 14920.3 363.037   3
   4   3  -4 14631.1 341.683   9
  -4   3  -4 14609.2 334.396   3
  -4   3  -4 14452.7 333.822   9
  -4  -3  -4 15447.3 468.787   7
   4   3  -4 15033.5 331.297   4
   4  -3  -4 15133.3 458.631   7
  -4   3  -4 14364.1 359.935   4
  -4   3  -3 15925.2 349.454   9
   4   3  -3 15697.8 350.375   9
   4   3  -3 17039.2 334.769   4
   4  -3  -3 16137.6 448.191   7
  -4  -3  -3 16321.6 455.445   7
   4   3  -3 15926.6 366.361   3
   4   3  -3 16400.2 331.550   1
  -4   3  -3 15257.8 342.728   3
   4   3  -2 24302.5 489.855   3
   4   3  -2 25195.0 448.548   4
  -4  -3  -2 25144.2 502.739   6
   4   3  -2 24638.6 477.607   9
  -4   3  -2 24641.4 479.494   9
   4   3  -2 24352.0 444.618   1
  -4  -3  -2 24504.8 576.253   7
   4  -3  -2 25941.4 582.336   7
   4  -3  -2 24339.6 476.054   5
  -4   3  -2 23917.4 475.057   3
  -4  -3  -1 6878.84 237.964   7
  -4   3  -1 6285.19 174.385   3
   4   3  -1 6609.19 139.293   4
  -4   3  -1 6183.78 169.786   9
   4   3  -1 6306.28 167.667   9
  -4  -3  -1 6517.63 172.312  10
   4  -3  -1 6602.25 234.117   7
   4   3  -1 6727.08 139.332   1
   4  -3  -1 6584.24 172.629   5
  -4  -3  -1 6637.98 193.146   6
   4   3  -1 6344.75 174.622   3
   4   3   0 35290.7 643.582   3
   4  -3   0 34942.8 629.740   6
   4  -3   0 37694.7 758.837   2
  -4  -3   0 34763.3 681.598   6
  -4   3   0 36122.7 647.884   9
  -4  -3   0 35971.6 652.990  10
  -4   3   0 36864.3 647.019   6
   4  -3   0 37004.8 664.444   5
  -4  -3   0 36843.4 747.543   7
  -4  -3   0 35096.1 602.141   2
   4   3   0 36806.1 636.723   9
   4  -3   0 37664.7 746.169   7
   4   3   1 7959.28 183.413   2
   4   3   1 7562.86 206.734   6
  -4   3   1 7499.41 189.723   6
   4  -3   1 7031.05 162.813   6
  -4   3   1 7958.24 263.269   2
  -4   3   1 7259.77 178.908   9
   4  -3   1 7241.03 217.266   5
   4   3   1 7238.16 173.086   3
  -4  -3   1 7328.75 204.824  10
   4   3   1 7220.03 166.408   9
  -4  -3   1 7535.07 227.857   6
  -4   3   1 7110.01 155.577  10
   4  -3   1 7600.46 251.925   7
  -4  -3   1 7407.48 252.425   7
  -4   3   2 24929.6 476.815   6
   4  -3   2 23320.3 429.499   6
  -4   3   2 22669.9 439.590   9
   4  -3   2 25262.1 523.541   5
  -4   3   2 25555.8 526.801   2
  -4   3   2 23062.6 435.339  10
   4   3   2 23216.0 430.618   3
  -4  -3   2 24376.4 516.526  10
   4   3   2 23143.7 415.398   9
   4  -3   3 16071.1 362.010   5
  -4   3   3 14505.7 300.420   9
  -4  -3   3 15816.8 364.556  10
   4   3   3 14501.0 290.129   3
  -4   3   3 14777.8 315.136  10
   4  -3   4 17497.2 395.626   5
  -4   3   4 16946.3 370.971  10
  -4  -3   4 17232.6 392.661  10
   4  -3   5 4982.08 180.392   5
  -4  -3   5 4632.80 170.821  10
  -4   3   5 4840.78 170.172  10
   4  -3   6 8710.85 267.954   5
   4   3   6 8689.45 266.042  10
  -4   3   6 8278.49 257.173  10
   4   3   7 4301.01 190.377  10
  -4   3   7 4741.18 196.033  10
  -4   3   8 5195.74 224.232  10
   4   3   8 5164.55 222.382  10
  -4   4  -8 1653.16 135.192   4
   4   4  -8 1411.69 135.931   3
   4   4  -8 1511.91 118.339   9
  -4  -4  -7 815.300 146.395   7
   4   4  -7 721.214 80.4554   9
  -4   4  -7 806.867 80.5604   9
   4   4  -7 740.158 89.7447   3
   4   4  -7 789.110 79.1238   4
   4  -4  -7 958.212 153.081   7
  -4   4  -7 849.634 91.0596   4
   4   4  -6 2374.58 131.756   9
  -4   4  -6 2333.58 141.081   4
  -4   4  -6 2258.81 125.701   9
   4  -4  -6 2259.14 201.769   7
  -4  -4  -6 2493.81 215.003   7
   4   4  -6 2223.58 122.617   4
   4   4  -6 2312.90 145.017   3
   4  -4  -5 1788.78 168.406   7
  -4   4  -5 1853.48 118.750   4
   4   4  -5 1778.39 99.7720   4
   4   4  -5 1746.16 106.893   9
   4   4  -5 1802.31 117.683   3
  -4   4  -5 1476.13 90.7201   9
  -4  -4  -5 2374.65 194.349   7
  -4   4  -5 1692.62 104.627   3
   4   4  -4 5193.44 182.772   9
   4   4  -4 5153.90 195.631   3
  -4   4  -4 5053.54 180.286   9
  -4   4  -4 5335.35 184.906   3
   4   4  -4 5305.97 168.396   4
   4  -4  -4 5552.29 272.734   7
  -4  -4  -4 5715.69 280.585   7
  -4   4  -4 5026.74 193.904   4
  -4   4  -3 1556.10 88.9995   9
   4  -4  -3 1768.00 144.590   7
  -4   4  -3 1510.19 88.1357   3
   4   4  -3 1518.56 94.7697   3
   4   4  -3 1403.02 85.0220   9
  -4  -4  -3 1758.10 147.010   7
   4   4  -2 9075.94 250.255   3
   4   4  -2 8925.25 235.310   9
  -4  -4  -2 9618.63 338.207   7
   4  -4  -2 9865.38 337.738   7
  -4   4  -2 8893.60 239.909   9
  -4   4  -2 8905.45 241.613   3
   4  -4  -2 9272.79 232.606   5
   4  -4  -1 3653.91 189.109   7
   4  -4  -1 3318.00 117.591   5
   4   4  -1 3189.10 117.787   9
   4   4  -1 3379.72 128.516   3
   4  -4  -1 3202.22 120.259   6
  -4  -4  -1 3447.06 120.210  10
  -4  -4  -1 3608.58 192.545   7
  -4   4  -1 3331.26 124.380   9
  -4   4  -1 3129.58 125.353   3
  -4  -4   0 4174.14 132.382  10
   4  -4   0 3881.71 127.322   6
   4   4   0 3975.11 126.185   9
  -4   4   0 3937.02 133.047   9
   4   4   0 3929.21 135.421   3
   4  -4   0 4037.38 134.743   5
  -4   4   0 4111.51 145.553   6
  -4  -4   0 4162.24 203.104   7
   4  -4   0 4142.90 199.665   7
  -4   4   1 2985.05 122.088   6
  -4  -4   1 2939.77 171.224   7
   4   4   1 3022.72 100.334   9
   4   4   1 2981.42 108.948   3
  -4  -4   1 2990.32 114.958  10
   4  -4   1 3083.95 124.964   5
  -4   4   1 2909.56 107.259   9
   4  -4   1 2789.41 99.9150   6
   4  -4   1 2919.49 168.562   7
   4  -4   2 10188.3 341.025   7
  -4  -4   2 9293.86 330.702   7
  -4   4   2 9190.17 220.968   9
  -4  -4   2 9641.43 261.408  10
   4  -4   2 8599.79 269.815   5
   4   4   2 9312.11 222.550   3
  -4   4   2 9252.01 210.278  10
   4  -4   3 1743.68 114.149   5
  -4   4   3 1499.05 74.9760  10
  -4   4   4 5021.46 164.001  10
  -4   4   5 1814.96 101.867  10
   4   4   6 2131.56 126.943  10
  -4   4   6 2052.77 120.281  10
   4   4   7 739.514 83.7294  10
  -4   4   7 596.396 74.8952  10
  -4   4   8 1461.38 119.983  10
   4   4   8 1492.81 123.142  10
  -4   5  -7 3816.29 187.631   9
  -4   5  -7 3767.80 201.518   4
   4   5  -7 3860.37 212.949   3
   4  -5  -7 4077.03 312.092   7
  -4  -5  -7 4233.50 321.072   7
   4   5  -7 3980.17 195.021   9
  -4   5  -6 12556.6 364.320   9
  -4   5  -6 12551.0 381.988   4
   4   5  -6 12411.4 364.416   9
   4   5  -6 12134.4 388.444   3
   4  -5  -6 13163.8 541.234   7
  -4  -5  -6 13416.4 550.682   7
   4   5  -5 5574.62 214.979   9
  -4   5  -5 5358.53 210.247   9
  -4   5  -5 5678.78 228.359   4
   4   5  -5 5712.08 232.059   3
  -4   5  -5 5471.47 216.310   3
   4  -5  -5 5989.70 330.262   7
  -4  -5  -5 6026.99 336.459   7
  -4   5  -4 20569.2 487.147   3
   4   5  -4 20750.5 502.195   3
   4   5  -4 20332.1 477.579   9
  -4   5  -4 20615.3 498.095   4
   4  -5  -4 21100.0 647.182   7
  -4   5  -4 21052.2 483.969   9
  -4  -5  -4 21809.1 657.802   7
   4   5  -3 10497.5 304.128   3
  -4   5  -3 10087.0 289.938   3
  -4   5  -3 9809.90 282.469   9
   4  -5  -3 11645.7 429.464   7
  -4  -5  -3 11321.0 428.832   7
   4   5  -3 9781.14 279.067   9
   4   5  -2 16015.1 389.135   3
   4   5  -2 15123.0 362.616   9
  -4   5  -2 15277.9 369.559   9
  -4   5  -2 15479.6 380.604   3
  -4  -5  -2 16593.2 516.054   7
   4  -5  -2 15744.3 352.623   5
   4  -5  -2 16174.0 506.323   7
   4   5  -1 10709.3 271.892   9
  -4   5  -1 10732.9 280.845   9
   4   5  -1 11092.4 292.561   3
   4  -5  -1 11953.7 407.879   7
  -4  -5  -1 11825.0 413.366   7
   4  -5  -1 10763.8 262.847   5
  -4   5  -1 10422.0 289.041   3
  -4   5   0 17277.7 407.767   3
   4   5   0 17906.4 400.700   3
   4   5   0 17192.0 374.936   9
  -4  -5   0 17822.4 526.678   7
   4  -5   0 18818.5 528.724   7
  -4   5   0 17457.6 387.090   9
  -4   5   1 10045.7 255.462   9
   4   5   1 10370.7 266.445   3
  -4  -5   1 10541.4 386.549   7
   4  -5   1 10785.4 385.797   7
   4  -5   2 15648.2 489.341   7
   4   5   2 15204.8 345.830   3
  -4  -5   2 15228.5 487.120   7
   4  -5   3 11114.1 414.658   7
  -4  -5   3 10600.1 405.320   7
  -4  -5   4 18497.4 592.007   7
   4  -5   4 20405.4 620.784   7
   4   5   5 5360.16 203.875  10
  -4   5   5 5313.44 190.452  10
   4   5   6 12133.0 353.696  10
  -4   5   6 12211.3 342.187  10
   4   5   7 4217.59 201.387  10
  -4   5   7 4418.42 198.720  10
  -4  -6  -6 173.603 100.088   7
   4   6  -6 75.4130 48.3543   9
  -4   6  -6 76.1495 39.4055   9
  -4   6  -6 173.839 47.9731   3
  -4   6  -6 162.989 47.7993   4
   4  -6  -6 143.315 90.7980   7
   4   6  -6 143.825 55.9982   3
  -4  -6  -5-8.25046 64.9574   7
   4  -6  -5 22.2315 62.9928   7
   4   6  -5 24.4167 37.4323   9
  -4   6  -5 11.7823 36.1213   9
  -4   6  -5 14.8972 30.9724   3
  -4   6  -5 2.11762 21.1527   4
   4   6  -5 25.5535 36.1415   3
   4  -6  -4 436.671 100.146   7
   4   6  -4 494.108 66.5155   9
  -4   6  -4 472.805 65.1935   9
  -4   6  -4 520.071 71.0427   3
   4   6  -4 452.653 66.8170   3
  -4  -6  -4 521.176 112.787   7
  -4   6  -4 580.644 72.6583   4
  -4   6  -3 914.981 85.7090   9
   4   6  -3 1052.99 95.7227   3
   4   6  -3 956.801 84.3276   9
  -4   6  -3 974.886 88.6544   3
   4  -6  -3 1081.49 148.640   7
  -4  -6  -3 1075.01 144.524   7
   4   6  -2 996.596 80.7234   9
  -4  -6  -2 1237.50 143.930   7
  -4   6  -2 1102.46 90.3389   3
   4   6  -2 1157.89 93.3503   3
  -4   6  -2 1042.30 85.5664   9
   4  -6  -2 1124.89 138.018   7
  -4   6  -1 408.606 53.5323   9
   4   6  -1 402.071 50.0425   9
   4   6  -1 464.648 57.6031   3
  -4  -6  -1 432.808 92.1434   7
  -4   6  -1 482.922 61.0858   3
   4  -6  -1 516.247 102.220   7
  -4   6   0 1521.43 102.863   3
   4   6   0 1586.61 90.9338   9
  -4   6   0 1576.01 94.6503   9
   4   6   0 1652.40 104.655   3
   4  -6   0 1863.03 165.282   7
  -4  -6   0 1798.57 164.968   7
  -4  -6   1 511.177 98.7180   7
   4  -6   1 301.314 72.3472   7
  -4   6   1 407.698 56.8609   3
  -4   6   1 375.702 45.9654   9
   4   6   1 412.907 51.2507   3
   4  -6   2 1027.40 129.878   7
  -4   6   2 1231.78 95.4313   3
   4   6   2 1076.28 78.6446   3
  -4  -6   2 1062.45 131.579   7
   4  -6   3 970.333 131.709   7
  -4  -6   3 776.109 117.788   7
   4  -6   4 593.525 109.966   7
  -4  -6   4 438.677 94.7234   7
   4   6   5 30.9372 27.6446  10
   4  -6   5 64.2520 70.2956   7
  -4  -6   5 8.93770 47.9326   7
   4   6   6 137.959 45.6447  10
   4  -6   6 120.159 76.7815   7
  -4   7  -5 3852.80 209.569   3
   4   7  -4 8993.81 326.355   3
   4   7  -4 8223.73 295.667   9
  -4   7  -4 8437.79 301.755   9
  -4   7  -4 8459.07 312.724   3
  -4  -7  -4 9220.54 470.593   7
   4  -7  -4 9094.91 463.376   7
   4   7  -3 4745.81 223.910   3
   4  -7  -3 5613.26 348.958   7
  -4   7  -3 4842.54 220.230   3
   4   7  -3 4627.58 204.208   9
  -4   7  -3 4804.71 209.893   9
  -4   7  -2 11081.5 333.879   9
   4   7  -2 10928.5 327.460   9
  -4   7  -2 11243.7 350.875   3
   4  -7  -2 12353.1 502.876   7
   4   7  -2 11586.1 358.633   3
  -4  -7  -2 11894.6 504.432   7
   4   7  -1 4309.11 177.674   9
   4   7  -1 4445.87 198.887   3
  -4   7  -1 3995.95 178.978   9
  -4  -7  -1 4813.89 304.652   7
  -4   7  -1 4271.78 197.292   3
   4  -7  -1 5000.87 307.389   7
   4  -7   0 8057.18 386.614   7
  -4   7   0 7584.80 246.668   9
   4   7   0 7821.15 268.663   3
  -4   7   0 7289.00 266.827   3
  -4  -7   0 8361.30 395.203   7
   4  -7   1 4456.42 281.393   7
  -4  -7   1 4649.18 288.398   7
   4   7   1 4499.07 190.614   3
  -4   7   1 4250.73 194.409   3
  -4   7   2 10334.2 330.469   3
   4  -7   2 11651.7 479.072   7
  -4  -7   2 10499.3 465.965   7
  -4  -7   3 4746.73 306.788   7
   4  -7   3 5002.11 316.083   7
  -4   7   3 4399.48 203.333   3
  -4   7   4 7854.69 288.082   3
   4  -7   4 9122.38 448.900   7
  -4  -7   4 8291.62 423.771   7
  -4  -8  -2 5039.86 342.614   7
   4   8  -2 4730.99 213.153   9
  -4   8  -2 4750.82 216.018   9
   4  -8  -2 5380.34 349.559   7
   4   8  -2 5044.33 238.670   3
   4   8  -1 1811.25 135.557   3
  -4  -8  -1 2122.43 219.494   7
  -4   8  -1 1825.90 137.079   3
  -4   8  -1 1713.37 122.478   9
   4  -8  -1 2124.58 216.937   7
  -4  -8   0 5309.75 343.495   7
   4   8   0 4627.24 217.897   3
  -4   8   0 5008.00 232.254   3
  -4  -8   1 2045.40 207.130   7
   4   8   1 1890.74 131.619   3
  -4   8   1 1783.52 134.279   3
   4  -8   1 1901.45 199.787   7
  -4  -8   2 4948.09 326.807   7
  -4   8   2 4672.08 221.697   3
   4  -8   2 5008.72 327.272   7
  -4   8   3 1945.43 138.607   3
  -5   0  -9 62.3277 35.1977   4
  -5   0  -9-12.3395 70.2150   8
  -5   0  -8 55.5263 42.1914   4
   5   0  -8-19.7478 60.4925   8
  -5   0  -8-34.0882 63.2384   8
  -5   0  -7 22.2310 24.5520   4
   5   0  -7 0.00000 43.2661   8
  -5   0  -7 4.50406 50.2197   8
  -5   0  -6 27.1024 24.1874   4
   5   0  -6 40.6153 44.2322   8
  -5   0  -6 27.4313 54.9177   8
   5   0  -5 61.7211 24.6799   9
  -5   0  -5 30.0192 24.2192   4
   5   0  -5 26.2547 39.2389   8
  -5   0  -5 8.34995 36.3979   8
   5   0  -4 21.8279 19.4540   9
  -5   0  -4 1.58577 9.00487   9
  -5   0  -4 53.3919 21.3580   4
  -5   0  -4 53.7400 20.0986   1
   5   0  -4 19.6364 34.7796   8
  -5   0  -4 3.88301 30.6427   8
   5   0  -3 25.6139 18.7911   9
  -5   0  -3 44.3912 12.1052   9
  -5   0  -3 27.6842 16.0266   4
  -5   0  -3 17.6132 12.3986   1
   5   0  -3 72.4348 33.5020   8
  -5   0  -3 19.3104 27.0433   8
   5   0  -2 37.9325 21.0439   9
  -5   0  -2 22.4854 13.0710   9
  -5   0  -2 27.5605 15.5851   4
   5   0  -2 28.5719 24.8934   8
  -5   0  -2 68.9540 26.7999   8
   5   0  -2 37.3832 14.0555   5
  -5   0  -1 43.0291 18.6847  10
  -5   0  -1 79.0457 12.8060   6
   5   0  -1 38.0215 28.6589   9
   5   0  -1 131.982 22.1864   5
  -5   0   0 88.1146 29.9403  10
   5   0   0 206.072 33.7689   5
   5   0   0 100.599 26.5035   2
  -5   0   1 56.7348 21.1755  10
   5   0   1 65.3907 11.6996   6
   5   0   1 116.638 23.0202   5
   5   0   2 42.9009 9.76822   6
  -5   0   2 28.4118 16.7858  10
  -5   0   3-0.39958 15.3684  10
   5   0   3 17.2391 11.0408   6
  -5   0   4 12.7567 18.2022  10
   5   0   4 12.0336 9.13827   6
   5   0   5 28.9462 15.8303   6
   5   0   5 8.34423 18.9806  10
  -5   0   6 37.0208 29.0364  10
   5   0   6 13.0666 24.1978  10
  -5   0   7-0.22255 34.1536  10
   5   0   7 3.24991 24.2040  10
  -5   0   8 18.5843 39.7577  10
   5   0   8 13.7839 29.5121  10
  -5   0   9 14.4390 37.7730  10
   5   0   9-15.9110 32.7225  10
   5   1  -9 12718.9 532.622   8
  -5   1  -9 11852.8 401.962   4
   5  -1  -9 13233.0 566.995   8
  -5   1  -9 12247.3 533.570   8
  -5  -1  -9 12473.7 536.138   8
  -5  -1  -9 12031.9 405.598   4
  -5  -1  -8 299.043 54.6576   4
  -5   1  -8 95.1026 36.1626   4
   5  -1  -8 289.176 94.9763   8
  -5  -1  -8 162.565 73.9914   8
   5   1  -8 244.001 85.3421   8
  -5   1  -8 177.711 72.2529   8
   5  -1  -7 26178.1 747.800   8
  -5  -1  -7 25531.5 733.497   8
   5   1  -7 25388.9 720.596   8
  -5   1  -7 26372.1 744.768   8
  -5   1  -7 24640.3 582.634   4
  -5  -1  -7 24411.2 578.471   4
   5   1  -7 24817.0 571.160   4
   5   1  -6 83.4073 50.9271   8
   5   1  -6 100.217 29.0964   4
  -5  -1  -6 142.929 38.5128   4
   5   1  -6 103.744 30.4412   9
   5  -1  -6 144.692 62.1582   8
  -5  -1  -6 107.569 51.0285   8
  -5   1  -6 121.561 60.2359   8
  -5   1  -6 112.954 36.1792   4
  -5  -1  -5 33915.3 677.872   4
   5   1  -5 34256.7 659.119   9
  -5   1  -5 34745.9 693.225   4
  -5   1  -5 34547.0 630.420   9
   5  -1  -5 35429.3 818.821   8
  -5  -1  -5 36077.4 815.492   8
   5   1  -5 36922.8 815.703   8
   5   1  -5 34424.4 675.815   4
  -5  -1  -4 173.974 26.6115   4
  -5   1  -4 177.130 23.8153   9
   5   1  -4 234.515 34.0468   9
   5   1  -4 205.855 30.3415   4
   5  -1  -4 309.070 48.0744   9
  -5   1  -4 202.312 33.2732   4
   5  -1  -4 222.211 52.7759   8
  -5  -1  -4 422.885 64.9620   8
  -5  -1  -3 67647.9 1219.12   8
  -5   1  -3 69509.4 1118.09   9
  -5   1  -3 66861.4 1151.31   4
  -5   1  -3 68715.0 1150.01   1
  -5  -1  -3 63845.6 1126.27   4
   5   1  -3 66704.9 1186.34   3
   5  -1  -3 66215.7 1235.03   7
  -5  -1  -3 64678.9 1235.44   7
  -5   1  -3 65865.5 1095.24   3
   5  -1  -3 68100.0 1138.87   5
   5  -1  -3 66308.8 1233.93   8
   5   1  -3 65922.1 1136.83   9
   5   1  -3 65418.3 1129.94   4
   5  -1  -2 148.956 32.8155   7
   5   1  -2 98.0879 26.2815   3
  -5  -1  -2 121.336 20.2660   6
  -5  -1  -2 209.888 26.7588  10
  -5  -1  -2 229.298 39.2293   7
   5  -1  -2 99.9458 30.6353   8
  -5  -1  -2 195.127 32.3193   8
   5   1  -2 198.072 26.2000   9
   5   1  -2 126.995 17.3172   5
  -5   1  -2 131.479 15.1361   3
   5  -1  -2 128.203 22.7204   5
  -5  -1  -2 144.051 18.8601   4
  -5  -1  -2 145.285 18.3516   1
   5  -1  -1 38576.7 686.199   7
  -5  -1  -1 38880.9 638.534   1
   5   1  -1 38723.3 676.213   9
  -5   1  -1 39367.9 675.004   9
   5   1  -1 37201.0 649.078   5
  -5  -1  -1 39176.2 683.892  10
  -5  -1  -1 39084.3 688.888   7
  -5   1  -1 38910.9 653.892  10
   5  -1  -1 39788.3 686.889   5
   5   1  -1 38757.4 686.772   3
  -5  -1  -1 39106.1 673.754   6
   5   1   0 9473.03 196.545   3
   5   1   0 9212.43 203.525   9
   5  -1   0 9476.12 250.365   2
  -5  -1   0 9219.04 221.755   6
   5   1   0 9903.11 213.653   5
  -5  -1   0 9213.82 235.605  10
   5  -1   0 9568.62 239.758   5
  -5   1   0 9128.41 213.821   9
  -5   1   0 9903.76 210.257  10
   5  -1   1 40444.6 718.640   5
   5   1   1 38141.2 665.009   5
   5   1   1 39395.0 694.020   9
  -5   1   1 38594.7 667.133  10
  -5   1   1 40092.4 704.085   2
  -5  -1   1 39891.2 724.158  10
   5   1   1 38986.7 673.221   6
  -5   1   2 98.0173 20.0907  10
   5   1   2 87.4961 16.8865   6
   5  -1   2 113.859 23.9298   5
  -5  -1   2 151.542 26.9358  10
   5   1   3 61920.0 1039.79   6
  -5  -1   3 61579.0 1058.71  10
  -5   1   3 63597.0 1051.67  10
  -5  -1   4 240.271 32.8401   1
   5   1   4 215.645 29.8774   1
   5   1   4 210.749 27.3138   6
  -5   1   4 281.103 35.2404  10
   5  -1   4 235.639 27.2856  10
  -5  -1   4 233.995 34.2541  10
   5   1   5 32882.1 645.201  10
  -5   1   5 34343.4 654.273  10
  -5  -1   5 33229.6 649.416  10
   5  -1   5 33050.1 621.797  10
  -5   1   6 112.594 33.4872  10
   5  -1   6 94.7256 26.3167  10
   5   1   6 98.8996 30.2097  10
  -5  -1   6 162.483 37.2826  10
   5   1   7 24132.1 543.641  10
  -5  -1   7 24380.3 550.826  10
   5  -1   7 24439.3 526.615  10
  -5   1   7 25199.5 561.704  10
  -5   1   8 180.053 54.8740  10
   5   1   8 144.997 45.8429  10
  -5  -1   8 151.563 43.8810  10
   5   1   9 11137.7 358.915  10
  -5   1   9 12247.2 385.331  10
  -5  -1   9 11350.0 368.451  10
   5  -2  -9 3693.86 300.025   8
  -5  -2  -9 3424.85 276.505   8
   5   2  -9 3560.09 273.791   8
  -5   2  -9 3518.23 284.118   8
   5   2  -9 3209.86 183.289   4
   5   2  -8 207.182 42.1267   4
  -5  -2  -8 268.779 80.6502   8
   5   2  -8 146.648 69.1389   8
  -5   2  -8 247.251 89.7273   8
  -5   2  -8 152.856 45.3967   4
   5  -2  -8 185.881 76.5425   8
  -5   2  -7 6132.00 241.168   4
   5   2  -7 5706.14 207.001   9
   5  -2  -7 6162.73 343.950   8
  -5  -2  -7 6706.22 340.686   8
   5   2  -7 6252.94 323.599   8
  -5  -2  -7 6145.88 236.296   4
   5   2  -7 5848.89 220.341   4
   5   2  -6 112.590 47.4677   3
  -5  -2  -6 125.767 32.0165   4
   5   2  -6 110.875 33.4077   4
   5   2  -6 82.3758 32.5906   9
  -5   2  -6 121.734 37.6251   4
   5  -2  -6 94.9538 56.0715   8
  -5  -2  -6 238.244 67.8107   8
   5   2  -5 7766.67 224.461   4
  -5   2  -5 7691.78 242.710   4
  -5   2  -5 7535.19 207.157   9
   5  -2  -5 8568.56 340.983   8
   5   2  -5 7742.56 259.953   3
  -5  -2  -5 8126.23 335.155   7
  -5  -2  -5 7863.15 315.376   8
   5   2  -5 7591.77 222.666   9
  -5  -2  -5 8270.91 235.716   4
   5   2  -4 1991.41 90.6734   4
  -5   2  -4 2030.92 84.6167   3
   5   2  -4 1941.57 94.0696   9
  -5  -2  -4 2122.85 149.063   7
   5   2  -4 1987.14 109.909   3
   5  -2  -4 2249.71 152.985   8
  -5   2  -4 1955.28 104.670   4
  -5  -2  -4 2271.80 142.465   8
   5  -2  -4 2093.32 143.400   7
  -5   2  -4 2022.50 89.0968   9
  -5  -2  -4 2055.03 93.6730   4
  -5  -2  -3 26402.4 515.489   6
  -5   2  -3 25563.4 492.718   9
   5   2  -3 26755.2 487.249   4
   5   2  -3 25446.0 525.015   3
  -5   2  -3 25047.1 479.905   3
   5   2  -3 26537.7 507.922   9
   5  -2  -3 26391.7 593.261   7
  -5  -2  -3 26358.1 597.485   7
   5  -2  -3 26608.3 507.975   5
  -5  -2  -3 26087.9 487.106   4
   5   2  -2 344.799 35.5234   9
  -5   2  -2 417.305 38.1141   9
   5   2  -2 399.039 39.8863   3
   5   2  -2 421.237 29.1820   4
  -5  -2  -2 458.438 53.8062   7
  -5   2  -2 386.366 32.1909   3
   5  -2  -2 489.314 54.9806   7
  -5  -2  -2 410.514 39.4972   6
   5  -2  -2 425.912 39.1984   5
   5   2  -1 18279.9 356.514   9
  -5   2  -1 17850.5 357.424   9
   5   2  -1 18287.7 360.131   3
  -5  -2  -1 17662.6 364.143  10
   5  -2  -1 17730.2 392.651   7
   5  -2  -1 19222.6 373.319   5
  -5  -2  -1 18122.5 374.341   6
  -5  -2  -1 17868.0 396.586   7
   5  -2   0 64.8553 24.6660   7
  -5  -2   0 30.2664 21.5845   7
  -5  -2   0 48.2791 24.8956   6
  -5   2   0 57.0798 13.7033   6
  -5   2   0 61.9909 18.7642   9
  -5  -2   0 76.1469 27.4839  10
   5  -2   0 73.7594 28.5640   5
   5   2   0 38.8143 15.4321   9
   5   2   0 92.6877 16.8890   3
   5  -2   0 135.595 39.2399   2
   5  -2   1 21067.0 439.021   7
  -5  -2   1 20340.1 437.981   7
   5  -2   1 20835.9 346.748   6
   5   2   1 19986.5 403.313   6
   5   2   1 20579.0 338.956   1
  -5   2   1 21131.9 389.528   6
  -5   2   1 22481.1 461.819   2
   5  -2   1 21071.5 455.171   5
  -5   2   1 20215.6 397.460   9
   5   2   1 20070.5 371.326   9
  -5  -2   1 20297.2 446.116  10
  -5   2   1 19173.9 366.495  10
   5   2   1 19910.8 366.823   3
   5   2   2 357.019 34.5918   6
   5  -2   2 379.877 43.6155   5
   5   2   2 357.486 21.9291   3
  -5  -2   2 380.472 46.4532  10
  -5  -2   2 345.407 28.1698   1
  -5   2   2 356.702 37.6483   9
   5   2   2 403.866 25.1043   1
   5  -2   2 400.477 21.6154   6
   5   2   2 368.584 28.6560   9
  -5   2   2 371.623 43.0653   2
  -5   2   2 328.763 29.6263  10
   5  -2   3 23261.4 417.322  10
  -5  -2   3 23670.5 480.559  10
   5   2   3 24204.3 470.393   6
   5  -2   3 24557.9 486.267   5
   5   2   3 23812.3 440.659   1
  -5  -2   3 24489.4 460.222   1
  -5   2   3 23617.3 458.636  10
  -5  -2   4 1964.72 93.3043   1
   5  -2   4 1970.48 99.0483   5
  -5   2   4 1852.76 89.4901  10
   5   2   4 1905.33 83.9034   1
  -5  -2   4 1920.58 95.9944  10
  -5  -2   5 7946.19 230.721  10
  -5   2   5 7972.78 229.486  10
  -5  -2   6 60.1236 30.5235  10
   5   2   6 57.8856 27.3873  10
  -5   2   6 59.8848 28.5912  10
   5   2   7 5730.55 216.955  10
  -5  -2   7 5772.05 216.473  10
  -5   2   7 5815.18 219.646  10
  -5  -2   8 201.509 49.7435  10
  -5   2   8 153.960 50.1385  10
   5   2   8 227.154 52.9866  10
   5   2   9 3212.12 181.678  10
   5   3  -9 3977.73 206.575   4
   5   3  -8 38.8556 19.3646   4
  -5   3  -8 59.4148 41.7166   4
   5   3  -8 73.6262 53.7295   8
   5   3  -7 6304.44 232.854   4
  -5   3  -7 6470.83 257.446   4
   5   3  -7 6712.50 281.401   3
   5   3  -7 6449.84 232.252   9
  -5  -3  -6 664.703 112.585   7
  -5   3  -6 563.482 67.4875   4
  -5   3  -6 606.221 61.0383   9
   5   3  -6 619.093 63.1839   4
   5   3  -6 609.681 74.6693   3
   5  -3  -6 724.509 115.302   7
   5   3  -6 599.438 64.4058   9
   5   3  -5 10386.2 272.737   4
   5   3  -5 10526.9 283.871   9
  -5   3  -5 9992.28 269.735   9
  -5   3  -5 10425.1 306.221   4
   5  -3  -5 10595.3 394.024   7
  -5  -3  -5 10677.8 401.396   7
   5   3  -5 10187.5 308.654   3
   5  -3  -4 79.5607 47.7380   7
  -5  -3  -4 122.322 53.5114   7
   5   3  -4 65.2613 27.1403   9
  -5   3  -4 77.4952 24.4738   9
   5   3  -4 89.3287 34.8012   3
   5   3  -4 42.4525 17.0577   4
  -5   3  -4 87.4401 31.2240   4
  -5   3  -4 84.7610 23.4754   3
   5   3  -3 18879.7 402.965   9
  -5   3  -3 18790.9 399.624   9
  -5  -3  -3 19427.4 502.763   7
  -5   3  -3 18635.7 392.056   3
   5  -3  -3 18313.5 399.974   5
   5  -3  -3 18696.0 492.065   7
   5   3  -3 19655.9 377.077   4
   5   3  -3 18911.7 419.746   3
  -5  -3  -2 57.9606 32.3928   7
  -5   3  -2 71.0217 20.5356   3
   5   3  -2 56.1988 21.8791   3
   5   3  -2 57.9205 20.8198   9
   5   3  -2 63.4460 14.0630   4
  -5   3  -2 54.1973 22.2516   9
   5  -3  -2 73.1615 34.6293   7
   5  -3  -2 54.7898 21.1357   5
  -5  -3  -1 26301.0 530.341   6
   5   3  -1 25591.2 492.996   9
   5   3  -1 26499.0 441.702   1
  -5   3  -1 25352.9 498.491   9
  -5  -3  -1 25609.6 575.060   7
   5   3  -1 25608.2 441.955   4
   5  -3  -1 26035.3 506.445   5
  -5  -3  -1 26055.2 502.729  10
   5  -3  -1 26415.4 573.280   2
   5  -3  -1 26655.9 577.873   7
   5   3  -1 25608.7 501.461   3
   5  -3   0 981.239 48.7358   6
   5   3   0 955.638 54.9061   3
   5   3   0 963.401 53.7703   9
   5  -3   0 1088.01 94.5006   2
  -5   3   0 950.426 57.7433   9
  -5  -3   0 1031.71 84.8969   7
   5  -3   0 998.711 82.0744   7
   5  -3   0 1069.84 68.9799   5
  -5   3   0 993.217 53.9461   6
  -5  -3   0 981.704 63.3034  10
  -5  -3   0 1012.23 73.2293   6
   5   3   1 26311.7 510.728   6
  -5  -3   1 25468.3 543.290   6
   5   3   1 25312.8 454.640   9
   5  -3   1 24602.0 440.478   6
  -5   3   1 24803.2 477.889   6
   5   3   1 24538.5 458.347   3
  -5   3   1 23986.5 471.421   9
   5  -3   1 24181.3 528.650   5
  -5  -3   1 24400.3 513.724  10
  -5   3   1 24120.5 439.610  10
   5  -3   1 25633.4 561.913   7
  -5  -3   1 24997.9 561.991   7
  -5   3   2 89.0805 17.7842  10
   5  -3   2 113.217 15.0321   6
  -5   3   2 99.4039 25.2913   6
  -5  -3   2 128.440 35.3150  10
   5  -3   2 59.5590 30.7811   5
   5   3   2 72.7541 15.1181   9
   5   3   2 104.108 16.9578   3
  -5   3   2 82.9412 19.5399   9
   5  -3   3 20424.4 454.040   5
  -5   3   3 19564.4 395.314   9
  -5  -3   3 20784.2 460.763  10
  -5   3   3 19567.1 397.710  10
  -5   3   4 60.4790 24.5935  10
  -5  -3   4 72.5809 31.8126  10
   5  -3   4 87.7979 31.1409   5
  -5  -3   5 11107.5 302.989  10
   5  -3   5 11314.4 310.521   5
  -5   3   5 10977.5 288.385  10
   5   3   6 591.137 65.4727  10
   5  -3   6 686.748 71.5507   5
  -5  -3   6 661.018 68.0635  10
  -5   3   6 734.212 70.6540  10
   5   3   7 6144.23 233.816  10
   5  -3   7 6151.59 237.813   5
  -5   3   7 6210.30 230.538  10
  -5   3   8 2.89341 43.8040  10
   5  -3   8 73.4671 37.1612   5
   5   3   8 31.6134 42.3850  10
   5   4  -8 143.387 53.3854   3
   5   4  -8 63.5714 35.6420   9
  -5   4  -8 197.527 51.3891   4
  -5   4  -7 16877.4 472.329   4
  -5   4  -7 16734.1 429.332   9
   5   4  -7 15839.7 431.660   9
   5   4  -7 16204.9 484.685   3
   5  -4  -7 17049.8 626.322   7
  -5  -4  -7 16703.5 631.592   7
  -5  -4  -6 183.197 74.2292   7
   5   4  -6 139.219 39.4006   9
   5   4  -6 193.542 51.3896   3
  -5   4  -6 159.791 44.5838   4
  -5   4  -6 348.139 53.3776   9
   5  -4  -6 355.453 84.3445   7
  -5   4  -5 23967.7 531.395   3
   5   4  -5 23125.1 526.098   9
  -5   4  -5 23449.9 522.068   9
   5  -4  -5 25454.9 698.123   7
  -5  -4  -5 25302.4 706.941   7
   5   4  -5 23651.6 558.581   3
  -5   4  -5 24062.0 561.940   4
  -5   4  -4 1085.45 78.4397   3
   5   4  -4 1086.31 87.3438   3
  -5   4  -4 1053.57 86.6954   4
   5   4  -4 1060.78 80.2495   9
   5  -4  -4 1181.44 124.227   7
  -5  -4  -4 1197.00 124.808   7
  -5   4  -4 1050.45 78.0714   9
  -5  -4  -3 39389.6 882.049   7
   5   4  -3 38026.5 730.824   9
  -5   4  -3 38810.2 736.275   9
   5  -4  -3 38996.6 874.281   7
  -5   4  -3 38452.7 733.832   3
   5  -4  -3 37434.0 726.871   5
   5   4  -3 37793.1 751.900   3
   5   4  -2 1894.30 93.6773   9
   5   4  -2 1850.03 100.008   3
  -5   4  -2 1842.68 95.2090   9
   5  -4  -2 1983.51 141.177   7
   5  -4  -2 1968.77 94.3691   5
  -5   4  -2 1854.84 95.8623   3
  -5  -4  -2 1957.16 141.127   7
   5   4  -1 36670.5 698.261   3
   5   4  -1 36903.4 682.280   9
  -5   4  -1 36275.0 700.793   3
  -5   4  -1 36449.7 689.169   9
   5  -4  -1 38036.0 810.684   7
  -5  -4  -1 36862.8 688.037  10
   5  -4  -1 36531.7 687.113   5
  -5  -4  -1 37454.3 816.782   7
  -5  -4   0 147.593 27.8982  10
   5  -4   0 144.213 44.3515   7
  -5  -4   0 105.323 44.0995   7
   5  -4   0 227.486 27.7205   6
  -5   4   0 223.304 32.6744   6
   5   4   0 144.024 26.0827   9
  -5   4   0 179.648 30.2664   9
   5   4   0 137.412 26.4152   3
   5  -4   0 252.003 34.0015   5
   5   4   1 36321.9 634.061   9
  -5   4   1 33803.9 666.565   6
   5  -4   1 33310.4 623.604   6
   5   4   1 34997.2 645.089   3
   5  -4   1 34804.9 691.421   5
  -5   4   1 35102.3 651.438   9
  -5  -4   1 35367.2 674.002  10
   5  -4   1 36846.4 784.788   7
  -5  -4   1 35737.0 781.878   7
   5  -4   2 1878.29 136.923   7
  -5  -4   2 1838.29 135.472   7
  -5   4   2 1766.59 82.9491   9
   5  -4   2 1861.57 115.265   5
   5   4   2 1786.39 78.2229   3
  -5  -4   2 1810.00 106.911  10
  -5   4   2 1786.13 73.8714  10
   5  -4   3 37760.5 787.959   5
  -5  -4   3 36556.0 771.534  10
  -5   4   3 36759.9 676.331  10
   5  -4   4 921.653 86.0191   5
  -5   4   4 923.149 66.2434  10
  -5   4   5 22253.5 484.705  10
  -5   4   6 187.738 42.7921  10
   5   4   6 125.036 34.4192  10
   5   4   7 16300.2 439.185  10
  -5   4   7 15905.0 425.120  10
  -5   4   8 103.523 40.3433  10
   5   4   8 136.010 53.3825  10
   5   5  -7 0.88486 38.8130   9
  -5   5  -7 24.6786 36.8393   9
   5  -5  -7 102.439 73.1061   7
  -5  -5  -7 10.4503 73.6155   7
   5   5  -7-48.9360 34.3711   3
  -5   5  -7 30.2867 24.5304   4
   5  -5  -6 181.969 85.7618   7
  -5   5  -6 90.6530 40.2268   9
   5   5  -6 210.456 55.0407   3
  -5  -5  -6 113.567 74.2363   7
   5   5  -6 156.014 49.0899   9
  -5   5  -6 246.418 55.1458   4
   5   5  -5 782.678 86.1803   3
  -5   5  -5 652.813 71.7575   3
  -5   5  -5 692.582 74.0417   9
  -5   5  -5 825.399 86.0709   4
   5  -5  -5 763.198 122.739   7
  -5  -5  -5 854.464 127.330   7
   5   5  -5 745.512 79.0157   9
  -5  -5  -4 31.8896 47.9493   7
   5   5  -4 7.23650 28.7214   3
   5   5  -4 26.3811 31.2487   9
  -5   5  -4 135.262 41.2062   9
  -5   5  -4 35.0882 28.2218   3
   5  -5  -4 7.26927 42.3114   7
   5   5  -3 670.250 68.9573   3
   5   5  -3 545.589 61.0008   9
  -5   5  -3 583.864 61.1051   9
  -5   5  -3 574.371 61.4365   3
  -5  -5  -3 861.287 117.496   7
   5  -5  -3 685.226 103.839   7
   5  -5  -2 70.3842 42.7342   7
   5   5  -2 80.8834 30.6244   9
  -5   5  -2 82.6233 32.5315   9
   5   5  -2 74.6456 29.8017   3
  -5  -5  -2 65.1423 43.8224   7
  -5   5  -2 72.7048 31.0524   3
   5  -5  -2 55.3692 18.8645   5
  -5   5  -1 1807.29 104.771   3
   5   5  -1 1836.97 95.3121   9
   5   5  -1 1901.45 105.865   3
  -5   5  -1 1819.64 99.5288   9
  -5  -5  -1 2212.23 164.463   7
   5  -5  -1 2159.34 160.184   7
   5  -5  -1 1950.58 96.4232   5
  -5  -5   0 129.181 29.5775  10
   5  -5   0 79.8157 45.6296   7
  -5  -5   0 71.9611 46.4816   7
   5  -5   0 49.1805 18.2663   5
   5   5   0 45.7114 24.0606   9
  -5   5   0 56.8781 25.9451   9
   5   5   0 54.1814 26.1441   3
  -5   5   0 62.0652 27.4007   3
   5  -5   1 2049.03 155.640   7
  -5   5   1 1911.65 95.1418   9
   5   5   1 2009.66 98.6404   3
  -5  -5   1 1918.05 153.156   7
   5  -5   2 142.971 59.6764   7
  -5  -5   2 82.7265 48.8312   7
  -5   5   2 81.2249 23.2796   9
   5   5   2 43.4747 17.7416   3
   5  -5   3 751.845 102.190   7
  -5  -5   3 749.945 99.9884   7
   5  -5   4 27.9970 43.8444   7
  -5  -5   4 56.8409 54.0158   7
  -5   5   6 167.817 42.6534  10
   5   5   6 132.385 40.9812  10
  -5   5   7-15.0207 31.9098  10
   5   5   7 103.492 46.1101  10
  -5  -6  -6 73.3060 78.8789   7
   5   6  -6 186.399 58.7186   3
   5  -6  -6 68.1652 79.1644   7
   5   6  -6 104.018 43.7583   9
  -5   6  -6 98.8447 45.6650   9
  -5   6  -6 86.1454 40.0351   4
   5   6  -5 15416.8 431.666   9
  -5   6  -5 15989.3 458.906   4
  -5   6  -5 15696.5 447.114   3
   5  -6  -5 17172.6 620.804   7
  -5  -6  -5 16452.5 618.956   7
   5   6  -5 16669.0 471.160   3
  -5   6  -5 15864.5 437.326   9
  -5  -6  -4 201.827 69.9607   7
   5   6  -4 201.282 50.0037   3
   5   6  -4 241.604 51.4372   9
  -5   6  -4 247.204 53.7850   9
  -5   6  -4 239.105 51.8600   4
  -5   6  -4 248.057 50.8735   3
   5  -6  -4 257.282 87.7408   7
   5   6  -3 26228.0 603.708   3
  -5   6  -3 25771.2 580.796   9
  -5   6  -3 25146.9 587.872   3
  -5  -6  -3 28520.7 796.440   7
   5   6  -3 24302.7 565.175   9
   5  -6  -3 28481.9 785.215   7
   5   6  -2 1256.39 98.0857   3
   5   6  -2 1102.83 84.9724   9
  -5   6  -2 1173.43 93.4146   9
  -5  -6  -2 1500.26 154.117   7
  -5   6  -2 1184.82 94.1995   3
   5  -6  -2 1363.75 144.867   7
   5   6  -1 23398.0 528.111   3
   5   6  -1 21938.6 494.441   9
  -5   6  -1 22607.0 507.536   9
  -5   6  -1 22205.7 526.096   3
   5  -6  -1 24660.9 687.380   7
  -5  -6  -1 25070.3 697.960   7
   5  -6   0 306.695 75.6684   7
  -5  -6   0 324.808 79.4742   7
   5   6   0 367.986 46.8995   9
   5   6   0 345.424 50.4459   3
  -5   6   0 348.665 46.6881   9
  -5   6   0 318.550 49.8007   3
  -5  -6   1 23429.6 666.531   7
  -5   6   1 22068.8 523.040   3
   5   6   1 22223.6 494.593   3
   5  -6   1 24050.0 659.585   7
  -5   6   1 21688.3 478.482   9
   5  -6   2 1373.00 146.467   7
  -5  -6   2 1212.44 136.702   7
   5  -6   3 26692.4 752.989   7
  -5  -6   3 25584.8 739.195   7
   5  -6   4 277.868 76.8696   7
  -5  -6   4 202.970 65.1014   7
   5  -6   5 16976.9 615.737   7
  -5  -6   5 16282.2 587.939   7
   5   6   6 106.725 41.2074  10
  -5  -6   6 110.680 69.0263   7
   5  -6   6 153.565 71.1909   7
  -5   7  -5 2479.60 164.322   3
   5  -7  -4 174.880 86.1489   7
  -5  -7  -4 100.624 74.4465   7
   5   7  -4 80.8208 36.6430   3
   5   7  -4 121.632 47.7487   9
  -5   7  -4 81.4933 39.5812   9
  -5   7  -4 114.878 43.9777   4
  -5   7  -4 236.793 56.8384   3
   5   7  -3 4596.02 218.831   3
   5   7  -3 4382.76 197.816   9
  -5   7  -3 4452.81 203.206   9
  -5   7  -3 4331.88 209.146   3
   5  -7  -3 5134.92 325.943   7
  -5  -7  -3 4798.90 321.981   7
  -5  -7  -2 29.5789 49.8156   7
   5   7  -2 61.9370 37.8680   9
  -5   7  -2 83.7858 45.6676   9
   5   7  -2 44.0989 32.3521   3
  -5   7  -2 88.7508 42.0614   3
   5  -7  -2 81.4462 56.6149   7
   5   7  -1 3782.91 183.517   3
   5   7  -1 3762.61 165.799   9
  -5   7  -1 3765.20 172.045   9
  -5   7  -1 3768.16 186.639   3
   5  -7  -1 4240.20 277.963   7
  -5  -7  -1 4226.16 283.574   7
  -5  -7   0 133.754 69.4332   7
  -5   7   0 177.745 42.2619   9
   5   7   0 206.070 47.9838   3
   5  -7   0 193.432 68.7934   7
  -5   7   0 185.062 49.0765   3
   5   7   1 4358.55 186.469   3
   5  -7   1 4439.27 275.025   7
  -5   7   1 4161.34 195.912   3
  -5  -7   1 4404.34 277.475   7
   5  -7   2 26.0219 54.6987   7
  -5  -7   2 27.8940 43.4962   7
  -5   7   2 73.8091 34.8969   3
  -5   7   3 4477.53 209.156   3
   5  -7   3 5012.78 310.525   7
  -5  -7   3 4423.33 291.445   7
   5  -7   4 239.415 87.9616   7
  -5  -7   4 170.224 85.2866   7
   5   8  -2 99.2792 46.4832   9
  -5   8  -2 49.2768 37.8587   9
   5   8  -1 11214.4 369.091   3
  -5   8  -1 10066.1 331.315   9
   5  -8  -1 11854.6 516.518   7
  -5   8  -1 10710.9 364.341   3
  -5  -8  -1 11838.8 522.006   7
  -5   8   0 143.173 42.4323   3
   5   8   0 41.8955 31.5389   3
  -5  -8   0 54.4971 62.3645   7
   5  -8   0 58.2986 62.9334   7
  -5  -8   1 10936.4 489.471   7
   5  -8   1 11914.7 505.275   7
  -5   8   1 10761.7 364.936   3
  -5   8   2 73.4475 30.2665   3
  -6   0  -9 5649.97 339.291   8
   6   0  -9 5920.54 355.627   8
  -6   0  -9 5683.50 262.593   4
  -6   0  -8 10521.8 352.300   4
   6   0  -8 10990.4 463.265   8
  -6   0  -8 11310.4 461.115   8
  -6   0  -7 6894.44 255.799   4
   6   0  -7 7295.22 343.465   8
  -6   0  -7 8043.31 353.330   8
  -6   0  -6 18102.7 445.940   4
   6   0  -6 19377.6 559.412   8
  -6   0  -6 19316.5 558.344   8
   6   0  -5 16108.5 375.764   9
  -6   0  -5 16023.9 383.382   4
   6   0  -5 16360.4 468.462   8
  -6   0  -5 17131.1 478.219   8
   6   0  -4 28287.7 566.299   9
  -6   0  -4 28505.4 563.787   4
  -6   0  -4 28502.4 507.091   9
   6   0  -4 28487.0 642.363   8
  -6   0  -4 30574.5 658.657   8
  -6   0  -3 38211.1 717.838   4
  -6   0  -3 40138.0 685.578   9
   6   0  -3 40140.0 738.715   9
   6   0  -3 40112.7 781.803   8
   6   0  -3 40289.5 711.152   5
  -6   0  -3 39201.6 717.039   1
   6   0  -2 13281.3 299.243   9
  -6   0  -2 12187.5 263.999   4
   6   0  -2 13110.6 299.208   8
  -6   0  -2 12219.4 262.496  10
   6   0  -2 12348.5 262.470   5
  -6   0  -2 12849.5 260.124   9
   6   0  -1 59388.1 1043.84   9
  -6   0  -1 58493.6 957.920   6
   6   0  -1 58145.8 996.499   5
  -6   0  -1 58277.0 998.089  10
   6   0   0 15303.4 321.792   2
   6   0   0 15392.5 341.451   5
  -6   0   0 15703.3 345.395  10
  -6   0   1 56542.2 967.529  10
   6   0   1 54423.8 964.376   5
  -6   0   1 56814.5 945.336   2
   6   0   2 13553.3 289.617   5
  -6   0   2 13045.5 286.473  10
   6   0   2 14053.8 251.608   6
   6   0   3 39916.4 672.803   6
  -6   0   3 38640.7 713.553  10
   6   0   4 26874.4 497.226   6
  -6   0   4 27643.1 537.046  10
  -6   0   5 16613.1 381.576  10
   6   0   5 16477.4 364.711  10
   6   0   6 17000.4 394.372  10
  -6   0   6 17696.1 415.849  10
   6   0   7 6846.00 227.459  10
  -6   0   7 7160.30 245.932  10
   6   0   8 10268.2 312.157  10
  -6   0   8 10632.6 335.016  10
   6   0   9 4933.04 218.027  10
  -6   0   9 5485.46 243.261  10
  -6  -1  -9 413.938 69.4580   4
  -6   1  -9 454.980 75.5162   4
   6  -1  -9 550.769 122.164   8
   6   1  -9 584.739 116.182   8
  -6   1  -9 473.032 114.835   8
  -6  -1  -9 593.092 124.654   8
  -6  -1  -8 131.039 43.7966   4
  -6   1  -8 37.6583 30.9885   4
   6  -1  -8 156.662 80.4084   8
  -6  -1  -8 49.2601 49.5341   8
   6   1  -8 185.442 80.2510   8
  -6   1  -8 119.895 77.1180   8
  -6  -1  -7 570.077 70.8192   4
  -6   1  -7 442.094 64.4236   4
   6  -1  -7 356.529 89.0272   8
  -6  -1  -7 503.050 94.5699   8
   6   1  -7 348.857 83.3974   8
  -6   1  -7 386.308 85.2519   8
  -6  -1  -6 2376.31 127.799   4
   6   1  -6 2314.91 116.308   9
   6  -1  -6 2315.96 177.851   8
  -6  -1  -6 2288.58 172.323   8
   6   1  -6 2266.66 169.573   8
  -6   1  -6 2656.82 188.555   8
  -6   1  -6 2364.99 132.508   4
  -6  -1  -5 304.531 41.0768   4
  -6   1  -5 415.025 49.8291   4
  -6   1  -5 285.114 32.2147   9
   6  -1  -5 394.650 59.7304   9
   6   1  -5 337.269 43.2781   9
   6  -1  -5 338.955 72.1156   8
  -6  -1  -5 335.331 67.2790   8
   6   1  -5 353.547 65.9628   8
   6  -1  -4 3370.29 157.180   9
  -6  -1  -4 3327.16 123.567   4
   6   1  -4 3109.95 121.538   9
  -6  -1  -4 3566.12 173.368   8
   6   1  -4 3578.86 175.403   8
   6  -1  -4 3390.58 175.233   8
  -6   1  -4 3054.75 104.894   9
  -6   1  -4 3356.51 134.782   4
   6   1  -3 2258.76 95.1901   9
  -6  -1  -3 2296.28 88.4701   4
  -6   1  -3 2259.79 84.5873   9
  -6   1  -3 2287.65 99.5691   4
  -6  -1  -3 2271.51 66.7506   9
  -6   1  -3 2124.86 67.3302   3
   6  -1  -3 2374.24 130.027   8
  -6  -1  -3 2439.83 122.027   8
   6  -1  -3 2169.01 91.5848   5
  -6   1  -2 17362.6 320.934   3
   6   1  -2 17435.2 357.545   9
  -6  -1  -2 17289.0 341.345   6
  -6  -1  -2 17710.7 330.774   4
  -6   1  -2 17136.4 342.885   9
  -6  -1  -2 17311.5 355.236  10
  -6  -1  -2 17737.4 328.572   1
   6  -1  -2 17112.0 391.827   8
  -6  -1  -2 19194.3 372.919   8
   6   1  -2 17181.4 380.833   3
   6  -1  -2 17280.3 353.595   5
   6   1  -2 17237.3 327.434   5
   6  -1  -2 18610.6 390.904   7
  -6  -1  -2 17363.6 390.163   7
  -6  -1  -1 1237.64 59.9585   6
   6   1  -1 1255.90 63.7591   9
  -6  -1  -1 1288.56 67.8081  10
  -6   1  -1 1307.78 63.8103   9
  -6  -1  -1 1335.48 63.1714   7
  -6   1  -1 1275.94 56.0240  10
   6  -1  -1 1383.36 71.1132   5
   6   1  -1 1282.84 53.4831   5
   6   1  -1 1311.62 68.7030   3
   6  -1  -1 1338.62 61.8153   7
   6   1   0 16120.4 334.772   9
   6   1   0 16721.7 344.241   5
   6  -1   0 17220.6 383.207   2
  -6  -1   0 15357.0 364.461  10
   6  -1   0 16667.1 373.183   5
   6   1   0 16852.7 324.460   3
  -6   1   0 17106.3 344.603  10
  -6   1   1 1345.63 73.3296   2
   6   1   1 1339.56 73.1636   9
   6   1   1 1230.31 55.6372   5
   6  -1   1 1374.68 79.9463   5
   6   1   1 1359.69 60.0114   6
   6   1   1 1287.21 49.4043   3
  -6  -1   1 1282.66 81.6667  10
  -6   1   1 1222.47 56.4428  10
   6   1   2 19052.8 354.588   6
   6  -1   2 19323.9 389.117   5
  -6  -1   2 17982.0 383.921  10
  -6   1   2 17918.1 360.611  10
   6   1   3 2119.63 80.4746   6
   6  -1   3 2154.35 95.6157   5
  -6  -1   3 2032.51 92.2517  10
  -6   1   3 2020.62 86.7392  10
   6   1   4 2941.82 106.522   6
  -6   1   4 3011.79 118.560  10
  -6  -1   4 3020.71 121.663  10
   6  -1   5 309.544 36.1767  10
  -6   1   5 300.103 43.9062  10
  -6  -1   5 280.564 42.4119  10
   6  -1   6 2161.89 104.311  10
   6   1   6 2133.30 113.187  10
  -6  -1   6 2211.59 119.763  10
  -6   1   6 2298.17 121.024  10
   6   1   7 507.429 63.1099  10
  -6  -1   7 469.256 62.7626  10
  -6   1   7 488.318 64.9059  10
  -6  -1   8 36.9701 33.1683  10
   6   1   8 49.3314 41.4976  10
  -6   1   8 70.8512 45.1451  10
  -6   1   9 422.674 74.3363  10
   6   1   9 416.267 69.5986  10
  -6  -1   9 440.150 73.8224  10
  -6  -2  -9 3736.50 279.013   8
   6   2  -9 4031.65 285.980   8
  -6   2  -9 3909.12 291.384   8
  -6   2  -8 5723.97 252.050   4
   6  -2  -8 5926.70 351.232   8
  -6  -2  -8 5680.68 325.165   8
   6   2  -8 5676.01 321.238   8
  -6   2  -8 5883.32 342.920   8
  -6  -2  -8 5724.21 247.794   4
   6   2  -8 5253.79 226.625   4
   6   2  -7 7207.73 242.997   9
   6   2  -7 7092.27 249.229   4
  -6   2  -7 7393.39 274.437   4
   6  -2  -7 7816.73 376.951   8
  -6  -2  -7 7982.27 364.706   8
   6   2  -7 7490.63 348.897   8
  -6  -2  -7 7365.46 265.769   4
  -6   2  -6 14365.7 391.691   4
   6  -2  -6 15694.4 515.801   8
  -6  -2  -6 15759.2 494.952   8
   6   2  -6 14297.2 360.817   9
   6   2  -6 14000.1 362.096   4
  -6  -2  -6 14674.4 380.431   4
   6   2  -5 10189.2 267.410   4
  -6  -2  -5 10286.2 275.392   4
   6   2  -5 9974.67 270.436   9
  -6   2  -5 9399.14 246.814   9
  -6   2  -5 10074.8 292.738   4
   6  -2  -5 10712.6 382.374   8
   6   2  -5 10007.7 312.728   3
  -6  -2  -5 11079.4 367.272   8
   6   2  -4 14756.4 328.557   4
  -6  -2  -4 15888.4 337.905   4
   6   2  -4 14492.0 341.445   9
  -6   2  -4 14816.8 313.561   3
  -6   2  -4 14212.6 323.064   9
  -6   2  -4 14594.1 361.558   4
   6  -2  -4 15701.0 445.860   8
  -6  -2  -4 15501.9 417.399   8
   6   2  -4 14629.0 372.495   3
   6  -2  -4 14793.6 428.560   7
  -6  -2  -4 15562.1 440.945   7
   6   2  -3 18283.3 359.015   4
  -6  -2  -3 18268.8 360.255   4
  -6   2  -3 17330.4 367.742   9
  -6  -2  -3 18285.4 389.324   6
   6   2  -3 17837.9 383.156   9
  -6   2  -3 17867.8 353.336   3
   6  -2  -3 18056.1 383.774   5
   6  -2  -3 18435.1 451.742   7
   6   2  -3 17738.6 402.618   3
  -6  -2  -3 18408.1 455.608   7
   6  -2  -2 25629.8 544.354   7
  -6   2  -2 25870.1 482.471   3
   6   2  -2 25401.7 501.622   9
  -6  -2  -2 26194.1 511.407   6
  -6   2  -2 26359.0 498.531   9
   6   2  -2 25438.3 512.225   3
  -6  -2  -2 25505.2 506.702  10
  -6  -2  -2 25378.3 548.349   7
   6  -2  -2 26124.7 506.344   5
   6   2  -2 26527.6 464.046   4
  -6  -2  -2 27046.2 460.846   4
  -6  -2  -1 15550.3 336.361   6
   6   2  -1 15044.0 315.374   9
   6  -2  -1 15282.5 343.466   7
   6  -2  -1 16071.2 340.081   5
  -6  -2  -1 15000.4 344.087   7
  -6  -2  -1 14998.8 330.265  10
   6   2  -1 15028.9 318.866   3
  -6   2  -1 15229.7 318.692   9
   6   2   0 49818.2 857.291   3
  -6   2   0 51287.5 834.300   6
   6  -2   0 51669.9 964.387   2
   6   2   0 50918.4 862.395   9
   6   2   0 48981.1 849.881   5
  -6   2   0 48786.6 875.866   9
   6  -2   0 51916.3 925.821   5
  -6  -2   0 49680.9 910.519   6
  -6   2   0 49892.6 845.403  10
  -6  -2   0 49113.4 900.918   7
   6  -2   0 50508.0 897.155   7
  -6  -2   0 49019.7 907.685  10
   6  -2   1 14312.8 329.961   7
  -6  -2   1 13845.2 328.031   7
   6   2   1 13963.4 270.253   3
   6   2   1 14287.4 309.778   6
   6   2   1 13498.4 281.194   9
  -6   2   1 15532.0 365.269   2
  -6   2   1 14776.8 289.930   6
  -6   2   1 13121.9 272.529  10
   6  -2   1 14573.9 360.960   5
  -6   2   1 13756.5 308.513   9
  -6  -2   1 14393.6 251.608   1
  -6  -2   1 14440.7 353.578  10
   6   2   2 25952.1 444.344   1
   6   2   2 25149.9 440.807   3
   6  -2   2 25446.6 420.738   6
   6   2   2 25076.0 491.475   6
   6  -2   2 26241.5 534.141   5
  -6  -2   2 26617.7 463.473   1
  -6   2   2 26718.5 528.363   2
   6   2   2 25490.3 478.288   9
  -6  -2   2 26383.5 539.601  10
  -6   2   2 25372.5 474.714  10
   6  -2   3 17045.3 319.373  10
   6   2   3 17195.0 366.252   6
   6  -2   3 18280.1 395.696   5
   6   2   3 17445.2 337.397   1
  -6  -2   3 17440.7 388.230  10
  -6  -2   3 17830.0 356.946   1
  -6   2   3 17366.7 359.621  10
  -6  -2   4 15580.7 361.950  10
   6   2   4 15483.2 331.824   1
   6  -2   4 15616.6 368.360   5
  -6  -2   4 15855.0 351.055   1
  -6   2   4 15959.7 351.341  10
   6  -2   5 10218.1 282.863   5
  -6  -2   5 9945.88 274.702  10
  -6   2   5 9551.18 265.679  10
   6   2   6 14616.3 369.295  10
  -6  -2   6 14183.4 367.951  10
  -6   2   6 14533.1 368.283  10
   6   2   7 6718.41 240.016  10
  -6   2   7 6814.30 242.721  10
  -6  -2   7 6870.99 244.012  10
   6   2   8 5492.49 226.833  10
  -6  -2   8 5206.09 226.303  10
  -6   2   8 5658.19 234.207  10
  -6  -2   9 3281.94 187.233  10
   6   3  -9 2042.94 144.035   4
  -6   3  -8 4545.67 228.164   4
   6   3  -8 4561.68 294.444   8
   6   3  -8 4205.89 198.932   4
   6   3  -7 3565.48 166.162   4
  -6   3  -7 3642.64 189.614   4
   6   3  -7 3635.70 207.498   3
   6   3  -7 3496.63 166.789   9
   6   3  -6 9627.62 278.390   4
   6   3  -6 9484.21 285.785   9
  -6   3  -6 9746.57 312.751   4
  -6   3  -6 9365.08 268.976   9
   6   3  -6 9404.32 323.156   3
   6  -3  -6 9789.88 404.398   7
  -6  -3  -6 10486.2 425.291   7
   6   3  -5 6901.48 208.160   4
   6   3  -5 6862.67 221.552   9
  -6   3  -5 6646.64 208.349   9
  -6   3  -5 6901.47 243.176   4
   6  -3  -5 7234.07 310.056   7
  -6  -3  -5 7687.82 324.164   7
   6   3  -5 6762.05 245.765   3
   6   3  -4 7500.61 201.191   4
   6   3  -4 7269.78 219.722   9
  -6   3  -4 7313.85 213.580   9
  -6   3  -4 7436.78 208.775   3
  -6   3  -4 7272.79 240.827   4
   6   3  -4 7415.20 239.988   3
   6  -3  -4 7779.18 297.800   7
  -6  -3  -4 7813.18 303.127   7
   6   3  -3 13552.8 279.780   4
   6   3  -3 12800.5 309.039   9
  -6   3  -3 13060.5 306.510   9
  -6   3  -3 12896.7 299.038   3
   6  -3  -3 12981.0 311.277   5
   6   3  -3 12735.0 324.955   3
   6  -3  -3 13294.5 382.152   7
  -6  -3  -3 13999.9 395.985   7
   6   3  -2 18025.6 390.180   9
   6   3  -2 18506.2 403.064   3
  -6   3  -2 18552.8 391.799   9
   6  -3  -2 18813.8 398.354   5
  -6  -3  -2 18653.1 398.679  10
   6  -3  -2 19845.8 471.867   7
  -6  -3  -2 19958.8 475.460   7
  -6   3  -2 18225.5 385.379   3
  -6   3  -1 18715.0 353.776   6
  -6  -3  -1 17252.5 393.531   6
   6   3  -1 16864.1 357.517   9
  -6   3  -1 16509.8 362.404   9
   6  -3  -1 17574.2 380.760   5
  -6  -3  -1 16575.9 370.029  10
   6  -3  -1 17478.0 423.133   7
   6   3  -1 16819.2 363.605   3
  -6  -3  -1 17159.2 424.223   7
   6   3   0 24742.6 479.754   3
  -6  -3   0 25484.1 535.029   6
  -6   3   0 25411.4 470.723   6
   6   3   0 25246.4 478.745   9
   6  -3   0 25735.6 551.820   7
  -6   3   0 23696.1 487.496   9
  -6  -3   0 24283.8 509.308  10
   6  -3   0 26219.1 528.605   5
  -6  -3   0 25549.0 555.355   7
   6   3   1 16793.5 330.100   9
   6   3   1 16852.0 330.802   3
  -6   3   1 16477.0 345.475   6
   6  -3   1 17268.5 309.592   6
  -6   3   1 15865.0 350.142   9
   6  -3   1 16197.3 404.508   5
  -6  -3   1 16071.6 392.711  10
  -6   3   1 16186.9 314.700  10
   6  -3   1 17477.9 418.831   7
  -6  -3   1 17770.1 424.997   7
   6  -3   2 17820.5 433.851   7
  -6  -3   2 17288.7 423.690  10
   6   3   2 16377.3 323.169   9
  -6   3   2 17507.9 374.010   6
   6   3   2 16402.1 323.234   3
   6  -3   2 17530.6 431.053   5
  -6   3   2 17068.6 358.999   9
  -6   3   2 16962.6 337.563  10
  -6   3   3 13387.7 298.377  10
   6  -3   3 14062.5 359.346   5
  -6   3   3 13451.9 306.393   9
  -6  -3   3 13540.0 358.382  10
   6  -3   4 8189.17 252.036   5
  -6   3   4 7735.49 216.877  10
  -6  -3   4 8052.44 249.824  10
   6  -3   5 7442.33 246.054   5
  -6  -3   5 7297.60 238.341  10
  -6   3   5 7180.89 220.789  10
   6   3   6 8699.21 273.565  10
  -6  -3   6 8737.94 276.451  10
   6  -3   6 8639.09 281.345   5
  -6   3   6 8365.59 261.957  10
   6   3   7 3896.50 181.134  10
   6  -3   7 3528.45 179.078   5
  -6   3   7 3654.17 174.179  10
   6   3   8 4344.82 206.425  10
   6  -3   8 4457.52 214.387   5
  -6   3   8 4199.62 203.616  10
   6   4  -8 962.972 98.9439   9
   6   4  -8 943.420 116.456   3
  -6   4  -7 1437.68 121.459   4
  -6   4  -7 1332.81 103.125   9
   6   4  -7 1376.73 128.453   3
   6  -4  -7 1405.51 169.843   7
  -6  -4  -7 1631.13 197.545   7
   6   4  -7 1303.37 105.833   9
  -6   4  -6 1153.17 91.3296   9
  -6   4  -6 1222.35 106.245   4
   6   4  -6 1254.94 97.9600   9
   6  -4  -6 1214.09 146.368   7
  -6  -4  -6 1436.91 159.823   7
   6   4  -6 1054.77 103.625   3
   6   4  -5 3654.38 161.965   9
  -6   4  -5 3654.69 158.356   9
  -6   4  -5 3841.00 183.234   4
   6  -4  -5 3754.27 233.629   7
  -6  -4  -5 4019.66 245.372   7
   6   4  -5 3779.79 181.534   3
  -6   4  -4 2137.06 113.326   9
   6   4  -4 2295.54 129.684   3
  -6   4  -4 2175.90 112.685   3
   6   4  -4 2143.32 115.653   9
   6  -4  -4 2357.01 169.245   7
  -6  -4  -4 2391.57 172.682   7
   6   4  -3 3311.02 137.587   9
  -6   4  -3 3420.57 140.890   9
  -6   4  -3 3233.49 134.847   3
   6  -4  -3 3590.71 196.877   7
   6  -4  -3 3195.33 135.032   5
  -6  -4  -3 3792.84 206.254   7
   6   4  -3 3542.97 152.932   3
   6   4  -2 4280.52 159.848   3
   6   4  -2 4020.21 146.718   9
  -6   4  -2 3923.43 147.949   9
   6  -4  -2 4646.41 214.232   7
  -6   4  -2 3870.11 148.277   3
  -6  -4  -2 4575.62 213.495   7
   6  -4  -2 4080.42 149.173   5
   6   4  -1 2884.59 121.876   3
  -6   4  -1 2871.60 124.012   3
   6   4  -1 2730.91 112.221   9
  -6  -4  -1 2942.91 165.752   7
  -6  -4  -1 2888.86 120.802  10
   6  -4  -1 3110.79 167.557   7
   6  -4  -1 2840.00 121.057   5
  -6   4  -1 2631.82 114.476   9
  -6   4   0 1598.11 84.2880   6
   6   4   0 1548.51 81.5835   3
   6  -4   0 1537.13 71.5760   6
  -6   4   0 1558.70 84.4652   9
   6   4   0 1613.47 78.7404   9
   6  -4   0 1717.88 95.7930   5
  -6  -4   0 1522.28 87.4093  10
  -6  -4   0 1826.54 127.060   7
   6  -4   0 1637.03 118.877   7
  -6   4   1 2503.27 111.514   6
   6   4   1 2627.92 101.945   3
  -6   4   1 2493.24 106.374   9
   6  -4   1 2603.01 131.015   5
  -6  -4   1 2562.83 121.340  10
  -6  -4   1 2671.60 158.161   7
   6   4   1 2589.64 97.2431   9
   6  -4   1 2672.90 155.332   7
   6  -4   2 4879.92 218.366   7
  -6  -4   2 4580.92 214.155   7
   6   4   2 4279.19 131.461   3
  -6   4   2 4299.57 143.655   9
   6  -4   2 4183.49 186.299   5
  -6  -4   2 4293.53 180.567  10
   6  -4   3 3722.84 183.946   5
  -6  -4   3 3584.07 174.700  10
  -6   4   3 3365.04 121.639  10
   6  -4   4 2813.27 154.423   5
  -6   4   4 2318.49 107.964  10
   6  -4   5 3430.07 174.822   5
  -6   4   5 3329.05 142.490  10
   6   4   6 945.962 86.5971  10
  -6   4   6 894.982 79.2984  10
   6   4   7 1196.11 104.670  10
  -6   4   7 1371.89 105.665  10
  -6   4   8 977.775 99.6704  10
   6   5  -7 4884.55 223.163   9
  -6   5  -7 5053.05 245.468   4
  -6   5  -7 4893.17 217.675   9
   6  -5  -7 5447.04 345.305   7
  -6  -5  -7 5234.71 342.308   7
   6   5  -7 4920.20 249.400   3
   6   5  -6 10556.1 335.695   9
  -6   5  -6 10397.9 328.572   9
  -6   5  -6 10992.5 368.803   4
   6   5  -6 11360.3 375.727   3
   6  -5  -6 11719.9 485.009   7
  -6  -5  -6 11263.3 483.779   7
   6   5  -5 8364.92 275.933   9
  -6   5  -5 8215.56 277.775   3
  -6   5  -5 8211.42 273.110   9
  -6   5  -5 8706.15 306.287   4
   6   5  -5 8578.02 302.020   3
   6  -5  -5 9208.72 398.711   7
  -6  -5  -5 9046.54 401.336   7
   6   5  -4 20313.0 482.252   9
  -6   5  -4 20938.3 486.896   9
  -6   5  -4 20201.7 488.009   3
   6  -5  -4 21607.7 631.780   7
  -6  -5  -4 21784.0 637.718   7
   6   5  -4 21108.6 515.299   3
   6   5  -3 11848.4 325.096   9
  -6   5  -3 12414.2 334.305   9
   6  -5  -3 13347.7 454.745   7
  -6   5  -3 12614.1 338.995   3
   6  -5  -3 12490.5 325.918   5
  -6  -5  -3 13856.6 465.931   7
   6   5  -3 13211.6 357.118   3
   6   5  -2 16592.8 401.238   3
  -6  -5  -2 16464.1 500.263   7
   6   5  -2 15731.2 375.926   9
  -6   5  -2 15739.5 383.921   9
   6  -5  -2 15510.2 373.396   5
  -6   5  -2 15612.3 390.319   3
   6  -5  -2 17309.1 503.072   7
   6   5  -1 9372.56 265.589   3
   6   5  -1 8751.45 243.693   9
  -6   5  -1 8827.49 253.778   9
   6  -5  -1 9766.19 351.987   7
   6  -5  -1 9013.52 249.614   5
  -6  -5  -1 8946.89 249.460  10
  -6  -5  -1 9576.77 354.453   7
  -6   5  -1 8784.97 263.633   3
  -6   5   0 29144.4 624.036   3
   6   5   0 29186.0 579.884   9
   6   5   0 29932.5 602.231   3
  -6   5   0 28929.6 594.528   9
   6  -5   0 30913.8 725.151   7
  -6  -5   0 30210.5 599.297  10
   6  -5   0 30693.1 610.693   5
  -6  -5   0 30408.6 731.322   7
   6   5   1 8562.57 236.082   3
  -6   5   1 8254.15 233.207   9
   6  -5   1 8604.50 258.079   5
   6  -5   1 9225.97 341.588   7
  -6  -5   1 9142.74 343.800   7
  -6   5   2 15047.2 350.249   9
   6  -5   2 16331.3 488.421   7
  -6  -5   2 16241.7 488.054   7
   6  -5   3 14234.3 465.480   7
  -6  -5   3 12490.3 439.420   7
   6  -5   4 22526.4 643.814   7
  -6  -5   4 20149.5 609.367   7
   6   5   6 10002.7 318.212  10
  -6   5   6 9582.07 295.344  10
   6   5   7 4782.77 219.053  10
  -6   5   7 4657.89 206.814  10
   6  -6  -6 420.179 112.065   7
  -6  -6  -6 357.988 107.671   7
  -6   6  -6 532.464 78.7542   4
   6   6  -6 475.826 81.9963   3
   6   6  -6 347.405 64.7922   9
  -6   6  -6 315.147 61.4473   9
   6  -6  -5 81.9764 75.2691   7
   6   6  -5 304.518 68.5819   3
  -6  -6  -5 117.845 67.3052   7
   6   6  -5 352.748 65.3892   9
  -6   6  -5 302.548 60.7760   9
  -6   6  -5 276.966 60.0880   4
  -6   6  -5 255.353 52.4861   3
   6  -6  -4 419.993 94.5696   7
  -6  -6  -4 423.289 96.1872   7
   6   6  -4 464.376 65.3506   9
  -6   6  -4 423.700 66.7968   9
  -6   6  -4 493.829 68.0536   3
   6   6  -4 391.472 62.1606   3
   6   6  -3 837.087 86.1326   3
   6   6  -3 657.764 72.7211   9
   6  -6  -3 962.136 130.357   7
  -6   6  -3 556.077 67.8157   3
  -6   6  -3 638.499 73.9271   9
  -6  -6  -3 734.095 117.667   7
   6   6  -2 597.661 70.7178   3
   6   6  -2 535.357 64.1216   9
  -6   6  -2 459.537 59.0487   9
   6  -6  -2 473.220 91.3152   7
  -6   6  -2 531.562 67.4449   3
  -6  -6  -2 413.293 85.5812   7
  -6  -6  -1 321.652 81.3202   7
   6   6  -1 204.580 40.9241   9
  -6   6  -1 160.810 38.6720   9
   6   6  -1 204.738 43.4469   3
  -6   6  -1 245.258 48.1809   3
   6  -6  -1 264.221 75.2040   7
   6  -6   0 69.6266 48.7636   7
  -6  -6   0 97.3716 55.8301   7
   6   6   0 85.1696 29.4745   9
  -6   6   0 78.2922 30.8091   9
   6   6   0 82.1878 29.1140   3
  -6   6   0 56.1945 28.8476   3
  -6   6   1 210.361 46.4195   3
   6  -6   1 248.447 70.8670   7
  -6  -6   1 192.486 59.8344   7
   6   6   1 340.591 44.6915   3
  -6   6   1 237.818 41.0320   9
  -6  -6   2 501.790 94.3802   7
   6  -6   2 757.856 107.545   7
   6  -6   3 864.946 120.640   7
  -6  -6   3 753.438 114.042   7
   6  -6   4 651.087 114.632   7
  -6  -6   4 692.308 110.282   7
   6  -6   5 243.273 79.7534   7
  -6  -6   5 179.565 63.8675   7
   6   6   6 358.827 62.1170  10
  -6  -6   6 360.032 91.2324   7
   6  -6   6 420.449 105.536   7
  -6   7  -5 3963.20 213.031   3
  -6   7  -5 4033.36 218.646   4
   6   7  -4 6666.05 261.231   9
  -6   7  -4 6271.37 256.760   9
  -6   7  -4 6527.19 273.368   3
   6  -7  -4 7066.44 387.441   7
  -6  -7  -4 7171.21 396.507   7
   6   7  -4 6824.47 283.566   3
   6   7  -3 5134.17 234.613   3
   6   7  -3 4741.40 209.049   9
  -6   7  -3 5074.92 219.089   9
  -6   7  -3 4768.24 223.533   3
   6  -7  -3 6055.81 345.531   7
  -6  -7  -3 5628.13 339.488   7
   6   7  -2 8360.17 279.501   9
  -6   7  -2 8613.53 289.827   9
  -6  -7  -2 9786.65 433.548   7
   6   7  -2 9096.46 312.860   3
  -6   7  -2 8421.64 303.360   3
   6  -7  -2 9671.71 424.894   7
  -6  -7  -1 6953.86 358.797   7
   6   7  -1 6277.10 245.386   3
   6   7  -1 6102.59 220.618   9
  -6   7  -1 5786.00 224.916   9
   6  -7  -1 7192.61 354.734   7
  -6   7  -1 6198.92 249.167   3
  -6  -7   0 10983.1 449.257   7
   6   7   0 10377.2 319.895   3
  -6   7   0 9497.96 295.517   9
   6  -7   0 11277.1 448.577   7
  -6   7   0 9886.52 327.139   3
  -6   7   1 5668.22 237.838   3
   6   7   1 5846.21 220.019   3
  -6  -7   1 5858.44 318.485   7
   6  -7   1 6310.46 325.156   7
  -6   7   2 8784.65 311.464   3
  -6  -7   2 9245.12 413.109   7
   6  -7   2 9559.77 416.553   7
   6  -7   3 4804.61 301.026   7
  -6   7   3 4545.71 217.473   3
  -6  -7   3 4942.48 303.213   7
   6  -7   4 6875.12 376.931   7
  -6  -7   4 6125.50 352.057   7
   6   8  -2 2531.94 152.452   9
  -6   8  -1 2623.69 154.984   9
   6  -8  -1 3229.22 255.508   7
   6   8  -1 2802.56 171.262   3
  -6  -8  -1 3158.98 257.910   7
   6  -8   0 6128.21 353.159   7
   6   8   0 5491.13 239.609   3
  -6  -8   0 5950.61 353.749   7
   6  -8   1 2370.46 216.425   7
  -6  -8   1 2603.19 225.994   7
  -7   0  -9 47.5445 40.3002   4
   7   0  -9-32.4846 66.2047   8
  -7   0  -8 5.44282 30.6630   4
   7   0  -8-71.1144 63.5485   8
  -7   0  -8-35.0768 62.1273   8
  -7   0  -7 27.3845 24.7356   4
   7   0  -7-21.6989 47.4101   8
  -7   0  -7-8.57847 43.4514   8
  -7   0  -6 7.36787 20.5755   4
   7   0  -6-45.8441 51.8865   8
  -7   0  -6 37.0952 44.6586   8
   7   0  -5 36.8868 28.9677   9
  -7   0  -5 24.0663 24.6711   4
   7   0  -5 28.9453 35.2059   8
  -7   0  -5 23.3408 38.8114   8
   7   0  -4 60.0750 27.9315   9
  -7   0  -4 32.4597 12.4406   9
  -7   0  -4 45.5126 17.8275   4
   7   0  -4 23.4916 28.8886   8
  -7   0  -4 38.0027 30.3369   8
  -7   0  -3 23.5856 17.0744   1
   7   0  -3 4.38752 19.9011   9
  -7   0  -3 2.82456 11.1386   9
  -7   0  -3 36.1350 18.5242   4
   7   0  -3 18.6996 26.3435   8
  -7   0  -3 6.23414 23.8066   8
   7   0  -3 6.77167 30.1204   5
  -7   0  -2 45.3808 18.0578  10
  -7   0  -2 46.2307 11.1617   6
   7   0  -2 88.1506 27.8670   9
  -7   0  -2 23.0453 15.3951   9
   7   0  -2-0.89301 17.3180   8
  -7   0  -2 21.3213 17.1825   8
   7   0  -2 36.8796 19.2663   5
  -7   0  -1 33.1011 19.5990  10
  -7   0  -1 93.7768 15.5987   6
   7   0  -1 37.4054 21.5335   5
   7   0  -1 45.4865 33.2627   9
   7   0  -1 119.429 19.5585   8
  -7   0   0 30.2858 25.4092  10
   7   0   0 70.9444 24.9303   2
   7   0   0 15.8789 26.5284   5
  -7   0   1 30.2481 22.8650  10
   7   0   1 47.9110 20.8212   5
  -7   0   1 43.6643 16.8173   2
   7   0   2 33.3610 9.60162   6
   7   0   2 25.9601 18.1469   5
  -7   0   2 23.6594 18.7004  10
  -7   0   3 30.2491 21.1723  10
   7   0   3 27.4117 10.5594   6
  -7   0   4 26.2529 21.3648  10
   7   0   4 12.9424 9.44554   6
  -7   0   5 12.1822 23.2864  10
   7   0   6 11.7567 19.6539  10
  -7   0   6 16.6750 26.8820  10
  -7   0   7 7.71496 31.2604  10
   7   0   7 50.0493 31.2767  10
  -7   0   8 12.4839 33.3920  10
   7   0   8 7.66067 26.6484  10
  -7   0   9 55.0989 39.1582  10
  -7  -1  -9 785.739 94.0102   4
  -7   1  -9 836.663 137.452   8
   7  -1  -9 794.461 137.203   8
  -7  -1  -9 825.578 134.598   8
   7   1  -9 631.246 111.968   8
  -7   1  -9 608.139 84.5468   4
  -7  -1  -8 12520.4 397.722   4
  -7   1  -8 13059.8 405.135   4
   7  -1  -8 13088.0 514.320   8
  -7  -1  -8 13019.3 494.201   8
   7   1  -8 13075.8 495.905   8
  -7   1  -8 13145.0 502.699   8
  -7  -1  -7 2165.06 135.490   4
  -7   1  -7 2293.10 143.565   4
   7  -1  -7 2493.25 199.272   8
  -7  -1  -7 2370.78 186.733   8
   7   1  -7 2326.98 182.344   8
  -7   1  -7 2292.23 185.233   8
  -7  -1  -6 28040.1 613.254   4
   7   1  -6 27197.2 594.221   9
  -7   1  -6 27662.0 622.654   4
   7  -1  -6 29472.1 741.866   8
  -7  -1  -6 29748.6 726.389   8
   7   1  -6 28347.2 715.057   8
  -7   1  -6 31208.5 754.781   8
  -7  -1  -5 1670.14 97.0812   4
  -7   1  -5 1708.17 104.554   4
   7   1  -5 1613.29 95.1741   9
   7  -1  -5 1900.29 143.113   8
  -7  -1  -5 1902.52 136.521   8
   7   1  -5 1916.61 138.377   8
   7  -1  -5 1851.08 124.760   9
  -7  -1  -4 36984.3 697.944   4
   7   1  -4 36084.1 705.257   9
  -7   1  -4 36493.7 667.704   9
  -7   1  -4 36699.1 720.237   4
   7  -1  -4 38057.1 798.572   8
  -7  -1  -4 39263.8 783.704   8
   7   1  -4 38669.5 791.891   8
   7   1  -3 3811.76 136.913   9
  -7  -1  -3 4041.23 125.369   4
  -7  -1  -3 3838.29 124.086   6
  -7   1  -3 3785.54 120.600   9
  -7  -1  -3 3896.36 105.941   9
  -7   1  -3 3605.47 136.365   4
  -7  -1  -3 3729.71 120.283   1
  -7   1  -3 3878.38 98.9854   3
   7  -1  -3 3964.65 169.010   8
  -7  -1  -3 4546.76 163.317   8
   7  -1  -3 3834.03 131.689   5
   7   1  -2 51143.1 897.946   9
  -7  -1  -2 51235.6 857.485   4
  -7  -1  -2 51091.0 871.416   6
  -7   1  -2 51230.8 879.560   9
   7  -1  -2 48816.2 916.940   8
  -7  -1  -2 50050.5 880.072   8
   7  -1  -2 50763.7 893.378   5
   7   1  -2 49341.0 856.542   5
   7  -1  -2 52258.6 915.526   7
  -7  -1  -2 51246.2 915.033   7
  -7  -1  -2 50490.3 855.012   1
  -7   1  -2 49087.1 856.864  10
  -7  -1  -2 50523.8 892.110  10
   7   1  -1 5102.72 154.071   9
  -7   1  -1 5345.51 156.441   9
   7   1  -1 5250.09 140.536   5
   7  -1  -1 5556.07 167.819   5
   7   1  -1 5304.62 160.777   3
   7  -1  -1 5439.50 141.524   7
  -7  -1  -1 5220.33 140.743   7
  -7   1  -1 5099.40 143.492  10
  -7  -1  -1 5061.19 159.506  10
  -7  -1  -1 5350.10 148.171   6
   7   1   0 56595.3 993.776   9
  -7  -1   0 53881.4 1026.52  10
   7  -1   0 58375.5 1039.31   5
   7  -1   0 57041.3 1036.53   2
  -7   1   0 57717.6 1002.13  10
   7   1   0 57218.4 998.927   5
   7   1   1 5705.50 152.747   5
  -7   1   1 5755.58 175.559   2
   7  -1   1 6000.72 192.558   5
  -7   1   1 5496.87 150.504  10
  -7  -1   1 5711.39 191.240  10
  -7  -1   2 49149.1 904.348  10
   7   1   2 49636.8 858.443   6
   7  -1   2 52530.1 912.537   5
  -7   1   2 50995.9 895.614   2
  -7   1   2 49735.9 875.113  10
   7   1   3 4126.96 124.083   6
   7  -1   3 4343.64 93.8635   6
   7  -1   3 4317.04 148.435   5
  -7  -1   3 4152.05 145.155  10
  -7   1   3 4117.92 136.503  10
  -7  -1   4 34709.4 673.456  10
   7   1   4 33517.8 635.096   6
   7  -1   4 36218.8 682.567   5
  -7   1   4 35520.5 667.516  10
   7  -1   5 1453.07 76.4330  10
  -7   1   5 1417.28 89.2225  10
  -7  -1   5 1437.28 91.9666  10
   7  -1   6 25674.9 531.135  10
   7   1   6 25646.8 556.093  10
  -7  -1   6 26692.4 576.590  10
  -7   1   6 27214.3 574.630  10
   7   1   7 2196.48 124.984  10
  -7  -1   7 2252.70 133.156  10
  -7   1   7 2290.22 134.204  10
   7   1   8 11493.9 351.594  10
  -7  -1   8 12541.7 376.670  10
  -7   1   8 12576.8 377.040  10
   7   1   9 641.346 80.8386  10
  -7  -1   9 772.234 94.9386  10
  -7   2  -9 141.461 75.5699   8
  -7   2  -8 4682.35 230.654   4
   7  -2  -8 4802.97 309.869   8
  -7  -2  -8 4629.13 286.070   8
   7   2  -8 4571.19 282.117   8
  -7   2  -8 4705.33 300.558   8
  -7  -2  -7 265.251 49.4809   4
   7   2  -7 246.285 50.0747   9
  -7   2  -7 302.792 58.5547   4
   7  -2  -7 344.949 88.8200   8
  -7  -2  -7 214.067 65.5242   8
   7   2  -7 254.209 73.4690   8
  -7   2  -7 365.662 91.1279   8
  -7  -2  -6 12629.9 345.340   4
   7   2  -6 11930.7 330.257   9
  -7   2  -6 12356.4 361.176   4
   7  -2  -6 13544.2 464.968   8
  -7  -2  -6 12973.7 431.278   8
   7   2  -6 13216.1 439.169   8
   7   2  -6 12180.1 329.004   4
   7   2  -5 69.9758 22.1701   4
  -7  -2  -5 92.8373 29.1542   4
   7   2  -5 77.6556 31.6285   9
  -7   2  -5 59.1347 22.4016   9
  -7   2  -5 82.9189 35.5630   4
   7   2  -5 91.2013 37.4066   3
   7  -2  -5 110.218 54.1175   8
  -7  -2  -5 73.4817 44.3463   8
  -7  -2  -4 12902.0 295.248   4
   7   2  -4 11974.7 304.203   9
  -7   2  -4 11397.1 282.164   9
  -7   2  -4 12115.8 325.885   4
   7  -2  -4 13261.5 394.558   8
  -7  -2  -4 12935.9 359.510   8
   7   2  -4 11936.3 335.856   3
   7  -2  -4 12839.2 380.575   7
  -7  -2  -4 12668.2 385.314   7
   7   2  -4 12646.9 289.620   4
  -7  -2  -3 1564.02 69.9771   4
   7   2  -3 1387.29 80.6603   9
  -7  -2  -3 1485.35 82.7387   6
  -7   2  -3 1407.90 75.1595   9
  -7   2  -3 1458.79 66.2270   3
   7   2  -3 1295.75 86.1044   3
   7  -2  -3 1525.27 83.4397   5
   7  -2  -3 1466.68 104.204   7
  -7  -2  -3 1688.85 111.706   7
   7   2  -3 1436.75 67.3296   4
  -7  -2  -2 13664.6 257.709   4
  -7   2  -2 13148.8 280.560   3
   7   2  -2 13017.6 300.164   9
  -7  -2  -2 13592.4 308.494   6
  -7   2  -2 13175.0 296.601   9
   7  -2  -2 14036.0 313.900   5
   7   2  -2 13077.6 311.411   3
   7   2  -2 12725.4 251.462   5
   7  -2  -2 13591.3 330.144   7
  -7  -2  -2 13619.2 333.643   7
  -7  -2  -2 13122.9 307.174  10
  -7  -2  -1 5687.49 173.294   6
   7   2  -1 5354.76 156.277   9
  -7   2  -1 5354.44 132.183  10
  -7  -2  -1 5339.59 167.212   7
  -7   2  -1 5332.84 158.194   9
   7   2  -1 5327.58 157.557   3
   7  -2  -1 5851.41 179.530   5
   7   2  -1 5341.83 123.018   5
  -7  -2  -1 5378.30 170.420  10
   7  -2  -1 5414.89 166.896   7
  -7  -2   0 9356.93 253.696   6
  -7   2   0 9283.64 186.986   6
   7  -2   0 9733.11 285.365   2
   7   2   0 8711.30 210.412   5
  -7   2   0 8799.28 226.638   9
   7  -2   0 8952.76 223.922   7
  -7  -2   0 8844.30 226.933   7
   7  -2   0 8902.36 258.477   5
   7   2   0 8626.38 211.565   9
  -7   2   0 8964.48 208.365  10
  -7  -2   0 8620.99 247.673  10
   7   2   0 8624.29 205.723   3
   7  -2   1 6507.31 187.185   7
  -7  -2   1 5964.75 184.890   7
  -7   2   1 6875.83 225.693   2
   7   2   1 6072.48 175.375   6
   7   2   1 5739.63 146.899   5
   7  -2   1 6525.72 219.027   5
  -7   2   1 6050.36 184.133   9
  -7  -2   1 6501.85 125.431   1
  -7   2   1 5674.56 148.955  10
   7   2   1 5722.68 159.341   9
   7   2   1 6003.18 144.812   3
  -7  -2   1 6148.56 211.941  10
   7   2   2 13423.1 301.483   9
   7   2   2 13090.7 298.480   6
   7  -2   2 14306.4 349.080   5
  -7  -2   2 14279.6 273.479   1
   7   2   2 13694.0 255.075   3
  -7  -2   2 13502.1 347.356  10
  -7   2   2 13586.6 333.053   2
  -7   2   2 13242.5 287.866  10
   7   2   3 1480.96 77.1609   6
   7  -2   3 1702.19 96.9994   5
  -7  -2   3 1631.04 75.0091   1
  -7  -2   3 1620.14 95.2039  10
  -7   2   3 1544.81 77.9311  10
   7   2   4 10701.0 252.176   1
   7  -2   4 11540.6 301.470   5
  -7  -2   4 10995.2 292.626  10
  -7   2   4 11458.7 279.741  10
  -7  -2   5 167.581 38.6968  10
  -7   2   5 175.478 37.4462  10
   7  -2   5 153.277 36.3287   5
   7  -2   6 12123.8 343.379   5
  -7   2   6 11940.9 327.700  10
  -7  -2   6 12041.6 336.517  10
  -7   2   7 176.447 48.3978  10
   7   2   7 196.639 48.0563  10
  -7  -2   7 304.282 49.0047  10
   7   2   8 3961.15 191.802  10
  -7  -2   8 4032.38 198.186  10
  -7   2   8 4376.26 206.006  10
  -7  -2   9 147.578 56.2041  10
  -7   3  -8 6175.11 277.769   4
   7   3  -8 5923.00 331.398   8
   7   3  -7 505.556 70.5388   9
  -7   3  -7 452.238 68.8989   4
   7   3  -7 474.473 61.2577   4
   7   3  -6 8729.34 271.631   9
  -7   3  -6 8897.84 302.341   4
  -7   3  -6 8584.80 255.049   9
   7   3  -6 8570.21 312.842   3
   7   3  -6 8618.74 258.723   4
   7   3  -5 492.880 50.0967   4
   7  -3  -5 519.567 83.4928   7
  -7  -3  -5 565.126 90.4707   7
   7   3  -5 462.968 57.3082   9
  -7   3  -5 437.662 50.8467   9
  -7   3  -5 468.880 63.8806   4
   7   3  -5 491.138 67.3305   3
   7   3  -4 13892.1 345.281   9
  -7   3  -4 13490.5 330.590   9
  -7   3  -4 14035.5 324.038   3
  -7   3  -4 13757.1 371.755   4
   7  -3  -4 14284.9 425.087   7
  -7  -3  -4 15055.8 438.679   7
   7   3  -4 14290.9 373.030   3
   7   3  -3 765.518 63.1520   9
  -7   3  -3 757.236 60.5680   9
  -7   3  -3 822.285 58.5312   3
   7  -3  -3 883.901 67.6045   5
   7  -3  -3 892.141 85.4903   7
  -7  -3  -3 864.222 86.4466   7
   7   3  -3 891.371 72.6436   3
  -7   3  -2 20005.4 421.314   3
   7  -3  -2 21089.0 490.639   7
  -7  -3  -2 20587.5 441.234  10
   7   3  -2 19975.3 437.958   3
   7   3  -2 20872.7 433.250   9
  -7   3  -2 20269.4 430.274   9
  -7  -3  -2 21162.7 495.491   7
   7  -3  -2 20630.3 441.347   5
   7  -3  -1 3388.61 147.708   7
   7   3  -1 2959.75 115.106   9
  -7   3  -1 3033.55 120.239   9
  -7  -3  -1 3294.87 148.819   7
   7  -3  -1 3307.66 134.373   5
  -7  -3  -1 2953.99 125.136  10
   7   3  -1 3017.40 117.627   3
   7   3   0 30300.7 563.259   3
  -7   3   0 29458.4 546.789   6
   7   3   0 29545.5 561.408   9
  -7   3   0 29508.5 577.527   9
   7  -3   0 30977.3 623.898   7
   7  -3   0 30595.4 621.620   5
  -7  -3   0 30303.0 624.897   7
  -7  -3   0 30214.8 607.099  10
  -7   3   1 3264.96 114.862   6
  -7   3   1 3297.13 100.263  10
  -7   3   1 3395.96 127.091   9
  -7  -3   1 3083.90 147.571  10
   7  -3   1 3535.83 161.731   5
   7   3   1 3341.10 110.397   9
   7   3   1 3532.43 109.506   3
   7  -3   1 3571.74 155.245   7
  -7  -3   1 3431.50 154.198   7
   7  -3   2 20062.5 471.126   7
  -7  -3   2 19603.3 468.371   7
   7   3   2 19037.5 367.914   3
  -7   3   2 19397.4 418.500   6
   7  -3   2 19752.0 482.492   5
  -7   3   2 19342.5 415.434   9
  -7  -3   2 20003.0 479.190  10
  -7   3   2 19770.6 386.220  10
  -7  -3   3 634.747 71.0159  10
   7  -3   3 734.539 74.6793   5
  -7   3   3 607.298 55.2484   9
  -7   3   3 614.483 49.1209  10
   7  -3   4 13721.2 366.983   5
  -7  -3   4 13605.8 363.047  10
  -7   3   4 13711.9 324.245  10
   7  -3   5 554.671 67.1426   5
  -7  -3   5 595.180 67.7581  10
  -7   3   5 549.937 57.8456  10
   7  -3   6 8104.56 275.922   5
  -7  -3   6 8024.14 269.831  10
  -7   3   6 7958.47 255.930  10
   7   3   7 503.867 69.3038  10
  -7  -3   7 465.766 68.0598  10
  -7   3   7 436.344 65.7178  10
   7  -3   7 357.793 61.1749   5
   7   3   8 6078.32 250.086  10
   7  -3   8 5785.15 253.708   5
  -7   3   8 6031.87 249.751  10
   7   4  -8 8952.04 317.542   9
   7   4  -7 907.323 90.6879   9
  -7   4  -7 959.839 102.916   4
  -7   4  -7 835.206 82.8271   9
   7   4  -7 904.467 109.217   3
   7   4  -6 15053.7 403.332   9
  -7   4  -6 14204.3 382.382   9
  -7   4  -6 15473.1 442.769   4
   7   4  -6 14473.5 437.339   3
   7  -4  -6 15395.3 530.474   7
  -7  -4  -6 15135.2 538.339   7
   7   4  -5 623.236 68.7218   9
  -7   4  -5 626.140 65.9860   9
  -7   4  -5 768.279 83.3064   4
   7  -4  -5 689.435 104.633   7
  -7  -4  -5 700.441 104.367   7
   7   4  -5 641.689 78.7164   3
   7   4  -4 20355.8 472.079   9
  -7   4  -4 20469.7 467.661   9
  -7   4  -4 20610.3 464.077   3
   7  -4  -4 21518.2 580.696   7
  -7  -4  -4 21747.8 589.603   7
   7   4  -4 21399.4 504.184   3
   7   4  -3 711.040 69.6633   3
   7   4  -3 661.540 62.4741   9
  -7   4  -3 789.157 68.0500   9
  -7   4  -3 723.105 62.0808   3
   7  -4  -3 742.940 64.6620   5
   7  -4  -3 901.544 98.4631   7
  -7  -4  -3 913.736 100.542   7
   7   4  -2 27521.6 562.191   9
  -7   4  -2 27137.1 565.400   9
  -7  -4  -2 29084.4 665.869   7
   7  -4  -2 29277.7 662.215   7
   7  -4  -2 27811.6 571.795   5
  -7   4  -2 27389.6 565.913   3
   7   4  -2 28204.8 581.849   3
   7   4  -1 3861.69 141.370   9
  -7   4  -1 3905.33 151.602   3
  -7   4  -1 3845.69 146.742   9
   7   4  -1 3885.64 146.807   3
   7  -4  -1 4235.42 194.443   7
  -7  -4  -1 4221.04 195.609   7
   7  -4  -1 4069.81 156.558   5
  -7  -4  -1 4022.40 152.863  10
   7   4   0 35103.6 665.185   3
   7   4   0 35401.0 658.930   9
  -7   4   0 34118.8 672.482   9
  -7  -4   0 36294.4 760.837   7
   7  -4   0 35290.6 705.897   5
  -7  -4   0 34232.5 688.513  10
   7  -4   0 35652.5 752.092   7
   7   4   1 4196.81 132.865   9
  -7   4   1 3975.33 146.268   9
   7   4   1 4201.09 136.440   3
   7  -4   1 3953.18 174.222   5
  -7   4   1 3888.05 145.601   6
  -7  -4   1 4102.98 167.965  10
   7  -4   1 4439.20 198.743   7
  -7  -4   1 4507.02 203.088   7
  -7  -4   2 27674.9 645.717   7
  -7  -4   2 25680.1 599.865  10
  -7   4   2 26664.8 539.575   9
   7  -4   2 27298.3 622.408   5
   7  -4   2 28970.7 651.152   7
   7  -4   3 823.394 92.7624   7
  -7  -4   3 911.946 97.8681   7
  -7   4   3 799.192 60.2072   9
   7  -4   3 857.661 90.0372   5
  -7  -4   3 979.399 91.9062  10
  -7   4   3 737.374 55.4251  10
   7  -4   4 22063.3 544.785   5
  -7  -4   4 21480.8 540.070  10
  -7   4   4 20469.4 448.000  10
   7  -4   5 612.058 74.8500   5
  -7   4   5 495.957 55.9724  10
  -7   4   6 13956.2 371.843  10
   7   4   7 1070.30 99.9358  10
  -7   4   7 1002.89 93.2282  10
  -7   4   8 9749.71 332.925  10
   7  -5  -7 106.880 85.8064   7
  -7  -5  -7 18.4906 69.3497   7
   7   5  -7-77.7946 44.1265   3
   7   5  -7-1.88417 42.6556   9
  -7   5  -7-23.3013 38.7727   9
  -7   5  -7-10.5189 33.3028   4
   7  -5  -6 205.058 72.3988   7
  -7  -5  -6 112.874 64.8919   7
   7   5  -6 268.661 61.8750   3
   7   5  -6 136.447 49.3108   9
  -7   5  -6 149.155 45.6538   9
  -7   5  -6 217.415 56.3973   4
   7  -5  -5 276.614 82.7789   7
  -7  -5  -5 297.868 84.8864   7
   7   5  -5 298.610 62.6500   3
   7   5  -5 233.378 49.2589   9
  -7   5  -5 222.642 49.5799   9
  -7   5  -5 216.838 51.8941   4
   7  -5  -4 562.190 94.2475   7
   7   5  -4 592.833 67.2245   9
  -7   5  -4 570.248 66.4838   9
  -7   5  -4 612.028 67.3398   3
  -7  -5  -4 599.442 96.5563   7
   7   5  -4 609.346 74.6044   3
  -7  -5  -3 178.768 63.8075   7
   7   5  -3 68.3844 29.3646   3
   7  -5  -3 98.8001 32.5501   5
   7   5  -3 113.702 36.6072   9
  -7   5  -3 51.4547 30.7889   9
   7  -5  -3 203.678 67.6498   7
  -7   5  -3 94.4104 28.0108   3
   7   5  -2 564.030 62.8147   3
   7  -5  -2 411.616 72.5347   7
   7   5  -2 567.585 58.1529   9
  -7   5  -2 524.295 59.0672   9
   7  -5  -2 533.328 57.6065   5
  -7   5  -2 515.647 59.2506   3
  -7  -5  -2 552.651 81.8698   7
  -7  -5  -1 58.6931 28.1166  10
   7  -5  -1 59.3136 44.5666   7
  -7  -5  -1 69.4422 42.5468   7
   7   5  -1 32.7916 24.4859   9
   7   5  -1 35.9633 28.2468   3
  -7   5  -1 47.0933 26.7793   9
   7  -5  -1 14.8518 24.6152   5
  -7   5  -1 16.7589 23.0707   3
  -7  -5   0 335.073 46.5490  10
   7  -5   0 405.069 70.2799   7
  -7  -5   0 360.343 68.0433   7
   7   5   0 347.150 45.0106   3
   7   5   0 278.064 39.4304   9
  -7   5   0 364.506 45.9938   9
   7  -5   0 326.027 49.1869   5
  -7  -5   1 43.7313 29.3808  10
   7  -5   1 31.9353 40.1126   7
  -7  -5   1 15.1854 34.0780   7
  -7   5   1 25.4294 23.6081   9
   7   5   1 26.8895 17.2400   3
   7  -5   1 19.4369 22.1959   5
  -7   5   2 802.093 64.6928   9
   7  -5   2 795.190 98.9708   7
  -7  -5   2 833.158 100.464   7
   7  -5   3 120.907 48.6506   7
  -7  -5   3 111.328 50.0857   7
   7  -5   4 848.209 111.781   7
  -7  -5   4 663.421 98.8801   7
  -7   5   7 7.21190 33.7727  10
   7   5   7 2.81005 34.5343  10
  -7   6  -6 12291.6 385.239   9
  -7   6  -6 12231.9 421.441   4
   7  -6  -6 12943.8 537.726   7
  -7  -6  -6 12138.8 529.573   7
   7   6  -5 939.028 95.2471   9
  -7   6  -5 1060.67 100.920   3
  -7   6  -5 910.834 95.2157   9
  -7   6  -5 1003.61 106.904   4
   7  -6  -5 1120.43 150.634   7
  -7  -6  -5 981.692 139.045   7
   7   6  -5 1122.77 112.218   3
   7   6  -4 17403.1 460.532   9
  -7   6  -4 18405.7 473.757   9
   7   6  -4 18894.7 503.158   3
  -7  -6  -4 18990.1 623.240   7
  -7   6  -4 18169.5 479.377   3
   7  -6  -4 19374.9 618.102   7
   7  -6  -3 1288.97 146.994   7
   7   6  -3 951.385 84.8421   9
  -7   6  -3 993.298 88.8649   9
  -7   6  -3 912.205 87.4383   3
   7  -6  -3 1044.96 84.0295   5
  -7  -6  -3 1124.78 137.017   7
   7   6  -3 997.064 92.7452   3
   7   6  -2 21739.7 516.567   3
  -7  -6  -2 21842.1 637.904   7
   7   6  -2 19995.2 477.818   9
  -7   6  -2 20374.9 492.502   9
  -7   6  -2 20661.2 507.379   3
   7  -6  -2 22381.9 634.124   7
   7  -6  -1 197.518 63.2101   7
  -7  -6  -1 159.508 64.2656   7
   7   6  -1 147.537 35.1874   9
  -7   6  -1 126.865 38.2476   9
   7   6  -1 181.774 40.9550   3
  -7   6  -1 110.888 36.2752   3
  -7   6   0 27877.5 636.586   3
  -7   6   0 27474.2 599.929   9
   7   6   0 28593.6 610.969   3
  -7  -6   0 29908.7 755.230   7
   7  -6   0 30270.1 749.762   7
   7  -6   1 186.148 63.2130   7
  -7  -6   1 159.500 59.2988   7
  -7   6   1 144.008 36.5094   9
   7   6   1 118.172 29.9839   3
   7  -6   2 22702.9 652.014   7
  -7  -6   2 22560.3 651.467   7
   7  -6   3 1054.85 129.377   7
  -7  -6   3 962.949 123.678   7
   7  -6   4 20594.3 641.958   7
  -7  -6   4 18409.6 608.999   7
   7  -6   5 892.768 132.355   7
  -7  -6   5 747.873 115.331   7
  -7  -6   6 11529.1 490.877   7
   7   6   6 10817.8 358.323  10
  -7   7  -5 129.436 46.7038   3
   7   7  -4 2838.59 177.387   3
   7   7  -4 2432.31 152.376   9
  -7   7  -4 2470.70 156.779   9
  -7   7  -4 2532.69 164.718   3
  -7  -7  -4 2624.54 233.157   7
   7  -7  -4 2634.58 229.156   7
   7  -7  -3 540.206 109.030   7
  -7  -7  -3 535.263 113.128   7
   7   7  -3 454.434 69.9599   9
  -7   7  -3 493.522 75.2326   9
   7   7  -3 434.291 68.7460   3
  -7   7  -3 301.277 59.6580   3
   7   7  -2 2795.06 165.818   3
   7   7  -2 2752.92 148.839   9
  -7   7  -2 2941.54 159.604   9
  -7   7  -2 3066.21 172.804   3
   7  -7  -2 3374.43 240.900   7
  -7  -7  -2 3108.30 232.978   7
   7   7  -1 1218.58 104.782   3
   7   7  -1 1179.93 93.0201   9
  -7   7  -1 1070.15 93.1028   9
  -7  -7  -1 1430.56 159.755   7
  -7   7  -1 1206.57 107.834   3
   7  -7  -1 1285.03 151.702   7
   7  -7   0 4000.00 255.560   7
   7   7   0 4206.95 184.423   3
  -7   7   0 3800.15 173.208   9
  -7  -7   0 4221.92 265.825   7
  -7   7   0 3982.08 197.124   3
  -7   7   1 1396.58 115.849   3
   7  -7   1 1410.86 153.539   7
  -7  -7   1 1201.88 141.685   7
  -7   7   2 2821.11 169.505   3
   7  -7   2 3252.40 230.300   7
  -7  -7   2 2635.90 210.337   7
   7  -7   3 480.143 102.516   7
  -7  -7   3 375.956 85.0446   7
   7  -7   4 2824.32 233.987   7
  -7  -7   4 2760.27 227.299   7
   7   8  -2 6453.89 254.183   9
   7  -8  -1 567.154 111.378   7
  -7  -8  -1 495.662 105.900   7
   7   8  -1 525.718 76.2264   3
  -7   8  -1 557.003 74.9923   9
   7   8   0 7383.91 286.746   3
   7  -8   0 8538.06 411.981   7
  -7  -8   0 7972.02 401.274   7
   7  -8   1 599.254 108.472   7
  -7  -8   1 535.999 106.628   7
  -8   0  -9 9610.02 362.613   4
   8   0  -9 9997.27 455.206   8
  -8   0  -8 1795.32 135.458   4
   8   0  -8 1673.63 173.367   8
  -8   0  -8 1787.29 165.764   8
  -8   0  -7 18479.9 488.859   4
   8   0  -7 19487.8 588.766   8
  -8   0  -7 19717.1 576.045   8
   8   0  -6 5976.54 224.330   9
  -8   0  -6 5982.17 224.260   4
   8   0  -6 6023.26 275.218   8
  -8   0  -6 6708.41 279.055   8
   8   0  -5 23008.1 524.636   9
  -8   0  -5 22573.5 510.727   4
   8   0  -5 23857.6 587.050   8
  -8   0  -5 24742.6 584.432   8
   8   0  -4 2028.86 112.524   9
  -8   0  -4 2016.92 102.258   4
  -8   0  -4 2029.41 80.1722   9
   8   0  -4 2201.24 129.739   8
  -8   0  -4 2253.33 127.455   8
   8   0  -3 45550.2 856.613   9
  -8   0  -3 44097.4 786.023   9
   8   0  -3 45152.7 855.077   8
   8   0  -3 45196.5 805.875   5
  -8   0  -3 43547.4 813.158   4
  -8   0  -3 43201.4 808.745   1
   8   0  -2 22751.3 489.385   9
  -8   0  -2 22278.9 395.138   6
  -8   0  -2 22033.9 440.077   9
  -8   0  -2 20825.0 434.554  10
   8   0  -2 21845.1 446.853   8
  -8   0  -2 23489.4 435.205   8
   8   0  -2 21654.2 437.713   5
   8   0  -1 55880.8 1006.32   5
   8   0  -1 55518.4 953.441   8
   8   0  -1 56972.3 1054.98   9
  -8   0  -1 55454.2 1004.96  10
   8   0   0 18706.1 413.546   5
   8   0   0 17665.3 380.031   2
  -8   0   0 18427.7 411.519  10
   8   0   1 56024.2 1001.61   5
  -8   0   1 56267.9 968.981   2
  -8   0   1 55542.1 1001.62  10
   8   0   2 23697.5 413.151   6
   8   0   2 23075.4 469.418   5
  -8   0   2 22640.4 467.029  10
  -8   0   3 42345.7 786.874  10
   8   0   3 42911.5 726.133   6
   8   0   3 42784.3 788.835   5
  -8   0   4 2637.84 119.181  10
  -8   0   5 20290.2 459.765  10
   8   0   6 6347.56 208.715  10
  -8   0   6 6825.36 232.381  10
   8   0   7 17689.8 435.495  10
  -8   0   7 19048.6 472.995  10
   8   0   8 1217.33 99.9950  10
  -8   0   8 1401.09 118.521  10
  -8  -1  -9 760.609 93.2994   4
   8  -1  -9 951.176 142.777   8
   8   1  -9 865.185 132.827   8
  -8  -1  -8 916.112 98.3750   4
  -8   1  -8 1061.58 107.094   4
   8  -1  -8 1205.50 152.214   8
   8   1  -8 1138.60 141.237   8
  -8   1  -8 1325.07 148.502   8
  -8  -1  -7 1613.32 118.287   4
  -8   1  -7 1514.50 119.675   4
   8  -1  -7 1673.85 161.798   8
  -8  -1  -7 1520.04 143.494   8
   8   1  -7 1542.42 149.009   8
  -8   1  -7 1508.91 146.988   8
  -8  -1  -6 660.921 68.6069   4
   8   1  -6 664.846 69.2427   9
  -8   1  -6 534.174 66.8593   4
   8  -1  -6 656.993 95.6446   8
  -8  -1  -6 612.177 87.8176   8
   8   1  -6 630.077 89.5965   8
  -8   1  -6 653.213 93.3028   8
  -8  -1  -5 1074.60 79.2123   4
   8   1  -5 1034.46 79.5703   9
  -8   1  -5 1085.48 85.0422   4
   8  -1  -5 1130.57 110.302   8
  -8  -1  -5 984.607 96.1534   8
   8   1  -5 1061.41 102.102   8
  -8   1  -5 1207.03 113.173   8
  -8  -1  -4 959.960 66.7438   4
  -8   1  -4 814.218 69.5235   4
  -8   1  -4 821.208 54.6442   9
   8  -1  -4 882.272 87.2572   8
  -8  -1  -4 1083.65 87.2286   8
   8   1  -4 884.841 83.7945   8
   8  -1  -4 752.466 61.5559   5
   8   1  -4 844.208 68.4026   9
   8   1  -3 7397.60 214.551   9
  -8  -1  -3 7555.11 192.646   4
  -8  -1  -3 7357.16 192.012   6
  -8  -1  -3 7137.67 187.421   1
  -8   1  -3 7156.52 191.111   9
  -8  -1  -3 7221.92 179.552   9
   8  -1  -3 7737.19 244.820   8
  -8  -1  -3 8127.33 224.141   8
   8   1  -3 7593.64 234.247   8
   8  -1  -3 7158.53 205.888   5
   8   1  -3 7449.46 186.062   5
  -8  -1  -2 1201.82 55.8582   1
   8   1  -2 1208.07 74.6162   9
  -8  -1  -2 1111.12 60.4582   6
  -8  -1  -2 1322.46 58.3096   4
  -8   1  -2 1207.63 68.2001   9
  -8   1  -2 1114.30 57.7679  10
   8  -1  -2 1254.35 74.4273   5
   8   1  -2 1110.39 56.8831   5
   8  -1  -2 1247.45 73.7530   7
  -8  -1  -2 1201.76 73.1408   7
  -8  -1  -2 1090.85 69.1079  10
   8   1  -1 5789.42 176.093   9
  -8  -1  -1 5480.32 161.115   6
  -8  -1  -1 5616.60 181.229  10
  -8   1  -1 5725.73 174.750   9
  -8   1  -1 5631.21 165.390  10
   8   1  -1 6021.61 163.828   5
   8  -1  -1 6038.59 189.269   5
   8  -1  -1 5978.79 148.385   7
  -8  -1  -1 5919.65 149.065   7
  -8  -1   0 2315.14 120.119  10
   8  -1   0 2548.59 121.683   2
   8   1   0 2507.50 108.252   5
   8  -1   0 2442.06 123.578   5
  -8   1   0 2372.72 107.526  10
   8   1   0 2270.52 106.230   9
  -8   1   1 6681.78 200.619   2
   8   1   1 6272.56 174.082   5
   8  -1   1 6302.31 211.876   5
  -8  -1   1 6300.38 148.035   2
  -8  -1   1 6527.81 213.442  10
  -8   1   1 6345.74 173.954  10
  -8  -1   2 1087.68 74.8581  10
   8   1   2 988.296 53.4609   6
   8   1   2 941.353 58.6075   5
   8  -1   2 992.110 71.5633   5
  -8   1   2 906.995 61.8517   2
  -8   1   2 961.090 59.7555  10
   8   1   3 7354.39 180.159   6
   8  -1   3 7427.31 216.137   5
  -8  -1   3 6971.34 211.207  10
  -8   1   3 7302.62 203.037  10
   8  -1   4 774.401 65.8640   5
  -8  -1   4 746.131 64.9080  10
   8   1   4 669.444 48.5932   6
  -8   1   4 734.877 60.9156  10
   8  -1   5 1247.99 72.7492  10
  -8  -1   5 1305.77 91.3977  10
  -8   1   5 1262.14 86.3427  10
  -8  -1   6 699.286 74.4754  10
  -8   1   6 650.478 68.5954  10
   8   1   7 1437.92 103.293  10
  -8  -1   7 1511.77 113.656  10
  -8   1   7 1499.51 111.977  10
   8   1   8 879.977 90.1097  10
  -8   1   8 937.311 96.8914  10
  -8  -1   8 935.130 99.8316  10
   8   1   9 1000.60 98.2149  10
  -8  -1   9 1404.40 125.867  10
  -8   2  -9 5683.99 339.769   8
  -8   2  -8 2753.74 177.843   4
   8  -2  -8 2865.08 233.426   8
   8   2  -8 2797.43 216.357   8
  -8   2  -8 2810.29 223.362   8
   8   2  -7 11565.9 344.405   9
  -8   2  -7 11999.1 380.239   4
   8  -2  -7 12266.9 467.394   8
   8   2  -7 11887.2 439.811   8
  -8   2  -7 12835.6 474.454   8
   8   2  -6 2803.61 142.462   9
  -8   2  -6 2821.49 155.832   4
   8  -2  -6 3002.84 201.792   8
  -8  -2  -6 2906.13 183.204   8
   8   2  -6 3046.06 194.586   8
   8   2  -5 15754.7 389.875   9
  -8   2  -5 15949.6 420.930   4
  -8   2  -5 15649.1 360.948   9
   8  -2  -5 16966.6 490.705   8
  -8  -2  -5 16996.3 456.440   8
   8   2  -4 7957.73 233.727   9
  -8   2  -4 7482.22 210.268   9
  -8   2  -4 7636.48 247.628   4
   8   2  -4 7745.47 260.663   3
   8  -2  -4 8241.13 285.748   7
  -8  -2  -4 8287.72 291.387   7
   8  -2  -4 7366.10 227.250   5
   8   2  -3 25714.0 533.319   9
  -8  -2  -3 26525.4 533.957   6
  -8   2  -3 25837.7 516.995   9
   8   2  -3 26199.9 559.476   3
   8  -2  -3 25339.6 532.650   5
   8  -2  -3 26919.5 577.881   7
  -8  -2  -3 26888.1 583.943   7
  -8   2  -3 26167.2 490.214   3
  -8   2  -2 10671.6 220.955  10
   8   2  -2 10913.5 271.719   9
  -8  -2  -2 10928.4 273.885   6
  -8   2  -2 11309.9 268.183   9
   8  -2  -2 11565.2 286.345   5
   8   2  -2 10804.4 280.522   3
   8   2  -2 10644.8 220.837   5
   8  -2  -2 11263.5 286.095   7
  -8  -2  -2 11139.9 287.652   7
  -8  -2  -2 11155.1 279.877  10
  -8  -2  -1 41390.8 750.926   6
  -8   2  -1 40280.8 732.257   9
   8  -2  -1 41861.5 766.718   5
   8   2  -1 38422.8 678.622   5
   8   2  -1 38901.7 724.990   3
   8   2  -1 40018.4 726.607   9
  -8  -2  -1 38684.4 750.421  10
  -8  -2  -1 37519.6 723.648   7
  -8   2  -1 39583.6 694.670  10
   8  -2  -1 38651.8 722.936   7
  -8  -2   0 5131.81 188.707  10
  -8  -2   0 5214.40 185.394   6
   8   2   0 5106.98 156.470   9
  -8   2   0 5812.80 129.527   6
   8  -2   0 5229.93 156.357   7
   8  -2   0 5866.37 213.591   2
  -8   2   0 5113.63 170.196   9
   8   2   0 5788.46 161.625   5
   8  -2   0 5325.22 196.350   5
   8   2   0 5304.40 150.953   3
  -8   2   0 5221.81 157.285  10
  -8  -2   0 5093.83 155.929   7
  -8   2   1 44091.5 836.782   2
  -8  -2   1 43884.1 683.356   1
   8   2   1 39443.9 742.817   9
   8   2   1 37357.7 719.946   5
   8  -2   1 44744.1 835.735   5
  -8   2   1 40895.0 783.477   9
  -8  -2   1 40067.9 678.649   2
   8   2   1 41333.5 714.472   3
  -8  -2   1 41782.0 821.690  10
  -8   2   1 39207.2 723.342  10
   8  -2   1 42607.6 758.630   7
  -8  -2   1 41030.3 760.856   7
  -8  -2   2 11871.1 238.502   1
   8   2   2 10933.8 267.281   6
  -8  -2   2 11115.3 316.307  10
   8  -2   2 11666.7 318.514   5
  -8   2   2 11047.9 257.504  10
   8   2   3 25678.2 515.106   6
  -8  -2   3 26687.8 504.974   1
   8  -2   3 26475.9 564.924   5
  -8  -2   3 25632.8 557.774  10
  -8   2   3 26946.0 519.865  10
   8  -2   4 7527.85 240.370   5
  -8  -2   4 7149.33 232.719  10
  -8   2   4 8008.18 223.002  10
   8  -2   5 15874.5 404.892   5
  -8  -2   5 15798.0 399.250  10
  -8   2   5 16346.2 387.255  10
   8  -2   6 2389.57 137.649   5
  -8  -2   6 2389.97 135.367  10
  -8   2   6 2568.24 135.180  10
   8   2   7 11917.5 347.029  10
   8  -2   7 11560.8 360.519   5
  -8  -2   7 11675.0 355.060  10
  -8   2   7 12159.1 353.171  10
   8   2   8 2698.91 159.348  10
  -8   2   8 2830.86 165.624  10
   8  -2   8 2928.65 175.440   5
  -8  -2   8 2798.42 172.092  10
   8   3  -8 643.086 82.5736   9
  -8   3  -8 753.437 99.7932   4
   8   3  -8 580.471 105.597   8
   8   3  -7 10904.6 338.245   9
  -8   3  -7 11504.9 379.005   4
   8   3  -7 11155.1 433.301   8
   8   3  -6 1146.10 94.1541   9
  -8   3  -6 1147.10 105.117   4
  -8   3  -6 991.378 80.3833   9
   8   3  -6 1112.35 111.045   3
   8   3  -5 13451.6 356.225   9
  -8   3  -5 13279.3 338.279   9
  -8   3  -5 13968.1 393.236   4
   8   3  -5 13579.6 393.102   3
   8  -3  -5 13497.9 438.737   7
  -8  -3  -5 14160.5 452.536   7
   8   3  -4 2606.12 127.665   9
  -8   3  -4 2652.08 120.955   9
   8   3  -4 2636.82 141.230   3
   8  -3  -4 2808.73 167.119   7
  -8  -3  -4 2981.98 173.915   7
   8  -3  -4 2696.61 131.230   5
   8   3  -3 16605.6 384.512   9
  -8   3  -3 16114.7 374.506   9
   8  -3  -3 16311.2 391.435   5
   8  -3  -3 17017.9 437.229   7
  -8   3  -3 16828.7 365.061   3
  -8  -3  -3 17068.8 442.620   7
   8   3  -3 16917.8 405.331   3
  -8   3  -2 5055.63 164.280   3
   8   3  -2 5300.43 180.375   3
   8   3  -2 5161.84 171.464   9
  -8   3  -2 5248.29 174.184   9
   8  -3  -2 5473.33 203.397   7
  -8  -3  -2 5396.82 183.967  10
   8  -3  -2 5475.01 186.818   5
  -8  -3  -2 5687.45 209.371   7
   8   3  -1 21938.0 453.288   9
  -8   3  -1 21603.1 458.831   9
   8  -3  -1 22568.3 488.856   5
   8  -3  -1 22399.7 487.576   7
  -8  -3  -1 21352.0 474.765  10
  -8  -3  -1 21698.3 487.683   7
   8   3  -1 22084.7 455.326   3
   8   3   0 2690.54 107.275   9
  -8   3   0 2597.32 114.177   9
   8  -3   0 2644.28 134.736   5
   8  -3   0 2947.97 129.980   7
  -8  -3   0 2523.43 126.787  10
  -8  -3   0 2687.48 126.469   7
   8   3   0 2592.21 103.173   3
   8   3   1 22874.4 453.399   9
  -8   3   1 22954.0 457.339   6
  -8   3   1 23542.0 488.027   9
   8  -3   1 24062.0 548.856   5
  -8  -3   1 22448.3 529.935  10
  -8   3   1 22008.3 433.355  10
   8  -3   1 24477.5 518.869   7
  -8  -3   1 23811.6 517.625   7
   8   3   1 23796.5 445.725   3
   8  -3   2 6522.88 222.587   7
  -8  -3   2 5970.06 216.812   7
  -8   3   2 5970.41 189.250   6
   8  -3   2 6424.70 240.323   5
  -8   3   2 6116.84 198.246   9
  -8  -3   2 6348.84 234.695  10
  -8   3   2 6190.92 168.643  10
   8  -3   3 16032.1 422.384   5
  -8   3   3 16365.4 384.555   9
  -8  -3   3 15747.9 422.603  10
  -8   3   3 15894.1 350.377  10
   8  -3   4 2575.86 142.294   5
  -8  -3   4 2580.32 141.731  10
  -8   3   4 2537.44 115.558  10
   8  -3   5 12739.0 368.493   5
  -8  -3   5 12537.8 359.999  10
  -8   3   5 13375.4 335.665  10
   8  -3   6 1234.01 103.786   5
  -8  -3   6 1212.45 101.980  10
  -8   3   6 1273.22 96.8214  10
   8   3   7 10830.5 338.002  10
   8  -3   7 10936.7 355.970   5
  -8  -3   7 10544.8 343.513  10
  -8   3   7 10512.4 328.945  10
   8   3   8 651.123 84.5345  10
   8  -3   8 511.211 75.9729   5
  -8   3   8 607.973 81.9081  10
   8   4  -8 774.996 93.1802   9
   8   4  -7 1934.57 134.578   9
  -8   4  -7 1879.91 147.421   4
   8   4  -7 1956.77 159.028   3
   8   4  -6 811.017 85.4595   9
  -8   4  -6 823.399 80.7904   9
  -8   4  -6 903.805 98.3313   4
   8   4  -6 769.023 91.2923   3
   8  -4  -6 1009.03 131.422   7
  -8  -4  -6 892.324 120.988   7
   8   4  -5 5059.47 203.314   9
  -8   4  -5 5074.05 195.204   9
  -8   4  -5 5446.56 235.176   4
   8  -4  -5 5479.66 272.130   7
  -8  -4  -5 5567.21 278.464   7
   8   4  -5 5326.22 227.440   3
   8   4  -4 1485.58 109.107   3
  -8   4  -4 1444.45 95.9863   9
   8   4  -4 1471.98 99.2588   9
  -8   4  -4 1423.83 91.6370   3
   8  -4  -4 1564.32 134.367   7
  -8  -4  -4 1337.23 125.625   7
   8  -4  -4 1443.80 99.0482   5
   8   4  -3 3059.27 138.645   9
  -8   4  -3 2920.87 135.148   9
  -8  -4  -3 3196.48 180.449   7
  -8   4  -3 3197.79 136.763   3
   8  -4  -3 2787.06 136.107   5
   8  -4  -3 3412.81 182.790   7
   8   4  -3 3166.29 150.227   3
  -8   4  -2 797.244 66.6146   3
   8   4  -2 787.249 65.9087   9
  -8   4  -2 938.987 71.6101   9
  -8  -4  -2 840.008 87.0230   7
   8  -4  -2 843.149 88.6568   7
   8  -4  -2 809.225 70.5747   5
   8   4  -2 782.854 69.2475   3
  -8  -4  -2 790.044 71.0241  10
   8   4  -1 3536.91 138.202   9
  -8   4  -1 3345.37 141.750   9
   8  -4  -1 3622.65 156.067   5
  -8  -4  -1 3557.08 150.339  10
   8  -4  -1 3750.78 178.078   7
  -8  -4  -1 3793.51 181.014   7
   8   4  -1 3576.61 142.194   3
   8   4   0 2073.81 98.9617   3
   8   4   0 2109.99 98.5353   9
  -8  -4   0 2064.24 128.437   7
  -8   4   0 2086.68 106.963   9
   8  -4   0 2051.32 119.908   5
  -8  -4   0 2107.98 117.143  10
   8  -4   0 2166.21 130.590   7
   8   4   1 3860.61 132.054   3
   8   4   1 3717.54 129.654   9
  -8   4   1 3552.61 143.364   9
  -8  -4   1 3557.84 165.490  10
   8  -4   1 3560.02 171.904   5
  -8  -4   1 3989.12 187.733   7
  -8   4   2 404.862 47.9088   9
  -8  -4   2 478.988 69.5985  10
   8  -4   2 439.491 63.7435   5
   8  -4   2 542.120 73.0027   7
  -8  -4   2 413.408 63.5921   7
   8  -4   3 3356.40 181.317   7
  -8  -4   3 2988.94 170.835   7
  -8   4   3 2962.57 129.135   9
   8  -4   3 3281.23 180.838   5
  -8  -4   3 3247.27 173.394  10
   8  -4   4 1383.88 116.608   5
  -8  -4   4 1436.02 119.306  10
  -8   4   4 1331.97 83.3864  10
   8  -4   5 4943.83 225.609   5
  -8   4   5 4692.85 178.718  10
   8  -4   6 899.813 98.2606   5
  -8   4   6 793.759 77.8769  10
   8   4   7 1864.73 134.101  10
  -8   4   7 1876.79 128.308  10
  -8   5  -7 10089.3 336.762   9
   8  -5  -7 10897.7 478.519   7
  -8  -5  -7 10799.6 481.166   7
   8   5  -6 2002.67 137.387   9
  -8   5  -6 1967.46 130.896   9
  -8   5  -6 2279.86 162.919   4
   8  -5  -6 1955.42 184.072   7
  -8  -5  -6 1998.33 188.579   7
   8   5  -6 1863.34 145.686   3
   8   5  -5 15701.8 425.999   9
  -8   5  -5 15461.8 416.455   9
  -8   5  -5 16405.7 477.085   4
   8  -5  -5 16525.8 542.820   7
  -8  -5  -5 16120.2 542.502   7
   8   5  -5 16266.3 461.824   3
   8   5  -4 2396.71 146.378   3
   8   5  -4 2115.51 126.168   9
  -8   5  -4 2218.10 128.512   9
  -8   5  -4 2041.16 124.381   3
   8  -5  -4 2373.52 177.430   7
  -8  -5  -4 2141.01 169.749   7
   8   5  -3 22679.0 517.164   9
  -8   5  -3 22741.6 523.111   9
  -8   5  -3 22879.5 526.376   3
   8  -5  -3 22370.5 522.425   5
   8  -5  -3 24628.5 638.500   7
  -8  -5  -3 24313.6 642.195   7
   8   5  -3 23362.0 547.266   3
   8   5  -2 6988.38 225.234   9
  -8   5  -2 6892.18 231.012   9
   8  -5  -2 7603.14 302.299   7
  -8  -5  -2 7387.52 300.413   7
   8  -5  -2 6996.36 233.924   5
  -8   5  -2 6936.46 234.459   3
   8   5  -2 7257.61 241.931   3
   8   5  -1 27467.2 574.179   3
   8  -5  -1 28509.2 674.367   7
  -8   5  -1 26132.6 583.779   3
   8   5  -1 26202.8 554.843   9
  -8   5  -1 25633.1 563.530   9
   8  -5  -1 26203.1 577.874   5
  -8  -5  -1 27644.6 579.577  10
  -8  -5  -1 26816.2 666.950   7
   8   5   0 5192.15 181.032   3
   8   5   0 5210.47 176.443   9
  -8   5   0 4793.46 181.040   9
  -8  -5   0 5503.56 197.986  10
   8  -5   0 5128.82 199.518   5
  -8  -5   0 5397.48 241.072   7
   8  -5   0 5365.81 237.793   7
   8   5   1 27636.3 554.722   3
  -8   5   1 26587.8 569.296   9
  -8  -5   1 27747.1 602.495  10
   8  -5   1 25970.5 610.405   5
  -8  -5   1 27176.7 671.190   7
  -8   5   2 6628.74 212.584   9
   8  -5   2 6472.28 256.175   5
   8  -5   2 7608.44 296.770   7
  -8  -5   2 6928.35 287.194   7
   8  -5   3 25036.2 657.052   7
  -8  -5   3 25050.9 657.228   7
   8  -5   4 2799.72 192.684   7
  -8  -5   4 2446.21 178.405   7
   8  -6  -6 43.5414 50.8421   7
  -8  -6  -6-18.2044 71.9345   7
   8  -6  -5 686.199 117.488   7
  -8  -6  -5 508.711 102.834   7
   8   6  -5 597.541 77.8550   9
  -8   6  -5 585.458 79.9303   9
  -8   6  -5 633.391 89.4609   4
   8   6  -5 626.559 86.4968   3
  -8  -6  -4 49.9633 42.0788   7
   8  -6  -4 32.8090 40.8496   7
   8   6  -4 157.300 46.5183   3
   8   6  -4 10.9779 29.7528   9
  -8   6  -4 14.5115 29.6213   9
  -8   6  -4 37.3091 26.5150   3
  -8  -6  -3 790.181 115.142   7
   8   6  -3 555.597 67.9797   9
  -8   6  -3 557.678 69.5619   9
   8  -6  -3 796.050 112.801   7
   8   6  -3 538.193 70.3162   3
  -8   6  -3 607.584 71.9883   3
   8  -6  -3 760.994 75.5907   5
  -8   6  -2 95.1514 36.9782   3
   8  -6  -2-14.5788 43.9681   7
  -8  -6  -2 38.1613 39.4111   7
   8   6  -2 36.8295 23.4658   3
  -8   6  -2 22.8276 29.4561   9
   8   6  -1 747.274 77.0954   3
   8   6  -1 594.033 62.6693   9
  -8   6  -1 743.367 75.1436   9
   8  -6  -1 817.435 107.750   7
  -8  -6  -1 607.263 96.1872   7
  -8   6  -1 727.421 77.9136   3
   8  -6   0 293.614 67.7016   7
  -8  -6   0 253.905 63.6843   7
  -8   6   0 308.026 51.2697   9
   8   6   0 301.750 47.2022   3
  -8   6   0 310.642 55.2588   3
  -8   6   1 821.666 74.7945   9
   8  -6   1 1045.61 117.040   7
  -8  -6   1 1059.77 117.149   7
   8  -6   2-13.4992 36.8503   7
  -8  -6   2 1.31674 41.3908   7
   8  -6   3 555.199 95.1342   7
  -8  -6   3 639.493 97.1310   7
   8  -6   4 108.532 52.4666   7
  -8  -6   4 49.2580 53.8560   7
   8  -6   5 645.149 113.253   7
  -8  -6   5 492.755 95.6162   7
   8  -6   6 2.61290 49.2055   7
  -8  -6   6 34.2980 48.0343   7
   8   7  -4 2259.55 147.667   9
  -8   7  -4 2317.58 160.238   3
   8  -7  -4 2679.01 221.792   7
  -8  -7  -4 2496.95 219.690   7
  -8  -7  -3 10568.7 452.652   7
   8   7  -3 9157.56 312.936   9
  -8   7  -3 9860.34 329.617   9
  -8   7  -3 9795.90 342.450   3
   8  -7  -3 10894.5 456.541   7
   8   7  -3 10693.6 359.625   3
   8   7  -2 977.260 97.2232   3
   8   7  -2 830.945 83.4085   9
  -8   7  -2 946.125 92.9369   9
   8  -7  -2 1283.22 146.943   7
  -8  -7  -2 948.411 126.216   7
  -8   7  -2 902.232 94.5970   3
   8   7  -1 14439.3 408.109   3
  -8   7  -1 13267.8 386.216   9
   8  -7  -1 15331.5 523.976   7
  -8   7  -1 13822.3 417.245   3
  -8  -7  -1 14686.7 521.853   7
  -8  -7   0 1731.25 169.284   7
   8   7   0 1803.59 120.505   3
  -8   7   0 1684.35 116.401   9
   8  -7   0 1917.99 174.202   7
  -8   7   0 1639.54 127.324   3
  -8   7   1 14126.0 425.533   3
   8  -7   1 14083.8 494.790   7
  -8  -7   1 13916.6 498.577   7
  -8   7   2 1091.04 110.365   3
   8  -7   2 1040.88 130.494   7
  -8  -7   2 1002.05 127.292   7
   8  -7   3 10472.9 440.743   7
  -8  -7   3 9854.82 428.087   7
   8  -7   4 2394.43 211.593   7
  -8  -7   4 1998.46 188.887   7
   8   8  -1 5553.11 246.566   3
  -8   8  -1 5094.94 226.864   9
  -8  -8  -1 5505.54 327.591   7
   8  -8   0 627.053 118.576   7
  -8  -8   0 667.096 120.154   7
  -8  -8   1 4829.94 301.045   7
  -9   0  -9 66.8934 36.6009   4
   9   0  -9-14.1442 54.2772   8
  -9   0  -8-3.08713 31.9358   4
   9   0  -8-33.4235 55.1519   8
  -9   0  -7 14.2333 28.1853   4
   9   0  -7-26.4332 50.5118   8
   9   0  -6-8.64937 35.5782   9
  -9   0  -6 37.9656 34.1098   4
   9   0  -6-12.1535 38.7706   8
   9   0  -5 2.11763 31.5156   9
  -9   0  -5 9.52375 21.2359   4
   9   0  -5 9.54330 30.4248   8
   9   0  -4 46.5046 30.6984   9
  -9   0  -4 23.0584 18.4797   4
   9   0  -4 54.0984 30.4321   8
  -9   0  -4 17.3982 24.3264   8
   9   0  -3 0.20593 32.2990   9
  -9   0  -3 38.9453 18.5231   9
  -9   0  -3 30.1521 17.4592   1
  -9   0  -3 48.4187 17.4232   4
   9   0  -3 19.4320 20.9213   8
  -9   0  -3 41.5671 23.1680   8
   9   0  -3 53.2957 19.8800   5
  -9   0  -2 21.3442 18.2095  10
  -9   0  -2 9.96070 9.22660   6
   9   0  -2 27.1841 30.9854   9
  -9   0  -2 38.8296 21.4080   9
   9   0  -2 7.78261 16.7858   8
   9   0  -2-4.35937 18.0510   5
  -9   0  -1 51.6101 24.4103  10
  -9   0  -1 19.7690 13.9569   6
   9   0  -1 40.1982 13.9759   8
  -9   0   0 40.9773 30.3468  10
   9   0   0 75.6180 26.6453   2
   9   0   0 37.9471 28.0959   5
  -9   0   1 10.5034 24.1257  10
  -9   0   1 25.1910 16.7961   2
   9   0   1 8.28537 21.8927   5
  -9   0   2 7.01628 18.6010  10
   9   0   2 43.6749 24.9494   5
  -9   0   2 6.18929 12.7832   2
  -9   0   3 105.579 26.7249  10
   9   0   3 4.46286 16.8791   5
  -9   0   4 5.53473 22.7381  10
   9   0   4 20.4595 22.3960   5
  -9   0   5 39.0541 34.9142  10
  -9   0   6 41.0397 34.3447  10
  -9   0   7 12.1662 28.9361  10
   9   0   7 29.2534 25.6840  10
  -9   0   8 41.3466 39.6752  10
   9   0   8 44.0697 37.4919  10
  -9  -1  -8 3171.87 185.247   4
  -9   1  -8 3173.48 189.845   4
   9  -1  -8 3350.27 241.198   8
   9   1  -8 3217.12 225.424   8
  -9  -1  -7 15406.4 431.344   4
  -9   1  -7 15377.3 442.484   4
   9  -1  -7 15817.9 522.566   8
   9   1  -7 15380.7 498.559   8
  -9  -1  -6 6607.16 236.422   4
   9   1  -6 6501.84 235.625   9
  -9   1  -6 6430.86 243.980   4
   9  -1  -6 6994.44 300.433   8
   9   1  -6 6586.23 282.301   8
  -9   1  -6 7027.79 292.737   8
  -9  -1  -5 19822.1 454.946   4
   9   1  -5 19203.7 461.600   9
  -9   1  -5 19053.2 468.127   4
   9  -1  -5 19412.6 528.172   8
   9   1  -5 19962.1 514.945   8
   9   1  -4 13001.2 335.945   9
  -9   1  -4 12932.1 298.428   9
  -9   1  -4 12818.9 337.290   4
   9  -1  -4 13426.6 377.878   8
   9   1  -4 13443.8 366.393   8
  -9  -1  -4 13413.1 318.249   4
   9  -1  -4 12473.8 319.090   5
   9   1  -3 29152.2 591.981   9
  -9  -1  -3 28593.6 549.305   6
  -9  -1  -3 29580.6 551.805   4
  -9   1  -3 28836.2 556.521   9
  -9  -1  -3 29594.4 546.451   9
  -9  -1  -3 27641.9 543.295   1
   9  -1  -3 29102.6 608.969   8
   9   1  -3 29582.8 599.385   8
   9  -1  -3 29070.8 577.191   5
   9   1  -3 27902.1 540.672   5
   9   1  -2 11346.8 290.751   9
  -9  -1  -2 11538.1 258.069   6
  -9  -1  -2 10954.5 245.388   4
  -9  -1  -2 10740.3 280.626  10
  -9   1  -2 11270.1 274.087   9
   9  -1  -2 11556.5 288.176   5
   9   1  -2 11210.1 268.649   8
   9   1  -2 11224.6 254.215   5
  -9  -1  -2 11329.1 243.587   1
  -9   1  -2 10863.6 255.172  10
   9   1  -1 42197.7 815.884   9
  -9   1  -1 45941.1 717.613   6
  -9  -1  -1 44771.6 793.181   6
  -9   1  -1 43244.6 816.109   9
   9   1  -1 42016.5 791.196   5
   9  -1  -1 43838.6 834.401   5
   9  -1  -1 42960.9 750.192   7
  -9  -1  -1 42392.2 752.476   7
  -9  -1  -1 42123.2 825.118  10
  -9   1  -1 42340.1 799.415  10
   9   1   0 35990.1 674.621   5
   9  -1   0 34396.1 689.561   2
   9  -1   0 35825.2 708.965   5
  -9  -1   0 34426.5 702.518  10
  -9   1   0 34561.1 673.737  10
   9  -1   1 44809.2 752.441   7
  -9  -1   1 43267.7 755.493   7
  -9   1   1 43401.5 802.343  10
   9   1   1 43264.5 804.839   5
  -9  -1   1 44577.5 863.166  10
  -9  -1   1 44028.5 763.184   2
   9  -1   1 43223.2 861.202   5
   9   1   2 11325.9 246.655   6
   9   1   2 11160.7 264.826   5
   9  -1   2 10918.3 292.836   5
  -9   1   2 10373.8 270.201   2
  -9  -1   2 10657.0 291.977  10
  -9   1   2 10527.9 261.795  10
   9   1   3 26946.6 522.089   6
   9   1   3 28802.3 561.913   5
   9  -1   3 29690.4 591.427   5
  -9   1   3 28966.8 563.185  10
  -9  -1   3 27642.9 578.719  10
   9  -1   4 13852.0 350.981   5
  -9  -1   4 13502.1 346.356  10
  -9   1   4 14103.0 340.563  10
   9  -1   5 18587.0 452.000   5
  -9  -1   5 19334.2 453.189  10
  -9   1   5 19261.0 445.689  10
   9  -1   6 5847.68 224.178   5
  -9  -1   6 5919.73 223.532  10
  -9   1   6 5966.12 219.366  10
   9   1   7 14541.8 393.444  10
  -9  -1   7 14975.5 416.775  10
  -9   1   7 15168.6 413.875  10
   9   1   8 2952.72 162.700  10
  -9  -1   8 3289.95 183.526  10
  -9   1   8 2918.94 172.702  10
   9   1   9 7339.64 283.782  10
  -9   2  -8 518.839 85.6865   4
   9  -2  -8 609.602 116.361   8
   9   2  -8 567.628 111.353   8
   9   2  -7 6060.42 238.569   9
  -9   2  -7 6020.90 260.987   4
   9  -2  -7 6613.05 325.940   8
   9   2  -7 6499.47 306.239   8
  -9   2  -7 7131.04 331.420   8
   9   2  -6 2540.20 141.325   9
  -9   2  -6 2840.62 161.565   4
   9  -2  -6 2804.97 193.497   8
   9   2  -6 2840.94 183.805   8
   9   2  -5 6623.94 226.405   9
  -9   2  -5 6331.53 199.000   9
  -9   2  -5 6764.50 247.575   4
   9  -2  -5 6963.82 286.290   8
   9   2  -5 6759.34 268.828   8
   9   2  -4 2149.69 115.373   9
  -9   2  -4 2040.13 100.016   9
  -9   2  -4 2069.49 122.120   4
   9  -2  -4 2134.35 135.634   7
  -9  -2  -4 2244.34 140.531   7
   9  -2  -4 1938.66 108.338   5
   9   2  -3 10068.4 273.717   9
  -9   2  -3 10072.9 260.106   9
   9   2  -3 9873.00 292.900   3
   9  -2  -3 9760.28 271.769   5
   9  -2  -3 9939.29 290.503   7
  -9  -2  -3 10617.8 300.850   7
   9   2  -2 2240.65 108.178   9
  -9  -2  -2 2356.18 109.377   6
  -9   2  -2 2430.65 108.472   9
   9  -2  -2 2439.83 118.668   5
   9   2  -2 2226.12 113.338   3
   9  -2  -2 2404.01 111.818   7
  -9  -2  -2 2333.35 111.737   7
  -9  -2  -2 2179.64 112.165  10
   9   2  -1 10355.0 264.321   9
  -9  -2  -1 10272.9 275.022   6
  -9   2  -1 10290.6 269.515   9
   9   2  -1 10380.6 231.193   5
   9  -2  -1 11048.4 297.232   5
   9   2  -1 10297.5 262.295   3
  -9  -2  -1 10249.4 284.094  10
   9  -2  -1 10490.3 251.436   7
  -9  -2  -1 10366.6 253.180   7
  -9   2  -1 9877.65 240.124  10
  -9  -2   0 3077.23 141.206   6
   9   2   0 3022.21 122.101   9
  -9   2   0 3360.28 92.3561   6
  -9   2   0 3151.11 134.845   9
   9   2   0 3413.23 122.652   5
  -9  -2   0 2910.96 108.117   7
   9  -2   0 3308.26 155.341   5
   9   2   0 2994.23 112.293   3
  -9  -2   0 2934.98 143.953  10
  -9   2   0 3043.56 120.416  10
   9  -2   0 3068.10 109.297   7
   9   2   1 9370.84 247.015   9
   9   2   1 9184.99 227.797   5
  -9  -2   1 10206.8 300.510  10
   9  -2   1 10121.3 300.779   5
  -9   2   1 9693.99 276.408   9
   9   2   1 9623.31 217.994   3
  -9   2   1 8907.54 225.807  10
   9  -2   1 9830.73 239.703   7
  -9  -2   1 9501.45 240.076   7
  -9  -2   2 2209.75 130.186  10
   9   2   2 2174.27 99.4465   6
   9   2   2 2354.88 95.3755   5
   9  -2   2 2224.65 128.463   5
  -9   2   2 2232.66 96.2378  10
   9   2   3 8129.85 220.611   6
   9  -2   3 8488.19 265.534   5
  -9  -2   3 8384.91 262.268  10
  -9   2   3 8595.25 230.097  10
   9  -2   4 2520.30 134.709   5
  -9  -2   4 2416.35 129.850  10
  -9   2   4 2607.38 119.897  10
   9  -2   5 5725.03 217.506   5
  -9  -2   5 5638.03 213.112  10
  -9   2   5 5762.20 200.709  10
   9  -2   6 2284.78 139.238   5
  -9  -2   6 2361.06 138.503  10
  -9   2   6 2392.09 132.872  10
   9   2   7 6071.32 234.583  10
   9  -2   7 5901.23 246.055   5
  -9  -2   7 5646.46 236.936  10
  -9   2   7 6100.33 237.217  10
   9   2   8 471.678 72.7658  10
   9  -2   8 549.414 81.1272   5
  -9  -2   8 547.543 80.2633  10
  -9   2   8 536.176 77.9371  10
   9   3  -8 946.470 99.1491   9
  -9   3  -8 1166.04 120.669   4
   9   3  -8 939.928 131.211   8
   9   3  -7 5294.91 225.395   9
  -9   3  -7 5387.72 251.526   4
   9   3  -7 5716.46 294.944   8
   9   3  -6 3347.52 167.538   9
  -9   3  -6 3865.10 198.980   4
  -9   3  -6 3341.73 150.397   9
   9   3  -6 3410.50 197.433   3
   9   3  -5 11951.3 335.523   9
  -9   3  -5 11441.7 312.837   9
  -9   3  -5 12267.6 371.802   4
   9   3  -5 11858.6 371.341   3
   9  -3  -5 12616.1 408.941   7
  -9  -3  -5 12850.2 418.736   7
   9   3  -4 2402.22 126.576   9
  -9   3  -4 2447.92 118.936   9
   9   3  -4 2495.31 141.217   3
   9  -3  -4 2649.37 158.005   7
  -9  -3  -4 2623.42 159.516   7
   9  -3  -4 2359.64 126.036   5
   9   3  -3 8543.57 248.717   9
  -9   3  -3 8031.71 236.863   9
   9  -3  -3 8025.51 250.412   5
   9   3  -3 8292.44 260.233   3
   9  -3  -3 8346.93 274.483   7
  -9  -3  -3 8405.59 278.514   7
  -9   3  -3 8186.56 224.047   3
   9   3  -2 5277.91 180.110   9
  -9   3  -2 5256.64 171.199   3
  -9   3  -2 5215.02 178.823   9
   9  -3  -2 5492.10 198.268   7
   9  -3  -2 5114.02 189.630   5
  -9  -3  -2 5155.87 189.197  10
   9   3  -2 5200.10 183.600   3
  -9  -3  -2 5349.06 200.113   7
   9   3  -1 9768.17 255.477   9
   9  -3  -1 9774.76 268.253   7
  -9   3  -1 9161.34 256.905   9
  -9  -3  -1 9456.87 267.956   7
   9  -3  -1 9810.26 285.855   5
   9   3  -1 9313.04 253.642   3
  -9  -3  -1 9298.03 273.854  10
   9  -3   0 3637.17 144.304   7
   9   3   0 3523.59 131.774   9
  -9   3   0 3434.93 141.648   9
   9  -3   0 3440.97 163.405   5
  -9  -3   0 3344.18 156.137  10
   9   3   0 3663.51 128.439   3
  -9  -3   0 3306.79 139.763   7
   9   3   1 9558.03 243.602   9
  -9   3   1 9684.65 274.582   9
   9  -3   1 10755.6 323.203   5
  -9  -3   1 9650.71 305.030  10
   9   3   1 9920.52 232.509   3
   9  -3   1 10207.7 280.016   7
  -9  -3   1 9847.69 279.014   7
   9  -3   2 5233.07 192.864   7
  -9  -3   2 4744.71 185.957   7
  -9   3   2 4587.82 166.466   6
   9  -3   2 5083.26 214.559   5
  -9   3   2 4969.76 184.584   9
  -9  -3   2 4908.09 208.379  10
  -9   3   2 4870.70 150.094  10
   9  -3   3 8636.51 295.524   5
  -9   3   3 8704.08 268.532   9
  -9  -3   3 8424.21 290.894  10
  -9   3   3 9056.56 236.361  10
   9  -3   4 2048.27 131.614   5
  -9   3   4 2084.01 122.608   9
  -9  -3   4 1916.07 126.989  10
  -9   3   4 2099.44 106.760  10
  -9  -3   5 10683.4 333.742  10
   9  -3   5 11077.7 342.997   5
  -9   3   5 11035.0 303.637  10
   9  -3   6 3248.80 178.209   5
  -9  -3   6 3342.70 175.977  10
  -9   3   6 3542.27 164.950  10
   9   3   7 5491.30 231.783  10
   9  -3   7 5790.72 247.184   5
  -9  -3   7 5318.52 236.478  10
  -9   3   7 5207.29 220.225  10
   9   3   8 993.676 104.208  10
   9  -3   8 1010.08 106.243   5
  -9   3   8 1110.50 107.187  10
   9   4  -7 8730.04 311.430   9
  -9   4  -7 9303.01 355.255   4
   9   4  -7 8865.52 359.674   3
   9   4  -6 3037.39 163.938   9
  -9   4  -6 2732.25 146.608   9
  -9   4  -6 3051.02 186.178   4
   9   4  -6 3097.91 187.587   3
   9  -4  -6 3329.45 221.260   7
  -9  -4  -6 2929.61 213.936   7
   9   4  -5 16203.3 421.105   9
  -9   4  -5 15553.4 404.291   9
  -9   4  -5 16805.6 474.188   4
   9   4  -5 16425.1 459.264   3
   9  -4  -5 16294.8 503.524   7
  -9  -4  -5 16195.2 509.081   7
   9   4  -4 5486.22 205.727   9
  -9   4  -4 5331.06 199.116   9
   9  -4  -4 5941.67 258.545   7
   9  -4  -4 5301.58 207.963   5
  -9  -4  -4 5826.85 259.971   7
   9   4  -4 5553.26 224.555   3
   9   4  -3 21132.5 481.479   9
  -9   4  -3 20924.0 477.483   9
  -9  -4  -3 21647.6 548.996   7
   9  -4  -3 20670.9 493.316   5
  -9   4  -3 21512.9 473.680   3
   9  -4  -3 21228.3 541.248   7
   9   4  -3 21764.7 505.272   3
  -9   4  -2 5189.72 186.615   3
   9   4  -2 5244.87 184.898   9
  -9   4  -2 5182.28 188.924   9
   9  -4  -2 5719.83 229.634   7
   9  -4  -2 5393.47 201.273   5
  -9  -4  -2 5353.24 199.000  10
  -9  -4  -2 5465.48 226.122   7
   9   4  -2 5264.50 193.920   3
   9   4  -1 28396.7 575.469   9
  -9   4  -1 28055.7 588.489   9
  -9  -4  -1 28438.3 605.755  10
   9  -4  -1 27299.2 610.993   5
   9  -4  -1 28289.5 627.241   7
  -9  -4  -1 27643.2 629.075   7
   9   4  -1 28922.0 583.906   3
   9   4   0 15572.8 359.070   9
  -9   4   0 15692.1 378.790   9
   9  -4   0 15544.5 413.017   5
  -9  -4   0 15318.3 401.252  10
   9  -4   0 16137.7 413.711   7
  -9  -4   0 15920.3 413.734   7
   9   4   0 16050.0 360.824   3
   9   4   1 30223.8 571.987   3
   9   4   1 30387.2 578.475   9
  -9   4   1 29132.9 606.938   9
   9  -4   1 27591.7 656.553   5
  -9  -4   1 27403.7 643.043  10
   9  -4   1 31083.7 663.521   7
  -9  -4   1 30335.6 665.220   7
  -9   4   2 4966.78 182.768   9
   9  -4   2 5042.30 223.986   5
  -9  -4   2 5066.93 219.821  10
   9  -4   2 5546.59 222.673   7
  -9  -4   2 5000.30 214.975   7
   9  -4   3 23208.9 567.967   7
  -9  -4   3 21435.2 550.670   7
  -9   4   3 21708.7 489.275   9
   9  -4   3 22561.5 576.073   5
  -9  -4   3 22282.3 562.658  10
   9  -4   4 6116.22 261.989   5
  -9  -4   4 6115.91 258.879  10
  -9   4   4 5993.41 196.607  10
   9  -4   5 15912.2 462.679   5
  -9  -4   5 15116.4 451.270  10
  -9   4   5 15680.2 388.595  10
   9  -4   6 3085.32 184.742   5
  -9   4   6 3024.45 153.331  10
   9   4   7 8690.40 311.294  10
  -9   4   7 8304.66 292.313  10
   9  -5  -7 374.290 100.480   7
  -9  -5  -7 303.197 96.3711   7
  -9   5  -7 168.036 50.1257   9
   9  -5  -6 144.948 64.3963   7
  -9  -5  -6 32.4643 54.7351   7
   9   5  -6 66.5960 43.6130   3
   9   5  -6 141.207 47.0280   9
  -9   5  -6 105.896 44.1419   9
  -9   5  -6 48.8885 29.1770   4
   9  -5  -5 180.836 68.3352   7
  -9  -5  -5 146.896 64.9179   7
   9   5  -5 72.0356 38.0966   3
   9   5  -5 187.653 50.9607   9
  -9   5  -5 136.963 40.6681   9
  -9   5  -5 175.515 48.9253   4
   9  -5  -4 294.050 67.1679   7
  -9  -5  -4 300.831 65.1163   7
   9   5  -4 303.750 59.3335   3
   9   5  -4 257.592 52.2770   9
  -9   5  -4 290.080 52.8237   9
  -9   5  -4 296.095 48.1768   3
   9  -5  -4 351.762 56.0968   5
   9   5  -3 692.289 71.4213   9
  -9   5  -3 661.430 71.4724   9
   9  -5  -3 742.771 96.2447   7
  -9   5  -3 898.631 76.8126   3
   9  -5  -3 696.012 72.6362   5
  -9  -5  -3 860.161 104.552   7
   9   5  -3 761.570 85.2974   3
   9  -5  -2 466.508 73.9801   7
   9   5  -2 484.301 58.7062   9
  -9   5  -2 512.018 63.2349   9
   9   5  -2 465.422 60.9254   3
  -9  -5  -2 814.248 94.2759   7
   9  -5  -2 455.442 60.3124   5
  -9   5  -2 578.615 65.4761   3
  -9   5  -1 2103.27 124.816   3
   9   5  -1 2005.01 109.906   9
  -9   5  -1 2018.54 116.218   9
   9  -5  -1 1874.50 119.479   5
  -9  -5  -1 2012.50 121.116  10
   9  -5  -1 2129.03 146.432   7
  -9  -5  -1 2168.33 148.784   7
   9   5  -1 1851.18 110.211   3
   9  -5   0 48.9661 29.1256   5
  -9  -5   0 41.2770 29.7598  10
   9  -5   0 19.2632 31.9019   7
  -9  -5   0 30.8915 36.8986   7
   9   5   0 31.2849 22.6607   3
   9   5   0 71.6608 29.9008   9
  -9   5   0 52.9170 30.1478   9
  -9   5   1 1988.04 112.921   9
  -9  -5   1 1897.53 122.798  10
   9  -5   1 1917.65 129.142   5
   9  -5   1 1930.95 137.441   7
  -9  -5   1 1786.81 135.472   7
  -9  -5   2 362.412 60.7837  10
  -9  -5   2 462.966 74.4019   7
  -9   5   2 483.217 57.3912   9
   9  -5   2 507.374 71.0493   5
   9  -5   2 461.598 74.2380   7
   9  -5   3 618.244 81.8661   5
   9  -5   3 863.353 101.093   7
  -9  -5   3 727.335 92.7583   7
   9  -5   4 302.534 68.0816   7
  -9  -5   4 253.885 63.7930   7
   9  -5   5 221.697 65.8641   7
   9  -6  -6 2421.50 214.611   7
  -9  -6  -6 2612.53 225.081   7
   9   6  -5 9287.00 323.709   9
  -9   6  -5 9955.61 331.152   9
  -9   6  -5 9965.69 378.653   4
   9  -6  -5 9797.77 423.536   7
  -9  -6  -5 9773.42 424.864   7
   9   6  -5 9567.82 355.510   3
   9   6  -4 3351.09 173.854   9
  -9   6  -4 3311.54 173.681   9
  -9   6  -4 3225.34 176.096   3
   9   6  -4 3686.23 197.250   3
   9  -6  -4 3533.51 231.876   7
  -9  -6  -4 3277.19 226.328   7
  -9  -6  -3 11498.3 428.324   7
   9   6  -3 10279.1 319.489   9
  -9   6  -3 10259.8 325.644   9
  -9   6  -3 10159.4 332.907   3
   9  -6  -3 10548.4 325.200   5
   9  -6  -3 11897.6 428.696   7
   9   6  -3 10487.5 344.147   3
   9   6  -2 2842.90 146.689   9
  -9   6  -2 2917.71 155.053   9
   9  -6  -2 3052.70 155.713   5
   9  -6  -2 3362.59 210.486   7
  -9   6  -2 2978.34 161.181   3
  -9  -6  -2 3175.44 207.008   7
   9   6  -2 2943.58 159.145   3
   9   6  -1 19204.6 473.974   3
   9   6  -1 18716.8 453.567   9
  -9   6  -1 18572.1 466.871   9
  -9  -6  -1 20037.6 479.048  10
   9  -6  -1 20243.5 569.325   7
  -9  -6  -1 19986.9 572.353   7
  -9   6  -1 19240.1 494.809   3
   9   6   0 3458.47 157.666   3
  -9   6   0 3659.91 183.775   3
  -9   6   0 3287.16 158.039   9
   9  -6   0 3716.08 214.200   7
  -9  -6   0 3408.99 207.043   7
  -9   6   1 18532.1 452.533   9
  -9  -6   1 19169.5 553.817   7
   9  -6   1 20207.4 557.456   7
   9  -6   2 3226.70 204.619   7
  -9  -6   2 3009.83 199.628   7
   9  -6   3 11602.5 422.587   7
  -9  -6   3 11109.6 414.961   7
   9  -6   4 3460.91 229.815   7
  -9  -6   4 3258.96 219.463   7
   9  -6   5 10299.2 434.691   7
  -9  -6   5 8899.86 395.609   7
   9  -6   6 2844.90 231.410   7
  -9  -6   6 2550.60 210.066   7
   9  -7  -4 707.515 112.590   7
  -9   7  -4 792.349 96.4120   3
  -9  -7  -4 1057.76 145.723   7
   9   7  -3 1842.65 130.383   9
  -9   7  -3 1815.98 132.209   9
  -9   7  -3 1827.32 139.056   3
   9  -7  -3 2122.51 193.067   7
  -9  -7  -3 2135.08 195.026   7
   9   7  -3 2006.88 145.328   3
   9   7  -2 1280.65 105.647   9
  -9   7  -2 1481.37 117.664   9
  -9   7  -2 1690.38 130.930   3
   9  -7  -2 1547.33 158.107   7
  -9  -7  -2 1546.47 157.240   7
   9   7  -2 1215.32 109.105   3
   9   7  -1 2726.05 157.137   3
  -9   7  -1 2716.66 155.357   9
   9  -7  -1 2971.08 211.145   7
  -9   7  -1 2874.77 172.642   3
  -9  -7  -1 2837.01 209.970   7
  -9   7   0 1241.36 103.677   9
   9  -7   0 1608.13 157.074   7
  -9  -7   0 1550.27 154.467   7
  -9   7   0 1270.07 115.264   3
  -9   7   1 2835.58 176.501   3
   9  -7   1 2776.96 201.869   7
  -9  -7   1 2517.34 195.349   7
   9  -7   2 1547.66 154.037   7
  -9  -7   2 1507.71 155.564   7
   9  -7   3 2127.57 188.308   7
  -9  -7   3 1935.98 178.284   7
   9  -7   4 1011.21 136.584   7
  -9  -7   4 881.228 124.705   7
  -9  -8   0 936.037 136.086   7
 -10   0  -8 12638.2 410.016   4
  10   0  -8 12562.1 475.664   8
 -10   0  -7 1780.49 130.034   4
  10   0  -7 2287.97 174.945   8
  10   0  -6 27567.3 646.736   9
 -10   0  -6 28121.9 632.538   4
  10   0  -6 27696.8 693.110   8
  10   0  -5 533.271 70.3772   9
 -10   0  -5 609.436 65.4625   4
  10   0  -5 549.171 72.7763   8
  10   0  -4 29339.2 638.329   9
 -10   0  -4 28624.7 592.825   4
  10   0  -4 29081.6 628.195   8
  10   0  -4 27971.3 577.460   5
  10   0  -3 1440.43 104.677   9
 -10   0  -3 1364.78 81.3309   4
 -10   0  -3 1453.42 80.3327   9
  10   0  -3 1457.62 89.0952   8
  10   0  -3 1341.80 80.3990   5
 -10   0  -3 1356.68 80.8926  10
  10   0  -2 37479.7 764.410   9
 -10   0  -2 36341.5 707.218   9
  10   0  -2 35869.1 672.389   8
  10   0  -2 37634.8 704.463   5
 -10   0  -2 36436.8 702.141  10
 -10   0  -1 7411.63 178.164   6
 -10   0  -1 6759.05 218.177  10
  10   0  -1 6970.40 219.720   5
 -10   0   0 60397.0 1088.85  10
  10   0   0 60108.8 1087.81   5
 -10   0   1 7207.46 205.393   2
  10   0   1 7093.58 227.639   5
 -10   0   1 6761.86 223.147  10
  10   0   2 36234.0 695.457   5
 -10   0   2 34710.2 655.876   2
 -10   0   2 35188.8 689.093  10
  10   0   3 1206.54 81.5963   5
 -10   0   3 1153.79 80.7677  10
  10   0   4 28176.7 606.142   5
 -10   0   4 30355.5 614.855  10
  10   0   5 650.200 67.4225   5
 -10   0   5 774.087 75.6235  10
 -10   0   6 28102.8 626.520  10
  10   0   7 1563.21 105.880  10
 -10   0   7 1628.19 122.986  10
 -10   0   8 12770.6 404.749  10
 -10   1  -8 1512.94 133.612   4
  10  -1  -8 1735.88 173.217   8
  10   1  -8 1478.98 151.201   8
  10   1  -7 81.6556 46.4307   9
 -10  -1  -7 185.502 44.0831   4
 -10   1  -7 80.8177 43.9507   4
  10  -1  -7 68.6154 55.4206   8
  10   1  -7 72.6124 47.5605   8
 -10  -1  -6 3079.57 155.311   4
  10   1  -6 3209.00 165.244   9
 -10   1  -6 3085.39 166.157   4
  10  -1  -6 3363.81 201.038   8
  10   1  -6 3316.90 190.393   8
  10   1  -5 352.974 57.4679   9
 -10  -1  -5 225.661 43.3697   4
 -10   1  -5 202.588 45.5749   4
  10  -1  -5 238.718 54.7282   8
  10   1  -5 204.821 48.2261   8
  10   1  -4 3601.48 159.643   9
 -10  -1  -4 3801.38 144.063   4
 -10   1  -4 3474.75 130.838   9
 -10   1  -4 3372.09 153.484   4
  10  -1  -4 3699.56 175.793   8
  10   1  -4 3433.69 160.557   8
  10  -1  -4 3300.09 143.265   5
  10   1  -3 908.581 77.3293   9
 -10  -1  -3 1001.44 62.8490   4
 -10   1  -3 860.629 63.3312   9
 -10  -1  -3 994.352 65.0870   9
 -10  -1  -3 924.925 72.2183  10
  10  -1  -3 971.346 77.9378   8
  10   1  -3 875.526 68.7418   8
 -10  -1  -3 857.282 58.1419   1
  10  -1  -3 871.833 70.6238   5
  10   1  -3 885.239 59.3049   5
  10   1  -2 5360.29 188.876   9
 -10  -1  -2 5303.00 146.011   1
 -10  -1  -2 5184.94 156.285   6
 -10  -1  -2 5197.17 146.222   4
 -10   1  -2 5223.15 174.958   9
  10  -1  -2 5418.81 187.034   5
  10   1  -2 5206.35 157.874   8
  10   1  -2 5229.30 159.544   5
 -10   1  -2 5049.02 159.905  10
 -10  -1  -2 5000.50 179.259  10
 -10  -1  -1 231.985 44.7065  10
 -10   1  -1 156.431 31.5973  10
 -10  -1  -1 161.328 28.2756   6
  10  -1  -1 183.438 40.5051   5
  10   1  -1 228.002 42.2848   9
 -10   1  -1 191.023 38.5439   9
  10   1  -1 195.643 33.0128   5
  10   1   0 5879.47 207.249   9
  10   1   0 6553.76 204.237   5
  10  -1   0 6529.74 226.377   5
  10  -1   0 6154.79 208.272   2
 -10  -1   0 5957.02 219.167  10
 -10   1   0 6134.06 202.086  10
  10  -1   1 204.387 37.4267   2
  10   1   1 203.068 27.9419   2
 -10  -1   1 276.501 47.9962  10
 -10   1   1 166.023 33.5898  10
 -10   1   1 299.247 46.2823   2
 -10  -1   1 203.736 27.0184   2
  10   1   1 226.543 34.5478   5
  10  -1   1 223.279 45.5081   5
  10   1   2 4520.06 155.516   5
  10  -1   2 4471.78 176.563   5
 -10  -1   2 4320.28 174.622  10
 -10   1   2 4533.51 156.515  10
  10   1   3 1014.58 71.0939   5
  10  -1   3 982.201 79.4624   5
 -10  -1   3 926.170 78.0128  10
 -10   1   3 999.129 72.5244  10
  10   1   4 3893.67 153.742   5
  10  -1   4 3814.07 163.310   5
 -10  -1   4 3829.67 163.856  10
 -10   1   4 3833.51 156.465  10
 -10  -1   5 201.089 44.6910  10
 -10   1   5 234.474 44.8981  10
  10  -1   5 229.422 45.1438   5
  10  -1   6 2720.05 152.491   5
 -10  -1   6 2988.03 157.961  10
 -10   1   6 3000.10 154.893  10
 -10   1   7 61.4085 37.6107  10
  10   1   7 36.1079 34.1991  10
  10  -1   7 70.7292 36.6884   5
 -10  -1   7 87.4219 47.0383  10
  10   1   8 1422.87 114.544  10
  10  -1   8 1693.10 136.773   5
 -10  -1   8 1631.88 133.120  10
 -10   1   8 1622.80 131.288  10
 -10   2  -8 8515.89 339.519   4
  10  -2  -8 8452.07 396.250   8
  10   2  -8 7881.09 361.947   8
  10   2  -7 29.0953 37.3718   9
 -10   2  -7 31.7469 22.0656   4
  10  -2  -7-6.25884 52.0779   8
  10   2  -7 65.3123 45.2342   8
  10   2  -6 13377.5 379.079   9
 -10   2  -6 13057.8 399.808   4
  10  -2  -6 14003.3 457.551   8
  10   2  -6 13580.4 433.887   8
  10   2  -5 879.569 81.3504   9
 -10   2  -5 1000.92 73.3726   9
 -10   2  -5 910.154 89.6019   4
  10   2  -5 897.208 94.1549   8
  10   2  -4 24818.9 532.715   9
 -10   2  -4 23502.8 496.059   9
 -10   2  -4 23589.9 548.410   4
 -10  -2  -3 205.690 40.9028   7
  10   2  -3 145.526 37.0637   9
 -10   2  -3 165.303 33.5246   9
  10   2  -3 176.764 43.1355   3
 -10  -2  -3 178.383 36.9334  10
  10  -2  -3 175.306 37.8137   5
  10   2  -2 30257.2 611.097   9
 -10  -2  -2 29676.7 601.780   6
 -10   2  -2 29627.0 599.331   9
  10   2  -2 29359.9 619.010   3
  10  -2  -2 30405.8 630.603   5
 -10  -2  -2 29893.7 622.232  10
  10   2  -1 1793.18 98.3794   9
 -10  -2  -1 1848.23 103.334   6
 -10   2  -1 1863.04 103.200   9
 -10  -2  -1 1816.18 110.866  10
  10   2  -1 1804.98 83.0874   5
  10  -2  -1 1836.33 113.598   5
  10   2  -1 1972.59 101.653   3
 -10   2  -1 1963.14 92.3971  10
 -10  -2   0 32223.2 707.877  10
  10   2   0 32937.4 660.711   9
 -10  -2   0 34054.0 697.518   6
 -10   2   0 33467.8 688.164   9
  10   2   0 35913.0 657.585   5
  10  -2   0 35099.8 725.560   5
  10   2   0 33726.0 642.978   3
 -10   2   0 34210.4 659.035  10
  10   2   1 1820.94 100.899   9
  10   2   1 1845.03 89.7105   5
  10  -2   1 1955.92 123.876   5
 -10   2   1 1896.80 116.372   9
  10   2   1 1996.09 84.4287   3
 -10  -2   1 1899.28 121.843  10
 -10   2   1 1840.78 89.9821  10
  10   2   2 29347.9 586.755   6
  10   2   2 30063.4 580.157   5
  10  -2   2 30864.1 672.397   5
 -10  -2   2 30546.7 664.110  10
 -10   2   2 30200.6 585.128  10
 -10  -2   3 241.570 48.6667  10
  10   2   3 286.099 38.2920   5
 -10   2   3 366.224 45.2211  10
  10  -2   3 329.359 52.3933   5
  10  -2   4 23818.4 553.102   5
 -10  -2   4 23504.4 546.916  10
 -10   2   4 24624.2 522.748  10
  10  -2   5 780.939 80.2928   5
 -10  -2   5 756.177 79.6379  10
 -10   2   5 698.404 69.9200  10
  10  -2   6 12594.6 380.653   5
 -10  -2   6 12909.0 377.276  10
 -10   2   6 13356.9 366.444  10
 -10  -2   7 34.8649 36.6496  10
 -10   2   7 107.594 40.2067  10
  10  -2   7 58.8068 32.4677   5
  10   2   8 8723.78 310.718  10
  10  -2   8 8817.39 334.018   5
 -10  -2   8 8211.94 320.313  10
 -10   2   8 9233.09 325.100  10
  10   3  -8 5726.82 252.861   9
  10   3  -8 5518.88 304.892   8
  10   3  -7 115.649 47.5930   9
 -10   3  -7 113.931 39.1939   4
  10   3  -7 173.490 63.6926   8
  10   3  -6 14037.9 396.695   9
 -10   3  -6 14738.1 440.011   4
 -10   3  -6 13543.9 359.684   9
  10  -3  -5 160.797 52.0192   7
 -10  -3  -5 113.965 53.9152   7
  10   3  -5 49.2245 41.0084   3
  10   3  -5 66.0271 38.9514   9
 -10   3  -5 76.5272 32.0456   9
 -10   3  -5 106.166 42.5055   4
  10   3  -4 21651.1 490.314   9
 -10   3  -4 20116.9 459.981   9
  10   3  -4 21210.7 519.483   3
  10  -3  -4 20472.6 523.207   7
 -10  -3  -4 21478.7 537.078   7
  10  -3  -4 19455.5 482.976   5
  10   3  -3 805.046 73.2266   9
 -10   3  -3 799.354 70.5058   9
  10  -3  -3 837.857 77.1982   5
  10   3  -3 764.454 74.4462   3
  10  -3  -3 797.141 77.9923   7
 -10  -3  -3 745.874 76.5542   7
 -10   3  -3 830.527 62.5356   3
  10   3  -2 19761.7 445.034   9
 -10   3  -2 19394.9 442.483   9
 -10  -3  -2 19172.3 451.901   7
  10  -3  -2 19232.2 466.238   5
  10   3  -2 19936.2 452.924   3
 -10  -3  -2 19545.8 460.920  10
  10   3  -1 1039.38 76.1858   9
 -10   3  -1 981.773 76.1395   9
  10  -3  -1 1060.72 89.7162   5
  10   3  -1 1040.81 74.3561   3
 -10  -3  -1 1081.12 87.5909  10
 -10  -3  -1 1067.84 75.6848   7
  10   3   0 27291.0 555.200   9
 -10   3   0 27743.1 581.469   9
  10  -3   0 25602.7 610.448   5
 -10  -3   0 26751.2 606.539  10
 -10  -3   0 26714.3 556.557   7
  10   3   1 1134.67 75.3789   9
 -10  -3   1 1244.18 103.499  10
 -10   3   1 1147.39 87.8972   9
  10  -3   1 1334.24 106.929   5
  10   3   1 1228.67 67.5153   3
 -10  -3   1 1225.76 83.5494   7
 -10  -3   2 19058.2 445.427   7
 -10   3   2 18908.8 459.414   9
  10  -3   2 19158.1 498.257   5
 -10  -3   2 19240.3 492.148  10
 -10   3   2 19022.5 402.136  10
  10  -3   3 1131.80 102.809   5
 -10   3   3 1058.46 90.2263   9
 -10  -3   3 1013.39 98.3273  10
 -10   3   3 961.973 70.2286  10
  10  -3   4 19055.4 501.372   5
 -10   3   4 19419.9 486.277   9
 -10  -3   4 18759.9 496.569  10
 -10   3   4 20292.5 446.635  10
 -10  -3   5 73.1655 41.6508  10
 -10   3   5 51.6945 27.0280  10
  10  -3   5 75.7586 41.4103   5
  10  -3   6 12788.0 396.231   5
 -10  -3   6 11840.4 377.330  10
 -10   3   6 12997.2 359.167  10
  10  -3   7 122.180 45.8015   5
 -10  -3   7 90.7460 46.2476  10
 -10   3   7 136.951 46.7989  10
  10  -3   8 6080.51 281.048   5
 -10  -3   8 5816.75 268.452  10
 -10   3   8 5979.94 256.535  10
  10   4  -7 275.593 61.4346   9
 -10   4  -7 348.855 70.6068   4
  10   4  -6 3090.20 170.774   9
 -10   4  -6 2973.24 155.386   9
 -10   4  -6 3360.33 201.732   4
  10   4  -6 3234.25 198.232   3
  10  -4  -6 3107.97 212.594   7
  10  -4  -5 330.630 72.7010   7
  10   4  -5 246.925 52.9762   3
  10   4  -5 339.833 62.5011   9
 -10   4  -5 300.568 51.9686   9
 -10   4  -5 316.436 63.1926   4
  10   4  -4 4229.77 182.876   9
 -10   4  -4 4082.93 174.143   9
  10   4  -4 4158.37 196.543   3
  10  -4  -4 3998.43 183.129   5
  10  -4  -4 4529.50 221.238   7
 -10  -4  -4 4493.18 221.564   7
  10  -4  -3 144.064 42.4836   7
 -10  -4  -3 119.772 38.5947   7
  10   4  -3 142.074 41.5428   3
  10   4  -3 140.556 40.4288   9
 -10   4  -3 270.496 48.0658   9
 -10   4  -3 165.588 35.8908   3
  10  -4  -3 149.496 43.0689   5
 -10   4  -2 3831.77 161.635   3
  10   4  -2 3943.44 162.329   9
 -10   4  -2 3675.95 161.112   9
  10  -4  -2 4021.60 184.122   7
  10  -4  -2 3663.60 171.385   5
 -10  -4  -2 3881.59 173.318  10
  10   4  -2 4006.18 168.880   3
 -10  -4  -2 4012.46 186.092   7
  10   4  -1 882.279 73.2331   9
 -10   4  -1 878.247 77.2872   9
 -10  -4  -1 884.554 81.4945   7
  10   4  -1 930.572 74.9160   3
 -10  -4  -1 894.740 83.7298  10
  10  -4  -1 893.384 85.5705   5
  10  -4  -1 889.231 81.2535   7
  10   4   0 5399.42 183.363   9
 -10   4   0 5306.76 196.678   9
  10  -4   0 5292.01 220.723   5
 -10  -4   0 5244.11 213.332  10
  10   4   0 5576.24 180.836   3
  10  -4   0 5682.08 211.152   7
 -10  -4   0 5289.48 205.503   7
  10   4   1 719.261 60.0814   9
 -10   4   1 779.866 71.7612   9
  10  -4   1 768.232 86.7608   5
 -10  -4   1 762.121 84.0752  10
 -10  -4   1 778.516 77.1148   7
 -10   4   2 3385.92 154.139   9
  10  -4   2 3785.02 195.018   5
 -10  -4   2 3422.18 181.676  10
 -10  -4   2 3143.83 164.260   7
 -10  -4   3 172.300 52.1479  10
 -10  -4   3 224.677 49.1791   7
 -10   4   3 208.822 43.7917   9
  10  -4   3 308.975 65.6469   5
 -10  -4   4 3677.56 200.081  10
  10  -4   4 3791.24 209.167   5
 -10  -4   5 253.563 63.4573  10
 -10   4   5 247.344 44.2529  10
  10  -4   5 250.848 58.8578   5
  10  -4   6 3100.32 192.147   5
 -10   4   6 3127.82 158.824  10
 -10   4   7 246.524 53.7170  10
  10  -4   7 306.804 71.2750   5
  10   5  -6 12783.8 397.419   9
 -10   5  -6 12623.3 382.380   9
 -10   5  -6 13641.1 461.405   4
  10   5  -6 13479.0 445.212   3
  10   5  -5 539.696 74.1625   9
 -10   5  -5 506.602 67.5538   9
 -10   5  -5 624.827 91.8045   4
  10   5  -5 472.833 72.9135   3
  10   5  -4 17698.6 459.964   9
 -10   5  -4 18331.8 465.734   9
  10  -5  -4 18270.0 477.853   5
  10  -5  -4 19049.6 545.714   7
  10   5  -4 18814.3 500.674   3
  10  -5  -3 220.175 56.0513   7
 -10  -5  -3 184.765 53.4575   7
  10   5  -3 171.910 48.1290   3
  10   5  -3 160.807 41.5982   9
 -10   5  -3 218.758 44.5858   3
 -10   5  -3 198.597 48.7453   9
  10  -5  -3 138.152 38.6490   5
  10   5  -2 29032.5 621.722   9
 -10   5  -2 28607.6 628.399   9
  10  -5  -2 27608.7 641.130   5
 -10  -5  -2 29561.4 648.351  10
  10  -5  -2 29986.7 704.240   7
 -10  -5  -2 29118.1 698.661   7
  10   5  -2 30067.3 645.029   3
 -10   5  -2 28645.8 635.466   3
  10   5  -1 501.492 58.7248   9
 -10   5  -1 556.007 67.2529   3
 -10   5  -1 501.165 61.6957   9
  10  -5  -1 422.422 60.0652   5
 -10  -5  -1 520.094 65.6038  10
  10  -5  -1 557.039 75.9148   7
 -10  -5  -1 493.014 71.3080   7
  10   5  -1 457.064 56.4580   3
 -10  -5   0 37552.6 834.199   7
  10   5   0 39189.7 760.251   9
 -10   5   0 39031.6 787.682   9
 -10  -5   0 38693.4 811.610  10
  10  -5   0 37244.3 816.437   5
  10  -5   0 40700.7 847.035   7
  10   5   0 38889.4 760.937   3
 -10   5   1 621.112 67.9406   9
 -10  -5   1 629.323 76.1138  10
  10  -5   1 464.035 66.6700   5
  10  -5   1 493.184 71.8708   7
 -10  -5   1 551.950 75.8181   7
 -10   5   2 28970.2 616.002   9
  10  -5   2 28403.0 686.568   5
 -10  -5   2 27134.1 660.800  10
 -10  -5   2 28698.6 685.698   7
 -10  -5   3 220.037 55.7751   7
  10  -5   3 212.459 51.0930   5
 -10  -5   4 18663.9 538.927   7
 -10  -5   5 588.010 90.6348   7
  10   6  -5 38.7928 35.8380   3
  10   6  -5 0.00000 30.7475   9
 -10   6  -5 37.4260 44.6479   9
 -10   6  -5 62.6966 41.5415   4
  10   6  -4 414.495 72.6829   3
  10   6  -4 378.446 64.0674   9
 -10   6  -4 347.079 64.9610   9
  10   6  -3 198.796 51.8190   3
  10   6  -3 102.520 44.2769   9
 -10   6  -3 89.9465 42.5290   9
 -10   6  -3 107.148 39.1928   3
  10  -6  -3 44.9788 30.6980   5
 -10  -6  -2 211.946 56.3074   7
  10   6  -2 209.359 46.5753   3
  10   6  -2 276.978 50.8926   9
 -10   6  -2 288.410 60.2746   9
 -10   6  -2 391.843 62.8495   3
  10  -6  -2 209.981 49.0001   5
 -10   6  -1 419.328 66.1144   3
 -10  -6  -1 451.481 79.4760   7
  10   6  -1 421.143 60.4111   9
 -10   6  -1 457.202 65.4523   9
 -10  -6  -1 491.734 68.6093  10
  10  -6  -1 368.836 59.8290   5
  10   6  -1 475.368 61.3664   3
 -10   6   0 1385.88 113.072   3
 -10   6   0 1211.90 97.6033   9
 -10  -6   0 1106.08 116.950   7
 -10  -6   1 432.021 76.9393   7
 -10   6   1 390.119 57.1826   9
 -10  -6   2 187.102 54.1645   7
 -10  -6   3 170.419 55.6781   7
 -10   7  -4 10225.2 367.650   3
  10   7  -3 227.267 52.0371   3
  10   7  -3 207.804 51.8470   9
 -10   7  -3 73.6871 32.8832   3
  10   7  -2 11741.6 356.548   9
 -10   7  -2 11846.8 373.887   9
 -10   7  -2 12029.9 394.530   3
  10   7  -2 12413.1 386.725   3
  10   7  -1 130.501 38.5356   3
 -10   7  -1 136.579 46.5555   9
 -10   7  -1 122.878 46.3389   3
 -10   7   0 11995.5 393.473   3
 -10   7   0 10898.2 344.400   9
 -10   7   1 146.039 50.7454   3
 -11   0  -8-114.162 42.4321   4
  11   0  -8 60.0487 56.6959   8
 -11   0  -7 42.0276 32.3149   4
  11   0  -7 1.68493 37.9477   8
  11   0  -6 6.94385 42.6805   9
 -11   0  -6 19.8724 30.0387   4
  11   0  -6-6.33241 42.6470   8
  11   0  -5 15.5645 41.8864   9
 -11   0  -5-2.71153 23.0351   4
  11   0  -5-36.3885 35.7462   8
  11   0  -4 18.0688 34.4255   9
 -11   0  -4 19.9913 20.1431   4
  11   0  -4 73.9653 29.8831   8
  11   0  -4 42.4844 19.3515   5
 -11   0  -3-3.35624 20.6918  10
  11   0  -3 38.0540 37.7974   9
 -11   0  -3 26.2379 20.6103   9
 -11   0  -3 23.1770 21.2327   4
  11   0  -3 22.9030 20.2464   5
 -11   0  -2 29.0966 24.2760  10
 -11   0  -2 65.2915 29.2593   9
  11   0  -2 1.58432 19.2740   5
 -11   0  -1 5.53996 27.8200  10
 -11   0  -1 81.2000 20.0075   6
  11   0  -1 32.5530 31.2398   5
 -11   0   0 169.792 44.8501  10
  11   0   0 85.2350 37.6667   5
  11   0   0 106.303 29.6388   2
 -11   0   1 4.12898 33.3850  10
  11   0   1 3.58086 18.9164   2
 -11   0   1-3.05203 16.7606   2
  11   0   1 50.8583 31.4772   5
 -11   0   2 14.2903 27.7885  10
  11   0   2 40.4209 25.4205   5
 -11   0   2 18.5482 16.8849   2
  11   0   3 66.1913 29.8591   5
 -11   0   3 12.6951 23.0594  10
 -11   0   4-4.95599 27.6987  10
  11   0   4 63.5619 27.5166   5
 -11   0   5 0.46156 28.9879  10
  11   0   5-11.4689 25.0290   5
 -11   0   6 48.1960 41.2647  10
  11   0   6-5.73975 24.0533   5
 -11   0   7 106.017 51.6921  10
  11   0   7-11.4114 29.0825  10
  11   0   7 85.5000 43.5164   5
 -11   0   8 60.1362 47.8315  10
  11   0   8 28.4123 36.4486   5
 -11   1  -8 5847.60 272.498   4
  11  -1  -8 5730.37 311.016   8
  11   1  -8 5240.72 286.974   8
  11   1  -7 6769.01 271.914   9
 -11   1  -7 6897.57 281.193   4
  11  -1  -7 7255.44 325.487   8
  11   1  -7 6725.67 302.075   8
  11   1  -6 12747.9 381.197   9
 -11   1  -6 13043.7 387.503   4
  11  -1  -6 13151.0 427.449   8
  11   1  -6 12401.5 400.553   8
  11   1  -5 11636.1 350.199   9
 -11   1  -5 12097.0 353.510   4
  11  -1  -5 12239.7 380.204   8
  11   1  -5 11802.8 358.797   8
  11   1  -4 13577.6 372.645   9
 -11   1  -4 14019.3 329.719   9
 -11   1  -4 13844.0 368.538   4
  11  -1  -4 13678.6 375.642   8
  11  -1  -4 13079.9 349.526   5
  11   1  -3 25219.1 566.245   9
 -11   1  -3 25457.9 527.316   9
 -11  -1  -3 25650.0 549.055  10
  11  -1  -3 25070.7 546.299   5
  11   1  -3 25395.5 512.951   5
 -11   1  -3 25395.8 509.414  10
 -11  -1  -2 24894.3 545.154  10
  11   1  -2 24745.7 552.819   9
 -11   1  -2 25112.8 512.868  10
 -11   1  -2 25098.6 535.862   9
  11  -1  -2 26116.2 555.965   5
  11   1  -2 24872.8 509.003   5
  11   1  -1 29948.3 638.787   9
 -11  -1  -1 30014.0 641.505  10
 -11  -1  -1 30337.1 593.356   6
 -11   1  -1 30040.6 635.026   9
  11   1  -1 29435.9 606.072   5
  11  -1  -1 31233.2 650.121   5
 -11   1  -1 30649.9 618.091  10
 -11  -1   0 20532.0 454.152   6
  11   1   0 20735.8 461.795   5
  11  -1   0 20744.4 495.416   5
  11  -1   0 19869.0 465.367   2
 -11  -1   0 20334.3 490.259  10
 -11   1   0 20561.5 462.843  10
 -11   1   1 31701.8 636.547   2
 -11  -1   1 29136.3 569.636   2
  11  -1   1 29465.1 627.715   2
  11   1   1 30937.4 569.854   2
  11   1   1 29130.8 612.108   5
  11  -1   1 30398.6 650.919   5
 -11  -1   1 30849.2 655.608  10
 -11   1   1 28628.7 606.671  10
  11   1   2 23540.6 495.677   5
  11  -1   2 23536.0 534.003   5
 -11  -1   2 22404.2 447.936   2
 -11  -1   2 23479.8 533.179  10
 -11   1   2 23411.6 494.688  10
  11   1   3 24296.1 520.058   5
  11  -1   3 24305.8 548.903   5
 -11  -1   3 24228.3 546.477  10
 -11   1   3 25114.7 527.148  10
  11   1   4 12588.6 328.501   5
  11  -1   4 12011.9 344.008   5
 -11  -1   4 12218.9 341.659  10
 -11   1   4 12777.3 335.439  10
 -11  -1   5 11843.0 342.372  10
  11   1   5 11417.5 323.624   5
  11  -1   5 11023.5 336.732   5
 -11   1   5 12404.8 338.520  10
  11  -1   6 11603.7 359.984   5
 -11  -1   6 12234.6 365.556  10
 -11   1   6 12829.9 366.066  10
  11  -1   7 7003.06 277.733   5
 -11  -1   7 7069.01 277.263  10
 -11   1   7 7372.09 276.975  10
  11   1   8 5012.77 226.840  10
  11  -1   8 5969.89 265.267   5
 -11  -1   8 5722.72 260.010  10
 -11   1   8 5842.97 259.458  10
 -11   2  -8 2744.42 186.836   4
  11  -2  -8 2481.17 206.421   8
  11   2  -7 2249.77 149.960   9
 -11   2  -7 2169.52 156.936   4
  11  -2  -7 2298.65 184.637   8
  11   2  -6 2741.76 157.851   9
 -11   2  -6 2771.07 168.740   4
  11   2  -5 4775.99 202.488   9
 -11   2  -5 4538.75 169.731   9
 -11   2  -5 4811.73 215.911   4
  11   2  -4 4315.05 183.050   9
 -11   2  -4 4278.71 163.763   9
  11  -2  -4 4045.65 176.275   5
  11   2  -3 5869.18 209.736   9
 -11  -2  -3 5880.06 212.338  10
 -11   2  -3 5331.83 190.404   9
  11  -2  -3 5592.71 207.674   5
  11   2  -2 3969.84 163.608   9
 -11   2  -2 3814.57 156.869   9
  11  -2  -2 3952.38 172.966   5
 -11  -2  -2 3939.15 169.966  10
  11   2  -1 6547.67 215.112   9
 -11   2  -1 6635.70 223.072   9
  11  -2  -1 6518.66 236.670   5
 -11  -2  -1 6400.13 232.038  10
 -11   2  -1 6450.08 196.343  10
  11   2   0 5135.98 187.609   9
 -11   2   0 5352.94 205.602   9
  11   2   0 5756.17 183.503   5
  11  -2   0 5845.50 226.724   5
 -11  -2   0 5245.46 213.300  10
 -11   2   0 5754.81 188.748  10
  11   2   1 6048.35 209.604   9
  11   2   1 6235.50 194.340   5
 -11   2   1 6309.34 233.507   9
  11  -2   1 6643.20 245.495   5
 -11  -2   1 6805.84 246.916  10
 -11   2   1 5966.54 191.465  10
  11   2   2 4021.16 146.083   5
  11  -2   2 3830.34 184.685   5
 -11  -2   2 3898.49 185.265  10
 -11   2   2 3849.02 144.825  10
  11   2   3 5234.85 175.316   5
  11  -2   3 4766.23 204.384   5
 -11  -2   3 4975.27 208.523  10
 -11   2   3 4909.13 175.771  10
  11   2   4 4211.34 163.020   5
  11  -2   4 3910.19 185.655   5
 -11  -2   4 3994.97 185.002  10
 -11   2   4 4458.44 172.219  10
  11  -2   5 4353.71 200.810   5
 -11  -2   5 4206.47 194.193  10
 -11   2   5 4576.43 187.261  10
  11  -2   6 2755.98 164.264   5
 -11  -2   6 2761.32 161.925  10
 -11   2   6 2688.51 150.866  10
  11  -2   7 2397.16 160.071   5
 -11  -2   7 2542.41 162.410  10
 -11   2   7 2471.20 153.297  10
  11   2   8 2338.59 155.490  10
  11  -2   8 2518.59 172.671   5
 -11  -2   8 2335.81 165.257  10
 -11   2   8 2567.57 167.344  10
  11   3  -8 2767.55 178.167   9
  11   3  -7 4782.56 226.416   9
 -11   3  -7 5123.78 257.179   4
  11   3  -6 2758.24 160.089   9
 -11   3  -6 2806.77 180.351   4
  11   3  -5 7087.67 257.202   9
 -11   3  -5 6838.27 232.050   9
 -11   3  -5 7306.65 288.143   4
  11   3  -4 8002.19 264.459   9
 -11   3  -4 7723.13 244.030   9
  11   3  -4 7820.73 283.496   3
  11  -3  -4 7663.03 265.379   5
  11   3  -3 12037.2 331.308   9
 -11   3  -3 11400.7 317.008   9
  11   3  -3 11153.2 336.955   3
  11  -3  -3 11889.7 340.584   5
 -11  -3  -3 12112.0 342.153  10
  11   3  -2 5423.92 197.813   9
 -11   3  -2 5169.69 193.970   9
  11  -3  -2 5420.19 213.458   5
  11   3  -2 5503.46 202.708   3
 -11  -3  -2 5175.91 208.095  10
  11   3  -1 4893.54 180.341   9
 -11   3  -1 4991.99 188.738   9
  11  -3  -1 4857.52 206.603   5
  11   3  -1 4789.47 176.238   3
 -11  -3  -1 4519.04 196.091  10
  11   3   0 12420.0 317.967   9
 -11   3   0 12447.0 341.860   9
  11  -3   0 12120.1 367.593   5
 -11  -3   0 11537.0 354.502  10
  11   3   0 13033.6 309.209   3
  11   3   1 4799.89 173.259   9
 -11   3   1 5000.91 200.596   9
  11  -3   1 5352.61 227.599   5
 -11  -3   1 5120.10 219.490  10
 -11   3   2 5557.62 220.526   9
  11  -3   2 5551.35 237.068   5
 -11  -3   2 5549.52 233.716  10
 -11   3   2 5653.63 178.225  10
  11  -3   3 10086.8 345.941   5
 -11   3   3 10493.3 332.793   9
 -11  -3   3 10561.6 344.664  10
 -11   3   3 11112.7 286.665  10
  11  -3   4 7433.10 284.534   5
 -11   3   4 7430.42 276.183   9
 -11  -3   4 7308.02 280.728  10
 -11   3   4 7941.57 243.108  10
  11  -3   5 6569.46 269.131   5
 -11  -3   5 6342.25 259.623  10
 -11   3   5 6979.81 237.671  10
  11  -3   6 2678.16 170.463   5
 -11  -3   6 2565.47 163.981  10
 -11   3   6 2547.85 146.123  10
  11  -3   7 4510.23 234.199   5
 -11  -3   7 4434.17 226.578  10
 -11   3   7 4774.80 215.686  10
 -11  -3   8 2693.60 184.401  10
  11   4  -7 4793.69 231.122   9
  11   4  -6 7266.15 277.476   9
 -11   4  -6 6617.58 250.557   9
  11   4  -6 7470.07 317.277   3
  11   4  -5 6283.52 244.809   9
 -11   4  -5 6089.39 229.422   9
 -11   4  -5 6443.89 284.265   4
  11   4  -5 5846.25 262.310   3
  11   4  -4 8364.37 280.654   9
 -11   4  -4 8592.52 274.715   9
  11   4  -4 8818.06 305.820   3
  11  -4  -4 8332.08 290.424   5
  11   4  -3 15818.6 408.326   9
 -11   4  -3 15677.6 402.919   9
  11  -4  -3 15675.7 425.960   5
  11   4  -3 16320.8 427.928   3
 -11   4  -3 15753.4 392.581   3
 -11   4  -2 12194.6 334.070   3
  11   4  -2 12221.8 334.150   9
 -11   4  -2 12228.1 341.630   9
  11  -4  -2 11856.9 358.680   5
  11   4  -2 12257.8 341.818   3
 -11  -4  -2 12543.7 360.119  10
  11   4  -1 9205.58 272.018   9
 -11   4  -1 9024.88 281.642   9
  11  -4  -1 9028.42 303.591   5
 -11  -4  -1 9260.44 299.236  10
  11   4  -1 9238.54 269.825   3
  11   4   0 11722.7 308.869   9
 -11   4   0 11765.4 330.438   9
  11  -4   0 10958.4 353.716   5
 -11  -4   0 11223.2 348.510  10
  11   4   0 11675.1 301.546   3
 -11   4   1 9789.97 295.432   9
  11  -4   1 9514.03 327.540   5
 -11  -4   1 8985.91 314.851  10
 -11   4   2 13296.0 369.352   9
 -11  -4   2 13723.1 410.453  10
  11  -4   2 13152.7 411.084   5
 -11   4   3 17445.9 446.902   9
  11  -4   3 17159.5 495.034   5
 -11  -4   3 17446.2 487.953  10
  11  -4   4 8347.66 329.622   5
 -11  -4   4 8698.22 324.000  10
 -11  -4   5 6323.24 278.885  10
  11  -4   5 6494.57 287.669   5
  11  -4   6 7410.09 313.891   5
 -11  -4   6 6904.64 300.382  10
 -11   4   6 7090.31 256.392  10
  11  -4   7 4962.58 259.211   5
 -11   4   7 4565.72 213.515  10
  11   5  -6 136.383 55.4487   3
  11   5  -6 183.965 56.8914   9
 -11   5  -6 203.305 51.7523   9
 -11   5  -6 174.153 54.7869   4
  11   5  -5 67.5092 32.7766   3
  11   5  -5 127.549 47.2094   9
 -11   5  -5 112.987 41.0952   9
  11   5  -4 236.092 54.1493   3
  11   5  -4 283.024 59.5274   9
 -11   5  -4 288.406 56.9510   9
  11  -5  -4 222.156 54.7388   5
  11   5  -3 67.7625 37.0084   3
  11   5  -3 73.2747 42.8027   9
 -11   5  -3 122.660 45.1548   9
 -11   5  -3 104.353 36.0589   3
  11  -5  -3 37.2283 28.6356   5
 -11   5  -2 450.327 60.7131   3
  11   5  -2 443.574 61.2977   9
 -11   5  -2 441.752 62.0300   9
  11  -5  -2 563.334 72.9461   5
 -11  -5  -2 522.645 72.5015  10
  11   5  -2 490.672 65.5543   3
 -11  -5  -1 394.040 63.7391  10
  11   5  -1 345.221 52.6127   9
 -11   5  -1 303.177 54.3193   9
  11   5  -1 394.653 55.1235   3
  11  -5  -1 301.288 54.6265   5
  11   5   0 939.264 78.6812   9
 -11   5   0 1213.78 98.0663   9
  11  -5   0 935.793 95.8948   5
 -11  -5   0 942.471 93.1079  10
  11   5   0 951.092 76.5449   3
 -11  -5   1 306.009 61.3014  10
 -11   5   1 284.935 53.2676   9
  11  -5   1 275.919 54.7161   5
 -11  -5   2 517.699 75.6913  10
 -11   5   2 507.883 64.6248   9
  11  -5   2 622.951 85.7986   5
 -11  -5   3 109.517 53.5694  10
  11  -5   3 22.4568 28.8019   5
  11  -5   4 436.036 75.1724   5
  11   6  -4 5864.48 243.299   9
 -11   6  -4 5851.17 247.129   9
  11  -6  -4 6132.19 258.512   5
  11   6  -4 6096.19 270.308   3
  11   6  -3 8489.47 291.472   9
 -11   6  -3 8318.44 298.372   9
  11   6  -3 8940.89 317.946   3
 -11   6  -3 8679.99 309.041   3
  11  -6  -3 8473.68 306.554   5
  11   6  -2 8212.00 278.461   9
 -11   6  -2 8312.74 291.100   9
  11  -6  -2 8469.74 300.823   5
  11   6  -2 8698.49 298.494   3
 -11   6  -2 8101.12 296.395   3
 -11   6  -1 9562.33 329.205   3
  11   6  -1 9355.69 292.585   9
 -11   6  -1 9215.98 306.101   9
  11   6  -1 9368.94 301.308   3
  11  -6  -1 9299.64 320.941   5
 -11  -6  -1 9668.66 322.053  10
 -11   6   0 8151.62 281.120   9
  11  -6   0 8349.32 304.770   5
 -11  -6   0 8595.77 301.475  10
 -11   6   1 9121.23 299.300   9
  11   7  -3 1835.25 133.493   9
 -11   7  -3 1779.04 140.735   3
  11   7  -2 1083.95 100.047   9
 -11   7  -2 1037.16 104.708   9
 -11   7  -2 1253.06 118.760   3
  11   7  -2 1169.94 110.347   3
 -11   7  -1 1223.87 111.376   9
 -11   7  -1 1228.81 116.982   3
  11   7  -1 1127.01 101.340   3
 -11   7   0 3277.36 197.404   3
 -11   7   0 2966.78 168.850   9
 -11   7   1 1394.61 131.075   3
 -11   7   1 1143.48 102.770   9
 -12   0  -8 255.032 54.0592   4
 -12   0  -7 15454.5 453.791   4
  12   0  -6 671.102 92.9800   9
 -12   0  -6 684.630 78.5014   4
  12   0  -5 24958.1 619.416   9
 -12   0  -5 25183.8 573.857   4
  12   0  -4 3148.56 174.797   9
 -12   0  -4 3180.14 146.787   4
  12   0  -4 3306.04 146.359   5
  12   0  -3 30008.9 684.825   9
 -12   0  -3 29769.4 611.746   4
 -12   0  -3 30766.0 617.865   9
  12   0  -3 29986.4 619.502   5
 -12   0  -3 29351.5 618.373  10
 -12   0  -2 547.726 62.8733   9
  12   0  -2 554.302 59.5292   5
 -12   0  -2 546.524 61.0359  10
  12   0  -1 33599.9 695.614   5
 -12   0  -1 33235.3 696.614  10
  12   0   0 10269.6 303.477   5
  12   0   0 10068.3 269.905   2
 -12   0   0 10362.4 306.419  10
  12   0   1 31502.7 632.708   2
  12   0   1 31487.5 665.848   5
 -12   0   1 31285.0 668.018  10
 -12   0   2 304.422 49.0503  10
 -12   0   2 284.008 39.3086   2
  12   0   2 267.213 44.9263   5
  12   0   3 25711.0 575.814   5
 -12   0   3 27189.6 580.495  10
  12   0   4 3099.47 151.069   5
 -12   0   4 2968.53 149.485  10
  12   0   5 24327.2 574.670   5
 -12   0   5 26297.6 589.321  10
  12   0   6 571.178 72.3201   5
 -12   0   6 685.524 82.5890  10
  12   0   7 13970.9 423.727   5
 -12   0   7 15345.4 443.024  10
 -12   0   8 320.762 68.8491  10
  12   0   8 350.524 67.5990   5
 -12   1  -8 122.305 43.1304   4
  12   1  -7 796.358 97.3744   9
 -12   1  -7 1043.17 106.124   4
  12  -1  -7 922.954 115.685   8
  12   1  -6 528.810 78.6098   9
 -12   1  -6 600.258 77.8972   4
  12   1  -5 3621.44 183.988   9
 -12   1  -5 3771.08 183.786   4
  12   1  -4 47.1690 36.3277   9
 -12   1  -4 71.9837 29.5359   9
 -12   1  -4 80.9299 33.6325   4
  12  -1  -4 91.1054 32.3690   5
  12   1  -4 102.463 28.6451   5
  12   1  -3 2510.59 142.406   9
 -12  -1  -3 2815.23 141.080  10
 -12   1  -3 2650.02 127.905   9
  12  -1  -3 2916.15 139.069   5
  12   1  -3 2775.88 120.842   5
 -12   1  -3 2602.87 118.774  10
 -12  -1  -2 1288.75 96.5687  10
  12   1  -2 1225.97 98.7010   9
 -12   1  -2 1302.83 93.7464   9
  12  -1  -2 1332.92 97.7098   5
  12   1  -2 1358.95 84.3607   5
 -12   1  -2 1328.25 85.1281  10
  12   1  -1 9300.93 294.441   9
 -12  -1  -1 9323.77 253.879   6
 -12   1  -1 9399.57 290.988   9
  12   1  -1 9485.92 270.296   5
  12  -1  -1 9537.74 297.274   5
 -12  -1  -1 9334.84 293.786  10
 -12   1  -1 9886.06 279.608  10
 -12  -1   0 708.800 65.1650   6
  12   1   0 620.154 63.3068   5
  12  -1   0 608.945 73.4790   5
 -12  -1   0 590.699 72.0313  10
 -12   1   0 594.804 64.9662  10
  12   1   1 9324.15 273.532   5
  12  -1   1 9554.62 299.365   5
 -12  -1   1 9554.30 299.826  10
 -12   1   1 8859.87 268.871  10
  12   1   2 1099.74 81.9101   5
  12  -1   2 1232.14 100.078   5
 -12  -1   2 1097.80 95.5710  10
 -12   1   2 1172.72 84.7158  10
  12   1   3 2820.20 134.737   5
  12  -1   3 2651.93 144.758   5
 -12  -1   3 2718.44 145.258  10
 -12   1   3 2643.07 131.127  10
 -12  -1   4 100.327 40.8072  10
 -12   1   4 97.3348 36.1202  10
  12   1   4 45.0907 26.4523   5
  12  -1   4 65.9189 35.1670   5
  12   1   5 3506.15 164.623   5
  12  -1   5 3521.90 175.831   5
 -12  -1   5 3747.96 180.891  10
 -12   1   5 3705.73 173.069  10
  12   1   6 508.480 68.1117   5
  12  -1   6 365.506 60.5660   5
 -12  -1   6 507.497 76.5346  10
 -12   1   6 585.035 78.0070  10
  12   1   7 1144.41 104.227   5
  12  -1   7 1105.87 105.158   5
 -12  -1   7 1121.69 111.569  10
 -12   1   7 1334.63 118.301  10
 -12  -1   8 62.0956 41.7977  10
 -12   1   8 200.855 66.9916  10
  12   1   8 132.265 44.6753  10
  12  -1   8 134.208 39.0069   5
  12   2  -7 8788.31 325.949   9
 -12   2  -7 9092.66 347.734   4
  12   2  -6 454.020 74.5282   9
 -12   2  -6 448.852 72.1778   4
  12   2  -5 18216.3 470.395   9
 -12   2  -5 16973.7 412.214   9
 -12   2  -5 18500.0 490.948   4
  12  -2  -5 16900.2 451.538   5
  12   2  -4 520.573 69.2800   9
 -12   2  -4 391.463 52.8390   9
  12  -2  -4 444.011 60.7269   5
  12   2  -3 29483.5 631.842   9
 -12   2  -3 28283.0 600.039   9
  12  -2  -3 27314.9 622.861   5
 -12  -2  -3 28398.6 628.698  10
  12   2  -2 1024.71 87.5488   9
 -12   2  -2 1168.01 88.6548   9
  12  -2  -2 996.661 89.5410   5
 -12  -2  -2 970.563 87.3954  10
  12   2  -1 28065.6 600.393   9
 -12   2  -1 28370.5 610.438   9
  12  -2  -1 25980.6 620.276   5
 -12  -2  -1 27845.8 625.916  10
 -12  -2   0 137.696 44.4369  10
 -12   2   0 75.0610 26.7508  10
  12   2   0 56.1198 31.3092   9
 -12   2   0 47.7025 30.4141   9
  12  -2   0 55.0375 32.1712   5
  12   2   1 28075.0 587.624   5
 -12   2   1 27990.0 648.289   9
  12  -2   1 29266.0 657.703   5
 -12  -2   1 30236.2 663.458  10
 -12   2   1 27921.5 583.482  10
  12   2   2 756.449 63.9935   5
  12  -2   2 931.816 92.7666   5
 -12  -2   2 794.937 86.8386  10
 -12   2   2 807.131 68.3702  10
  12   2   3 27328.3 571.990   5
  12  -2   3 26940.8 636.911   5
 -12  -2   3 26635.5 631.324  10
 -12   2   3 28647.5 584.694  10
 -12  -2   4 362.366 61.9821  10
  12   2   4 423.794 53.1827   5
  12  -2   4 360.124 60.5044   5
 -12   2   4 404.490 56.2013  10
  12   2   5 16959.2 428.003   5
  12  -2   5 16308.2 465.570   5
 -12  -2   5 17281.1 464.703  10
 -12   2   5 18369.1 447.901  10
 -12  -2   6 278.504 59.8988  10
 -12   2   6 331.502 61.2578  10
  12  -2   6 276.141 59.0415   5
  12  -2   7 9213.91 343.529   5
 -12  -2   7 8966.75 332.384  10
 -12   2   7 9216.16 323.010  10
  12   3  -7 7475.54 299.273   9
 -12   3  -7 7727.97 330.781   4
  12   3  -6 797.453 88.9023   9
 -12   3  -6 938.670 109.920   4
  12   3  -5 12168.4 362.319   9
 -12   3  -5 11031.7 321.919   9
 -12   3  -5 11916.6 393.869   4
  12  -3  -5 11057.5 355.365   5
  12   3  -4 1790.73 121.452   9
 -12   3  -4 1708.23 110.014   9
  12   3  -4 1676.32 127.495   3
  12  -3  -4 1550.72 116.657   5
  12   3  -3 20184.1 484.535   9
 -12   3  -3 19800.2 473.217   9
  12   3  -3 19576.7 497.267   3
  12  -3  -3 18971.9 490.587   5
 -12  -3  -3 20200.7 499.280  10
 -12  -3  -2 257.007 53.0920  10
  12   3  -2 382.663 55.1295   3
  12   3  -2 337.131 54.6506   9
 -12   3  -2 294.288 49.9325   9
  12  -3  -2 346.390 58.4615   5
  12   3  -1 16223.9 400.007   9
 -12   3  -1 16360.3 411.909   9
  12  -3  -1 15039.3 428.054   5
  12   3  -1 15403.8 386.678   3
 -12  -3  -1 15984.4 430.976  10
  12   3   0 451.801 55.9524   9
 -12   3   0 442.876 63.2506   9
  12   3   0 377.138 46.1338   3
 -12  -3   0 491.101 69.7853  10
  12  -3   0 388.562 62.3390   5
  12   3   1 14431.8 368.315   9
 -12   3   1 14928.1 409.953   9
  12  -3   1 15098.7 432.657   5
 -12  -3   1 15598.0 433.651  10
 -12  -3   2 176.821 50.2533  10
 -12   3   2 268.568 54.3333   9
  12  -3   2 221.557 53.3816   5
  12  -3   3 18665.8 518.351   5
 -12   3   3 18902.1 506.359   9
 -12  -3   3 19324.1 514.001  10
 -12   3   3 20157.9 447.297  10
  12  -3   4 1545.65 127.185   5
 -12   3   4 1754.31 132.472   9
 -12  -3   4 1680.15 130.715  10
 -12   3   4 1755.75 109.610  10
  12  -3   5 10840.5 373.492   5
 -12  -3   5 10873.7 365.617  10
 -12   3   5 11629.2 334.893  10
  12  -3   6 740.207 94.1179   5
 -12  -3   6 944.160 105.570  10
 -12   3   6 809.916 85.9932  10
  12  -3   7 7504.69 317.624   5
 -12  -3   7 6676.93 293.903  10
 -12   3   7 7504.24 284.361  10
  12   4  -6 165.822 56.2164   9
 -12   4  -6 145.931 41.2666   9
 -12   4  -6 238.244 61.8471   4
  12   4  -5 1594.02 122.216   9
 -12   4  -5 1470.02 111.523   9
 -12   4  -5 1660.54 145.799   4
  12   4  -5 1645.66 139.292   3
  12  -4  -5 1563.90 125.562   5
  12   4  -4 17.9845 33.7764   3
  12   4  -4-6.13064 28.7264   9
 -12   4  -4 76.9452 41.2951   9
  12  -4  -4 1.49976 36.5472   5
  12   4  -3 3643.71 174.230   9
 -12   4  -3 3689.14 173.577   9
  12  -4  -3 3556.08 183.325   5
  12   4  -3 3676.69 181.432   3
  12   4  -2 564.064 68.7727   9
 -12   4  -2 609.095 66.8627   3
 -12   4  -2 601.904 72.9193   9
  12  -4  -2 579.270 75.8739   5
  12   4  -2 549.691 65.7834   3
 -12  -4  -2 798.832 87.2279  10
  12   4  -1 3939.78 170.684   9
 -12   4  -1 3961.44 180.704   9
  12  -4  -1 3720.88 191.759   5
  12   4  -1 4013.58 169.853   3
 -12  -4  -1 3795.41 188.586  10
 -12  -4   0 108.617 45.2258  10
  12   4   0 152.712 31.4482   3
  12   4   0 154.370 40.5105   9
 -12   4   0 111.762 39.1170   9
  12  -4   0 118.602 48.2779   5
 -12   4   1 3656.49 176.206   9
  12  -4   1 3570.39 192.508   5
 -12  -4   1 3500.36 188.648  10
 -12   4   2 629.536 77.8284   9
  12  -4   2 544.891 79.4484   5
 -12  -4   2 616.652 84.8720  10
 -12   4   3 3985.41 192.615   9
  12  -4   3 4068.95 215.788   5
 -12  -4   3 4013.82 208.906  10
 -12  -4   4-15.2627 43.1427  10
  12  -4   4 160.432 59.1650   5
  12  -4   5 1633.49 146.020   5
 -12  -4   5 1652.43 144.512  10
 -12  -4   6 266.109 71.7641  10
  12  -4   6 146.862 55.4115   5
  12  -4   7 2036.88 165.743   5
 -12   4   7 2252.78 149.893  10
 -12   5  -6 146.652 44.9588   9
  12   5  -5 15201.7 444.683   9
 -12   5  -5 15626.3 441.304   9
 -12   5  -5 16165.9 521.851   4
  12   5  -5 15867.3 487.875   3
  12   5  -4 301.998 57.3222   3
 -12   5  -4 563.870 75.3049   9
  12   5  -4 421.640 67.9214   9
  12  -5  -4 437.780 68.0815   5
  12   5  -3 22417.2 544.764   9
 -12   5  -3 22866.6 551.543   9
  12  -5  -3 22694.4 577.190   5
  12   5  -3 22453.0 565.747   3
 -12   5  -2 904.923 87.7263   3
  12   5  -2 921.927 88.8024   9
 -12   5  -2 802.365 84.8754   9
  12  -5  -2 970.574 98.1523   5
  12   5  -2 937.331 88.2338   3
 -12  -5  -2 995.898 99.9665  10
  12   5  -1 25060.1 566.445   9
 -12   5  -1 25419.6 591.191   9
  12  -5  -1 23974.5 609.856   5
 -12  -5  -1 24710.9 606.046  10
  12   5  -1 24958.8 565.462   3
 -12   5   0 1259.10 105.178   9
  12  -5   0 1416.21 115.619   5
 -12  -5   0 1276.27 111.565  10
  12  -5   1 23042.5 613.401   5
 -12  -5   1 23683.0 606.221  10
 -12   5   2 742.026 81.1526   9
  12  -5   2 772.490 96.2532   5
 -12  -5   2 824.627 96.1988  10
  12  -5   3 22701.3 623.151   5
 -12  -5   3 23396.4 613.472  10
  12  -5   4 439.731 74.3744   5
  12   6  -4 74.9265 42.7400   3
  12   6  -4 135.405 53.7592   9
 -12   6  -4 34.7837 37.1251   9
  12  -6  -4 151.625 52.7710   5
  12   6  -3 545.384 74.8550   9
 -12   6  -3 550.792 79.3050   9
 -12   6  -3 602.989 79.9950   3
  12   6  -3 614.728 83.6824   3
  12  -6  -3 504.253 73.2881   5
  12   6  -2 483.884 71.3468   9
 -12   6  -2 428.923 69.6733   9
  12   6  -2 491.034 70.8530   3
 -12   6  -2 380.705 64.0037   3
  12  -6  -2 455.741 72.9685   5
 -12  -6  -1 478.171 74.9177  10
 -12   6  -1 480.531 70.1307   3
  12   6  -1 524.824 68.7065   3
  12   6  -1 381.371 60.1513   9
 -12   6  -1 378.689 64.6423   9
  12  -6  -1 582.244 79.6576   5
 -12  -6   0 11.0397 39.1582  10
 -12   6   0 37.9726 40.2860   9
  12  -6   0 78.1103 31.8051   5
 -12   6   1 274.144 55.1805   9
 -12   6   2 478.643 70.8816   9
  12   7  -2 505.501 74.2496   9
 -12   7  -2 592.411 83.6330   3
  12   7  -2 441.793 72.7933   3
 -12   7  -1 10907.0 365.187   9
 -12   7  -1 11606.2 400.264   3
 -12   7   0 391.591 71.8456   9
 -12   7   0 291.760 64.6244   3
 -12   7   1 10675.0 348.996   9
  13   0  -6 24.7265 46.8986   9
  13   0  -5 23.8656 42.1440   9
 -13   0  -5-5.03812 18.1991   4
  13   0  -4 30.0499 42.4692   9
  13   0  -4-1.94581 22.4806   5
 -13   0  -3 18.6179 29.6422  10
 -13   0  -3 5.48142 21.5269   9
 -13   0  -3 66.6174 23.8677   4
  13   0  -3 7.73181 21.3951   5
 -13   0  -2 7.29886 27.0678  10
 -13   0  -2 52.5082 33.4366   9
  13   0  -2-10.6756 18.9063   5
 -13   0  -1 8.19198 26.8297  10
  13   0  -1-3.95978 27.3514   5
  13   0   0 270.494 52.2980   5
  13   0   0 116.647 29.8198   2
 -13   0   1 11.9824 36.3983  10
  13   0   1 42.6226 37.7060   5
  13   0   1 48.2738 25.7456   2
 -13   0   2 10.4982 28.5465  10
  13   0   2-12.9840 30.3043   5
 -13   0   3 81.7852 42.9893  10
  13   0   3 12.4651 26.1569   5
 -13   0   4 22.6165 31.3769  10
  13   0   4 4.70680 29.8400   5
 -13   0   5-8.10881 39.3470  10
  13   0   5 49.1356 33.5974   5
 -13   0   6 12.6523 39.7881  10
  13   0   6-19.4968 31.7577   5
 -13   0   7-9.14489 44.3420  10
  13   0   7-5.66682 27.7402   5
 -13   1  -8 8480.33 349.309   4
  13   1  -7 2660.74 179.223   9
 -13   1  -7 2803.20 179.143   4
  13   1  -6 14566.4 444.890   9
 -13   1  -6 15250.6 444.308   4
  13   1  -5 8120.04 300.769   9
 -13   1  -5 8436.56 294.868   4
  13  -1  -5 8095.94 277.715   5
  13   1  -4 25224.2 603.470   9
 -13   1  -4 25952.4 548.561   9
 -13   1  -4 24022.9 576.648   4
  13  -1  -4 24647.4 572.989   5
  13   1  -3 5484.67 229.079   9
 -13   1  -3 5834.57 209.217   9
  13  -1  -3 5594.86 217.129   5
  13   1  -3 6217.28 201.295   5
 -13   1  -3 5582.09 194.652  10
 -13  -1  -3 5555.13 216.861  10
  13   1  -2 25045.1 597.163   9
 -13   1  -2 25929.2 578.235   9
  13  -1  -2 25546.1 589.227   5
  13   1  -2 26340.5 550.612   5
 -13  -1  -2 25771.2 588.111  10
 -13   1  -2 25129.1 551.434  10
  13   1  -1 5301.13 221.620   9
 -13   1  -1 5730.75 223.422   9
  13   1  -1 5819.61 205.652   5
  13  -1  -1 5603.19 224.383   5
 -13  -1  -1 5343.16 218.612  10
 -13   1  -1 5814.54 209.308  10
 -13  -1   0 36657.5 717.921   6
  13   1   0 35180.1 727.716   5
  13  -1   0 35150.3 759.643   5
 -13  -1   0 35803.2 762.534  10
 -13   1   0 35476.5 729.856  10
  13   1   1 5237.44 198.527   5
  13  -1   1 5081.18 211.698   5
 -13  -1   1 5456.13 219.035  10
 -13   1   1 5125.21 197.871  10
  13   1   2 24558.0 540.354   5
  13  -1   2 23656.7 573.213   5
 -13  -1   2 24161.4 571.190  10
 -13   1   2 24140.2 538.024  10
  13   1   3 4939.58 193.460   5
  13  -1   3 5122.52 213.101   5
 -13  -1   3 5145.36 213.199  10
 -13   1   3 5232.94 198.183  10
  13   1   4 24665.7 559.480   5
 -13  -1   4 25033.9 586.293  10
 -13   1   4 25989.0 573.211  10
  13   1   5 7856.78 270.374   5
  13  -1   5 8106.30 291.730   5
 -13  -1   5 8131.84 291.303  10
 -13   1   5 8441.03 283.877  10
  13   1   6 14207.6 409.964   5
  13  -1   6 14329.4 432.355   5
 -13  -1   6 14829.0 434.343  10
 -13   1   6 15457.7 432.484  10
  13   1   7 2599.70 162.372   5
  13  -1   7 2656.14 172.638   5
 -13  -1   7 2647.26 173.858  10
 -13   1   7 2927.88 177.487  10
  13   1   8 7396.68 289.157  10
  13   2  -7 520.219 84.2790   9
 -13   2  -7 453.533 77.1523   4
  13   2  -6 2932.44 177.502   9
 -13   2  -6 2882.66 181.886   4
  13   2  -5 2760.68 165.345   9
 -13   2  -5 2606.02 164.366   4
  13  -2  -5 2539.83 153.566   5
  13   2  -4 8232.33 288.303   9
 -13   2  -4 8212.21 260.024   9
  13  -2  -4 7580.62 277.448   5
  13   2  -3 1632.81 117.121   9
 -13   2  -3 1580.92 107.259   9
  13  -2  -3 1523.57 113.800   5
 -13  -2  -3 1806.72 123.597  10
  13   2  -2 5695.82 224.203   9
 -13   2  -2 6158.00 224.438   9
  13  -2  -2 5750.83 234.292   5
 -13  -2  -2 5658.04 228.931  10
  13   2  -1 2175.53 129.741   9
 -13   2  -1 2321.83 137.386   9
  13  -2  -1 2167.75 140.662   5
 -13  -2  -1 2142.22 138.518  10
  13   2   0 14205.7 390.026   9
 -13   2   0 14877.9 416.096   9
  13  -2   0 14810.6 420.154   5
 -13  -2   0 15407.2 426.107  10
 -13   2   0 15533.3 376.229  10
  13   2   1 1988.00 111.860   5
 -13   2   1 1984.65 138.111   9
  13  -2   1 2127.09 137.872   5
 -13  -2   1 2185.25 141.738  10
 -13   2   1 1933.27 111.308  10
  13   2   2 5558.67 197.022   5
  13  -2   2 5843.29 240.836   5
 -13  -2   2 5707.40 236.150  10
 -13   2   2 5355.26 194.407  10
  13   2   3 1907.30 110.397   5
  13  -2   3 1799.32 132.459   5
 -13  -2   3 1846.17 133.528  10
 -13   2   3 1905.12 112.610  10
  13   2   4 8067.70 258.924   5
  13  -2   4 7680.56 291.076   5
 -13  -2   4 7987.58 293.178  10
 -13   2   4 8707.97 272.880  10
  13   2   5 2295.49 132.657   5
  13  -2   5 2322.68 154.939   5
 -13  -2   5 2216.39 149.775  10
 -13   2   5 2474.52 143.910  10
  13   2   6 2361.86 144.092   5
  13  -2   6 2672.98 172.631   5
 -13  -2   6 2587.78 167.025  10
 -13   2   6 2810.39 161.813  10
  13   2   7 473.029 70.3111   5
  13  -2   7 448.369 79.2116   5
 -13  -2   7 594.303 88.4747  10
 -13   2   7 605.612 85.8063  10
  13   3  -7 1247.13 122.910   9
 -13   3  -7 1227.72 129.765   4
  13   3  -6 4897.13 233.455   9
 -13   3  -6 5199.05 264.049   4
  13   3  -5 784.963 90.2955   9
 -13   3  -5 791.602 80.5156   9
 -13   3  -5 831.352 99.6772   4
  13  -3  -5 723.373 87.3513   5
  13   3  -4 7978.96 284.408   9
 -13   3  -4 7666.92 262.017   9
  13  -3  -4 7445.85 284.163   5
  13   3  -3 3450.57 172.137   9
 -13   3  -3 3215.81 161.699   9
  13  -3  -3 3138.01 172.793   5
 -13  -3  -3 3276.56 176.697  10
  13   3  -2 13222.1 368.092   9
 -13   3  -2 13168.0 367.803   9
  13   3  -2 12588.8 363.971   3
  13  -3  -2 12159.9 381.988   5
 -13  -3  -2 13317.2 389.215  10
  13   3  -1 5204.71 204.593   9
 -13   3  -1 5503.52 219.217   9
  13  -3  -1 4541.53 216.339   5
  13   3  -1 5213.73 197.301   3
 -13  -3  -1 4748.74 218.182  10
  13   3   0 8566.91 274.267   9
 -13   3   0 9115.11 303.576   9
  13  -3   0 8734.35 312.249   5
  13   3   0 9115.47 262.072   3
 -13  -3   0 8984.25 313.100  10
  13   3   1 4143.98 177.460   9
 -13   3   1 4492.56 209.137   9
  13  -3   1 4483.61 216.034   5
 -13  -3   1 4710.37 216.592  10
 -13   3   2 12248.8 383.319   9
  13  -3   2 12193.4 388.364   5
 -13  -3   2 12762.8 391.146  10
 -13  -3   3 3258.99 184.734  10
  13  -3   3 3361.41 191.658   5
 -13   3   3 3189.77 184.410   9
 -13   3   3 3357.71 151.087  10
  13  -3   4 7414.20 304.018   5
 -13   3   4 7244.94 294.375   9
 -13  -3   4 7424.91 295.388  10
 -13   3   4 7975.33 258.758  10
  13  -3   5 615.817 83.5694   5
 -13  -3   5 644.819 90.7561  10
 -13   3   5 865.487 86.7672  10
  13   3   6 4483.25 199.630   5
  13  -3   6 4867.59 247.485   5
 -13  -3   6 4698.93 237.626  10
 -13   3   6 4966.28 217.984  10
  13  -3   7 1251.44 128.811   5
 -13  -3   7 1095.18 122.099  10
 -13   3   7 1225.39 117.151  10
  13   4  -6 9076.97 333.579   9
 -13   4  -6 8480.99 300.579   9
 -13   4  -6 9494.73 385.098   4
  13   4  -5 3114.41 177.719   9
 -13   4  -5 2927.49 162.685   9
 -13   4  -5 3176.38 207.190   4
  13   4  -5 3089.06 196.180   3
  13  -4  -5 3146.84 187.114   5
  13   4  -4 13106.3 392.691   9
 -13   4  -4 13046.5 376.720   9
  13   4  -4 13018.2 413.122   3
  13  -4  -4 13471.1 412.985   5
  13   4  -3 4123.53 194.170   9
 -13   4  -3 4243.43 193.404   9
  13   4  -3 3973.29 196.253   3
  13  -4  -3 3905.01 202.118   5
 -13  -4  -3 3990.23 201.031  10
  13   4  -2 19834.2 487.706   9
 -13   4  -2 19821.9 495.689   9
  13  -4  -2 18009.3 506.844   5
  13   4  -2 19188.6 484.889   3
 -13  -4  -2 19245.4 511.094  10
  13   4  -1 6221.52 229.093   9
 -13   4  -1 6031.63 237.573   9
  13  -4  -1 5669.51 249.940   5
  13   4  -1 5955.34 219.760   3
 -13  -4  -1 5863.12 248.270  10
  13   4   0 18965.4 453.703   9
 -13   4   0 18277.4 477.029   9
  13  -4   0 17865.6 504.101   5
 -13  -4   0 17616.0 496.275  10
 -13   4   1 5474.40 232.221   9
  13  -4   1 5399.03 247.510   5
 -13  -4   1 5611.93 248.405  10
 -13   4   2 18510.5 501.914   9
  13  -4   2 19281.6 536.854   5
 -13  -4   2 19876.4 533.471  10
 -13   4   3 3419.60 185.446   9
  13  -4   3 3658.68 206.530   5
 -13  -4   3 3747.29 204.752  10
  13  -4   4 13267.6 445.471   5
 -13  -4   4 13735.1 435.442  10
  13  -4   5 3375.29 213.233   5
 -13  -4   5 3155.81 198.450  10
  13  -4   6 8822.04 364.127   5
 -13  -4   6 8085.71 342.518  10
  13   5  -5 188.153 62.2963   3
  13   5  -5 21.4793 38.5960   9
 -13   5  -5 93.5490 43.8730   9
 -13   5  -5 130.299 52.5725   4
  13   5  -4 273.928 58.9653   3
 -13   5  -4 414.241 70.5858   9
  13   5  -4 268.742 55.4352   9
  13  -5  -4 300.010 60.7485   5
  13   5  -3 257.034 52.9097   3
  13   5  -3 288.407 57.8494   9
 -13   5  -3 328.352 63.6833   9
  13  -5  -3 292.271 62.8371   5
 -13  -5  -2 458.745 77.7472  10
  13   5  -2 420.458 61.8189   3
  13   5  -2 342.836 59.1245   9
 -13   5  -2 415.273 67.6699   9
  13  -5  -2 465.909 75.2965   5
 -13   5  -2 388.153 63.2853   3
 -13  -5  -1 548.656 80.7200  10
  13   5  -1 691.507 75.8721   9
 -13   5  -1 758.606 89.5757   9
  13  -5  -1 661.753 85.9800   5
  13   5  -1 769.885 77.6807   3
 -13  -5   0 387.678 71.4672  10
 -13   5   0 456.870 69.8439   9
  13  -5   0 415.168 72.8501   5
 -13   5   1 798.156 90.1521   9
  13  -5   1 817.693 98.5123   5
 -13  -5   1 699.876 89.1830  10
 -13  -5   2 315.036 63.3157  10
 -13   5   2 307.661 54.3438   9
  13  -5   2 411.268 75.5829   5
 -13  -5   3 461.843 83.3217  10
  13  -5   3 390.815 74.2731   5
 -13  -5   4 297.822 75.6519  10
  13  -5   4 240.491 58.4280   5
  13  -5   5 136.252 49.9430   5
  13   6  -4 8882.57 348.067   3
  13  -6  -4 9073.16 346.048   5
  13   6  -3 3198.46 178.560   9
 -13   6  -3 3570.53 196.011   9
  13  -6  -3 3533.53 201.793   5
  13   6  -3 3500.13 197.607   3
  13   6  -2 11907.9 366.692   9
 -13   6  -2 11823.3 380.758   9
  13  -6  -2 11891.0 397.548   5
  13   6  -2 11987.5 376.667   3
 -13   6  -2 12202.1 392.502   3
 -13   6  -1 2676.53 172.778   3
 -13   6  -1 2724.83 165.476   9
  13  -6  -1 2672.01 174.389   5
 -13  -6  -1 2636.70 172.647  10
 -13   6   0 8954.82 318.577   9
  13  -6   0 9010.29 341.024   5
 -13  -6   0 8785.44 331.156  10
 -13   6   1 2810.97 168.798   9
  13  -6   1 2576.18 175.667   5
 -13   6   2 11207.4 363.571   9
  13   7  -2 2187.92 153.474   3
 -13   7   0 2729.12 171.808   9
 -13   7   1 570.713 80.4271   9
  14   0  -4 25039.4 572.162   5
 -14   0  -3 7986.91 259.015   9
  14   0  -3 7432.43 253.595   5
 -14   0  -3 7622.04 257.878  10
 -14   0  -2 30459.1 659.063   9
 -14   0  -2 30183.5 653.746  10
  14   0  -1 5910.22 228.113   5
 -14   0  -1 6183.11 232.594  10
  14   0   0 21898.2 529.411   5
 -14   0   0 22791.2 538.733  10
  14   0   1 5666.37 219.392   5
 -14   0   1 5406.18 217.497  10
  14   0   2 26935.9 613.584   5
 -14   0   2 25986.6 604.466  10
  14   0   3 7014.48 253.761   5
 -14   0   3 7037.14 253.594  10
  14   0   4 23300.4 564.827   5
 -14   0   4 24037.2 569.738  10
  14   0   5 2182.72 142.739   5
 -14   0   5 2263.67 146.307  10
  14   0   6 12690.0 399.957   5
 -14   0   6 13985.8 418.676  10
  14   0   7 4992.77 240.253   5
 -14   0   7 4858.65 242.130  10
  14   1  -7 375.649 85.2255   9
 -14   1  -7 369.255 66.9745   4
  14   1  -6 268.653 70.5225   9
 -14   1  -6 133.404 41.1514   4
  14   1  -5 206.075 58.5717   9
 -14   1  -5 291.615 54.8667   4
  14  -1  -5 261.453 53.7795   5
  14   1  -4 3060.37 177.606   9
 -14   1  -4 3131.47 148.785   9
 -14   1  -4 2960.12 160.603   4
  14  -1  -4 2949.60 160.029   5
  14   1  -3 561.472 79.3829   9
 -14   1  -3 659.421 72.7279   9
  14  -1  -3 578.890 72.6518   5
  14   1  -3 587.253 62.3187   5
 -14  -1  -3 566.247 73.1744  10
  14   1  -2 1297.11 112.911   9
 -14   1  -2 1361.11 105.176   9
  14  -1  -2 1302.00 106.791   5
  14   1  -2 1228.10 89.1763   5
 -14  -1  -2 1320.43 106.060  10
 -14   1  -2 1177.41 91.0038  10
 -14   1  -1 861.852 79.8487  10
 -14   1  -1 1192.33 107.978   9
  14   1  -1 1112.41 87.9917   5
  14  -1  -1 1015.24 97.8416   5
 -14  -1  -1 872.762 92.6546  10
  14   1   0 6216.66 222.229   5
  14  -1   0 6059.12 239.469   5
 -14  -1   0 6181.78 242.198  10
 -14   1   0 6012.56 222.364  10
  14   1   1 926.175 81.5828   5
  14  -1   1 816.401 85.4791   5
 -14  -1   1 771.171 84.3321  10
 -14   1   1 850.048 86.7060  10
  14   1   2 1580.94 108.054   5
  14  -1   2 1597.06 120.412   5
 -14  -1   2 1547.16 118.311  10
 -14   1   2 1420.62 103.204  10
 -14  -1   3 367.405 63.3914  10
  14   1   3 459.444 62.0353   5
  14  -1   3 373.656 60.6788   5
 -14   1   3 459.778 64.4347  10
  14   1   4 3022.01 157.983   5
  14  -1   4 2955.75 167.737   5
 -14  -1   4 3045.93 168.514  10
 -14   1   4 3173.50 162.861  10
 -14  -1   5 182.965 54.6649  10
 -14   1   5 151.787 46.7737  10
  14   1   5 152.627 42.5808   5
  14  -1   5 131.301 45.6383   5
 -14  -1   6 347.673 72.1274  10
 -14   1   6 353.839 67.0358  10
  14   1   6 301.544 55.7641   5
  14  -1   6 365.861 69.8371   5
 -14  -1   7 454.047 85.9906  10
 -14   1   7 331.869 66.6613  10
  14   1   7 355.128 63.4833   5
  14  -1   7 385.431 71.4860   5
  14   2  -7 1557.05 140.864   9
 -14   2  -7 1592.00 144.434   4
  14   2  -6 8131.56 317.576   9
 -14   2  -6 7919.97 324.474   4
  14   2  -5 3295.71 187.785   9
 -14   2  -5 3462.53 195.091   4
  14  -2  -5 3161.44 179.536   5
  14   2  -4 13718.6 406.291   9
 -14   2  -4 13241.4 366.384   9
  14  -2  -4 12593.0 391.599   5
  14   2  -3 3003.27 169.025   9
 -14   2  -3 2881.19 152.164   9
  14  -2  -3 2901.27 165.031   5
 -14  -2  -3 3124.50 172.096  10
  14   2  -2 16945.5 451.030   9
 -14   2  -2 16975.0 444.167   9
  14  -2  -2 16238.0 456.681   5
 -14  -2  -2 16651.7 455.413  10
  14   2  -1 2750.72 154.509   9
 -14   2  -1 2911.82 161.257   9
  14  -2  -1 2744.48 163.056   5
 -14  -2  -1 2801.48 163.635  10
  14   2   0 17889.8 474.133   9
 -14   2   0 18894.2 500.596   9
  14  -2   0 19305.5 505.545   5
 -14   2   1 3822.85 197.638   9
  14  -2   1 3649.41 189.062   5
 -14  -2   1 3850.59 193.496  10
 -14   2   1 3470.37 157.442  10
  14   2   2 15931.8 402.804   5
  14  -2   2 15864.9 450.655   5
 -14   2   2 15742.0 401.880  10
  14   2   3 2665.60 138.376   5
  14  -2   3 2546.74 163.151   5
 -14  -2   3 2608.36 163.463  10
 -14   2   3 2700.70 141.191  10
  14   2   4 13682.5 370.124   5
  14  -2   4 12407.2 403.476   5
 -14  -2   4 12576.1 401.459  10
 -14   2   4 14136.9 381.418  10
  14   2   5 2910.73 154.720   5
  14  -2   5 2868.80 178.747   5
 -14  -2   5 2860.54 176.394  10
 -14   2   5 2969.49 162.038  10
  14   2   6 7836.13 286.026   5
  14  -2   6 8474.76 331.558   5
 -14  -2   6 8054.51 319.162  10
 -14   2   6 8794.32 309.829  10
  14   2   7 1430.24 119.998   5
  14  -2   7 1900.61 155.122   5
 -14  -2   7 1762.92 150.113  10
 -14   2   7 1726.66 139.460  10
  14   3  -6 7465.67 305.946   9
 -14   3  -6 7446.66 330.045   4
  14   3  -5 2026.20 147.685   9
 -14   3  -5 1701.91 120.160   9
 -14   3  -5 1914.20 155.502   4
  14  -3  -5 1774.89 139.232   5
  14   3  -4 12971.6 393.917   9
 -14   3  -4 12735.9 368.027   9
  14  -3  -4 11832.2 389.530   5
  14   3  -3 5998.67 242.468   9
 -14   3  -3 5658.99 228.633   9
  14  -3  -3 5546.81 244.339   5
 -14  -3  -3 5787.90 249.254  10
  14   3  -2 15384.0 417.794   9
 -14   3  -2 15326.2 417.733   9
  14  -3  -2 13752.1 426.532   5
 -14  -3  -2 14335.3 428.591  10
  14   3  -1 3864.07 181.492   9
 -14   3  -1 3797.75 188.664   9
  14  -3  -1 3365.27 188.585   5
 -14  -3  -1 3702.62 196.590  10
  14   3   0 15329.6 414.977   9
 -14   3   0 15745.6 447.210   9
  14  -3   0 16040.6 461.025   5
 -14  -3   0 16235.2 460.717  10
  14   3   1 3753.15 176.272   9
 -14   3   1 3968.79 204.083   9
  14  -3   1 4054.69 206.989   5
 -14  -3   1 4377.01 213.973  10
 -14   3   2 13601.2 423.189   9
  14  -3   2 13185.6 416.161   5
 -14  -3   2 14266.3 424.163  10
  14  -3   3 5573.01 254.648   5
 -14   3   3 5223.31 248.568   9
 -14  -3   3 6001.57 256.718  10
  14  -3   4 11648.6 405.337   5
 -14   3   4 11873.2 402.292   9
 -14  -3   4 11573.2 392.494  10
 -14   3   4 12517.3 352.758  10
  14  -3   5 1596.28 137.911   5
 -14  -3   5 1348.35 129.915  10
 -14   3   5 1760.84 123.717  10
  14  -3   6 6553.44 301.274   5
 -14  -3   6 6319.24 288.704  10
 -14   3   6 6947.02 270.676  10
  14   3   7 1561.61 123.537   5
 -14  -3   7 1630.17 148.074  10
 -14   3   7 1651.18 136.234  10
  14   4  -6 1374.65 128.649   9
 -14   4  -6 1363.58 114.744   9
 -14   4  -6 1431.67 147.333   4
  14   4  -5 325.512 66.1661   9
 -14   4  -5 373.557 67.2686   9
 -14   4  -5 402.046 82.5399   4
  14  -4  -5 471.828 79.5431   5
  14   4  -4 2917.50 171.736   9
 -14   4  -4 2714.82 157.729   9
  14   4  -4 2846.90 181.608   3
  14  -4  -4 2848.01 179.788   5
  14   4  -3 662.802 84.5402   9
 -14   4  -3 722.456 85.1993   9
  14   4  -3 625.875 83.3613   3
  14  -4  -3 570.352 85.9485   5
 -14  -4  -3 607.406 82.7155  10
  14   4  -2 4093.55 194.741   9
 -14   4  -2 4221.89 201.157   9
  14  -4  -2 3792.68 207.114   5
  14   4  -2 4069.04 193.306   3
 -14  -4  -2 3964.97 208.306  10
  14   4  -1 1965.26 130.298   9
 -14   4  -1 1784.25 130.450   9
  14  -4  -1 1790.24 140.598   5
  14   4  -1 1950.93 122.869   3
 -14  -4  -1 1704.60 136.893  10
  14   4   0 2862.42 153.230   9
 -14   4   0 2825.36 167.231   9
  14  -4   0 2595.47 171.076   5
 -14  -4   0 2730.00 173.414  10
 -14   4   1 1827.05 137.093   9
  14  -4   1 1835.80 142.913   5
 -14  -4   1 1964.90 147.245  10
 -14   4   2 4339.47 217.891   9
  14  -4   2 4155.87 223.390   5
 -14  -4   2 4457.41 225.346  10
 -14   4   3 660.451 89.6245   9
  14  -4   3 698.353 92.7306   5
 -14  -4   3 800.365 99.8256  10
  14  -4   4 2792.63 191.302   5
 -14  -4   4 2780.60 181.441  10
 -14  -4   5 521.628 94.8224  10
  14  -4   5 496.898 91.1583   5
  14  -4   6 1490.94 149.597   5
 -14  -4   6 1336.95 137.605  10
 -14   5  -5 3023.68 178.878   9
  14   5  -4 12859.6 403.056   9
 -14   5  -4 12377.0 391.788   9
  14   5  -4 12627.2 422.989   3
  14  -5  -4 12680.3 425.205   5
  14   5  -3 2954.39 172.374   9
 -14   5  -3 2914.04 172.747   9
  14   5  -3 3026.48 178.471   3
  14  -5  -3 3092.90 189.851   5
 -14   5  -2 19245.3 511.551   3
  14   5  -2 19480.9 503.664   9
 -14   5  -2 19327.4 517.913   9
  14  -5  -2 18439.5 536.087   5
  14   5  -2 19118.8 504.170   3
 -14  -5  -2 19664.9 544.578  10
  14   5  -1 4253.15 199.489   9
 -14   5  -1 4978.81 227.420   9
  14  -5  -1 4109.03 222.926   5
 -14  -5  -1 4302.71 222.594  10
 -14   5   0 10742.3 355.671   9
  14  -5   0 9862.23 364.660   5
 -14  -5   0 9976.48 360.585  10
 -14   5   1 4577.84 222.393   9
  14  -5   1 4449.11 236.047   5
 -14  -5   1 4583.47 233.791  10
 -14   5   2 19180.5 526.984   9
  14  -5   2 19448.3 562.812   5
 -14  -5   2 19696.4 555.066  10
 -14   5   3 2875.13 174.570   9
  14  -5   3 2920.67 195.044   5
 -14  -5   3 2759.23 186.391  10
  14  -5   4 13176.2 459.898   5
 -14  -5   4 13077.4 445.415  10
  14  -5   5 3093.71 214.787   5
  14   6  -3 66.9532 30.5156   3
  14   6  -3 121.039 47.0799   9
  14  -6  -3 48.2136 36.6621   5
  14   6  -2 228.892 50.3980   3
  14   6  -2 286.938 57.3954   9
 -14   6  -2 380.745 76.1052   9
 -14  -6  -2 320.807 67.6135  10
 -14   6  -2 293.978 59.6261   3
  14  -6  -2 346.541 72.5218   5
 -14  -6  -1 172.086 64.2115  10
 -14   6  -1 39.2629 37.0321   9
  14  -6  -1 88.8314 39.3840   5
 -14   6  -1 136.057 50.8330   3
 -14  -6   0 146.498 48.7311  10
 -14   6   0 218.587 56.9794   9
  14  -6   0 245.220 60.7758   5
 -14  -6   1 121.933 55.9036  10
 -14   6   1 174.736 61.5650   9
  14  -6   1 265.500 58.1960   5
 -14   6   2 370.523 74.2056   9
  15   0  -5 47.8439 29.5857   5
  15   0  -4 1.85257 29.4659   5
 -15   0  -3 43.6851 35.5327  10
 -15   0  -3 7.78019 29.5565   9
  15   0  -3 8.99194 26.5893   5
 -15   0  -2 29.6051 40.0005  10
 -15   0  -2 88.5926 40.9913   9
  15   0  -2 67.3071 45.1997   5
 -15   0  -1 104.695 47.8757  10
  15   0  -1 48.8918 36.2603   5
 -15   0   0 228.491 52.5763  10
  15   0   0 247.543 55.2514   5
 -15   0   1 51.6194 44.1878  10
  15   0   1 122.518 38.6272   5
 -15   0   2 59.0104 46.0554  10
  15   0   2 46.7811 40.1009   5
 -15   0   3-18.3589 36.3324  10
 -15   0   4 90.2239 44.4045  10
  15   0   4 6.78795 28.5834   5
 -15   0   5 12.8674 39.0250  10
  15   0   5 28.2346 36.2248   5
 -15   0   6 29.8908 45.6902  10
  15   0   6 39.7031 42.2549   5
 -15   0   7 2.31449 47.3064  10
  15   0   7 32.4880 32.9904   5
  15   1  -7 11506.2 421.554   9
 -15   1  -7 11479.8 408.048   4
  15   1  -6 312.375 75.7021   9
 -15   1  -6 303.250 58.7971   4
  15   1  -5 18559.8 534.073   9
 -15   1  -5 18837.4 508.267   4
  15  -1  -5 18038.3 496.501   5
  15   1  -4 1514.95 133.716   9
 -15   1  -4 1544.05 108.551   9
 -15   1  -4 1568.36 117.855   4
  15  -1  -4 1475.02 118.218   5
  15   1  -3 27127.1 663.231   9
 -15   1  -3 27551.9 622.211   9
  15  -1  -3 25930.5 631.448   5
 -15  -1  -3 27382.2 640.261  10
  15   1  -2 1949.99 143.185   9
 -15   1  -2 2067.86 135.345   9
  15  -1  -2 1780.51 130.068   5
  15   1  -2 2012.70 120.644   5
 -15  -1  -2 1871.12 132.748  10
 -15   1  -2 1991.98 122.696  10
 -15   1  -1 32799.3 743.572   9
  15   1  -1 32997.1 705.048   5
  15  -1  -1 31678.7 735.290   5
 -15  -1  -1 34156.6 749.326  10
 -15   1  -1 34523.8 715.724  10
  15   1   0 749.640 75.0440   5
  15  -1   0 655.296 77.8213   5
 -15  -1   0 748.527 85.2108  10
 -15   1   0 643.518 73.4000  10
  15   1   1 31402.2 679.267   5
  15  -1   1 30930.7 705.067   5
 -15  -1   1 32587.1 715.610  10
 -15   1   1 31399.1 681.528  10
  15   1   2 1725.07 119.245   5
  15  -1   2 1915.60 133.300   5
 -15  -1   2 1784.04 129.396  10
 -15   1   2 1730.75 118.677  10
  15   1   3 25585.5 591.264   5
  15  -1   3 24703.8 618.060   5
 -15  -1   3 24169.2 608.670  10
 -15   1   3 26152.6 593.899  10
  15   1   4 1428.99 111.300   5
  15  -1   4 1193.10 109.886   5
 -15  -1   4 1341.87 116.986  10
 -15   1   4 1601.01 120.905  10
  15   1   5 16994.5 472.055   5
  15  -1   5 16710.9 490.593   5
 -15  -1   5 17900.8 498.481  10
 -15  -1   6 415.155 82.8257  10
 -15   1   6 256.495 59.0137  10
  15   1   6 289.481 58.4897   5
  15  -1   6 416.109 74.3922   5
  15   1   7 10922.8 382.623   5
  15  -1   7 11708.1 413.017   5
 -15  -1   7 12012.0 416.037  10
 -15   1   7 12259.5 410.595  10
  15   2  -7 2962.07 200.385   9
 -15   2  -7 2847.02 197.110   4
  15   2  -6-14.3312 51.8711   9
 -15   2  -6 41.1264 44.6253   4
  15   2  -5 4126.42 219.765   9
 -15   2  -5 4017.35 216.263   4
  15  -2  -5 3814.23 206.515   5
  15   2  -4 852.201 98.6917   9
 -15   2  -4 998.152 93.4925   9
  15  -2  -4 993.370 102.538   5
  15   2  -3 9393.00 328.371   9
 -15   2  -3 9274.63 306.008   9
  15  -2  -3 8584.22 316.991   5
 -15  -2  -3 9110.67 324.755  10
 -15  -2  -2 211.070 55.8015  10
  15   2  -2 230.238 59.1239   9
 -15   2  -2 282.039 58.7860   9
  15  -2  -2 156.793 47.6981   5
  15   2  -1 9288.58 318.399   9
 -15   2  -1 9527.98 327.437   9
  15  -2  -1 9266.64 327.427   5
 -15  -2  -1 9837.99 333.707  10
 -15  -2   0-6.20020 34.6466  10
 -15   2   0 3.52638 42.0637   9
  15  -2   0 2.18851 27.0513   5
 -15   2   1 9880.37 344.831   9
  15  -2   1 9257.73 323.712   5
 -15  -2   1 9887.32 333.859  10
 -15   2   1 8845.78 283.268  10
 -15  -2   2 109.322 44.9313  10
 -15   2   2 108.073 35.9854  10
  15  -2   2 172.527 49.7496   5
  15   2   3 10414.8 314.828   5
  15  -2   3 9401.59 345.083   5
 -15  -2   3 10265.9 352.023  10
 -15   2   3 10691.4 321.362  10
  15   2   4 786.713 80.5795   5
  15  -2   4 662.404 90.3822   5
 -15  -2   4 669.851 92.0929  10
 -15   2   4 789.880 85.0660  10
  15   2   5 3756.20 184.805   5
  15  -2   5 3727.78 210.008   5
 -15  -2   5 3806.93 210.429  10
 -15   2   5 4027.97 197.598  10
 -15  -2   6 121.315 60.6804  10
 -15   2   6-9.22920 45.6462  10
  15   2   6 32.3515 26.6482   5
  15  -2   6 47.2030 44.4253   5
  15   2   7 2959.59 179.065   5
 -15   2   7 3144.17 190.628  10
  15   3  -6 441.672 86.5436   9
 -15   3  -6 520.998 85.2746   4
  15   3  -5 7368.70 300.415   9
 -15   3  -5 6601.92 256.839   9
 -15   3  -5 7111.97 314.529   4
  15  -3  -5 6918.32 295.108   5
  15   3  -4 436.974 76.5473   9
 -15   3  -4 449.101 71.0075   9
  15  -3  -4 361.927 66.0196   5
  15   3  -3 9881.51 336.231   9
 -15   3  -3 9417.43 319.989   9
  15  -3  -3 8601.97 328.826   5
 -15  -3  -3 9743.01 345.452  10
 -15  -3  -2 167.670 49.3224  10
  15   3  -2 312.259 66.0704   9
 -15   3  -2 145.196 45.3651   9
  15  -3  -2 199.920 52.8076   5
  15   3  -1 14990.6 424.835   9
 -15   3  -1 15353.1 443.942   9
  15  -3  -1 14876.8 450.999   5
 -15  -3  -1 15340.1 453.363  10
 -15  -3   0 53.8147 44.8677  10
  15   3   0 77.4450 38.2235   9
 -15   3   0 84.2433 48.9953   9
  15  -3   0 43.8582 32.3037   5
  15   3   1 13796.3 399.375   9
 -15   3   1 14303.1 445.330   9
  15  -3   1 15177.2 450.428   5
 -15  -3   2 318.126 70.5408  10
 -15   3   2 179.715 58.5950   9
  15  -3   2 255.493 54.3545   5
  15  -3   3 9056.54 340.654   5
 -15   3   3 9520.31 357.306   9
 -15  -3   3 9342.02 337.299  10
 -15  -3   4 389.723 77.7901  10
 -15   3   4 538.876 87.3463   9
  15  -3   4 458.083 81.1323   5
  15  -3   5 6601.52 304.925   5
 -15  -3   5 6328.81 287.801  10
 -15   3   5 6788.09 263.599  10
 -15  -3   6 358.305 76.3969  10
 -15   3   6 350.944 67.2990  10
  15  -3   6 324.071 69.5508   5
  15   4  -5 11417.3 392.992   9
 -15   4  -5 10337.0 352.294   9
 -15   4  -5 11269.7 430.170   4
  15  -4  -5 11372.4 406.565   5
  15   4  -4 760.690 97.5287   9
 -15   4  -4 592.337 79.4763   9
  15  -4  -4 600.789 89.1703   5
  15   4  -3 12920.1 402.566   9
 -15   4  -3 13216.8 404.032   9
  15  -4  -3 12331.6 416.562   5
 -15  -4  -3 12669.2 420.285  10
  15   4  -2 1583.11 124.866   9
 -15   4  -2 1567.45 126.934   9
  15   4  -2 1419.45 116.254   3
  15  -4  -2 1347.31 125.093   5
 -15  -4  -2 1491.40 134.452  10
  15   4  -1 17642.7 470.650   9
 -15   4  -1 17960.7 491.362   9
  15  -4  -1 15836.3 489.657   5
 -15  -4  -1 16322.8 491.664  10
 -15  -4   0 88.8978 48.9496  10
  15   4   0 19.7878 37.1979   9
 -15   4   0 82.8467 41.0771   9
  15  -4   0 64.2532 41.0503   5
 -15   4   1 18292.0 519.552   9
  15  -4   1 18241.2 528.159   5
 -15  -4   1 18944.6 531.423  10
 -15   4   2 1382.70 130.424   9
  15  -4   2 1551.74 134.879   5
 -15  -4   2 1547.35 135.242  10
 -15   4   3 11712.0 408.830   9
  15  -4   3 12295.9 422.625   5
 -15  -4   3 12706.4 418.916  10
 -15  -4   4 600.406 86.9734  10
  15  -4   4 677.780 95.7035   5
  15  -4   5 10910.2 416.782   5
 -15  -4   5 10605.7 393.572  10
 -15  -4   6 459.932 88.3949  10
  15   5  -4 123.190 54.2265   3
  15   5  -4 76.6984 47.6150   9
 -15   5  -4 117.286 53.3474   9
  15  -5  -4 34.8254 42.3535   5
  15   5  -3 241.475 61.3469   3
  15   5  -3 324.031 69.3049   9
 -15   5  -3 203.988 54.9310   9
  15  -5  -3 248.114 61.1746   5
 -15  -5  -2 372.413 77.3867  10
  15   5  -2 273.586 56.0434   3
  15   5  -2 346.281 66.9482   9
 -15   5  -2 352.838 72.9722   9
  15  -5  -2 327.496 70.2043   5
 -15  -5  -1-21.0474 53.8637  10
  15   5  -1 81.2139 45.8295   9
 -15   5  -1 95.0738 55.3456   9
  15  -5  -1 55.3771 32.7895   5
 -15  -5   0 263.626 72.9448  10
 -15   5   0 227.808 56.6335   9
  15  -5   0 344.907 73.8637   5
 -15  -5   1 37.8261 45.6204  10
 -15   5   1 18.0593 42.0254   9
  15  -5   1 137.344 48.4975   5
 -15  -5   2 362.158 76.3204  10
 -15   5   2 336.738 66.2626   9
  15  -5   2 381.806 79.0340   5
 -15  -5   3 267.131 68.8571  10
 -15   5   3 228.160 55.9718   9
  15  -5   3 366.118 78.8627   5
 -15  -5   4 205.827 69.7535  10
  15  -5   4 60.2479 32.9060   5
  15  -5   5 186.361 53.4851   5
  15   6  -3 12167.7 413.339   3
  15   6  -2 426.564 72.6309   9
 -15   6  -2 437.712 77.7705   9
 -15  -6  -2 409.105 78.4231  10
 -15   6  -2 429.114 69.6563   3
  15  -6  -2 549.877 86.0723   5
 -15   6  -1 12180.9 419.061   3
 -15   6  -1 12250.3 409.444   9
  15  -6  -1 11691.1 420.350   5
 -15  -6  -1 11694.7 417.207  10
 -15  -6   0-4.47788 49.6061  10
 -15   6   0 103.955 49.6684   9
  15  -6   0 73.9078 37.4468   5
 -15   6   1 12236.3 410.971   9
  15  -6   1 11845.9 424.708   5
 -15  -6   1 11013.7 406.692  10
 -15   6   2 548.486 91.2931   9
  15  -6   2 563.962 88.0789   5
  16   0  -5 11505.8 364.857   5
  16   0  -4 8954.24 308.548   5
 -16   0  -3 10687.0 333.558   9
  16   0  -3 10206.0 331.421   5
 -16   0  -3 10682.9 338.729  10
 -16   0  -2 15094.0 416.304   9
 -16   0  -2 14004.0 404.265  10
  16   0  -1 12567.2 376.012   5
 -16   0  -1 13116.4 384.977  10
  16   0   0 12504.9 370.333   5
 -16   0   0 12616.3 373.129  10
  16   0   1 12554.4 370.446   5
 -16   0   1 12415.5 369.144  10
  16   0   2 13220.7 390.274   5
 -16   0   2 12872.8 388.934  10
  16   0   3 10899.9 358.039   5
 -16   0   3 11270.5 361.145  10
  16   0   4 8082.41 301.539   5
 -16   0   4 8187.39 305.104  10
  16   0   5 10520.6 365.682   5
 -16   0   5 11515.3 380.545  10
  16   0   6 8466.27 329.367   5
 -16   0   6 9071.80 343.377  10
  16   1  -7 745.273 114.328   9
  16   1  -6 658.580 103.668   9
  16   1  -5 1193.72 127.114   9
  16  -1  -5 1182.76 112.982   5
  16   1  -4 966.850 115.679   9
 -16   1  -4 1026.87 96.8060   4
  16  -1  -4 906.033 97.3758   5
  16   1  -3 3240.74 193.494   9
 -16   1  -3 3215.06 172.289   9
  16  -1  -3 3076.12 175.366   5
 -16  -1  -3 3135.69 178.572  10
 -16   1  -2 948.070 98.9659   9
  16  -1  -2 893.978 99.9220   5
 -16  -1  -2 898.040 104.673  10
 -16   1  -1 1787.74 138.029   9
  16   1  -1 1753.31 117.240   5
  16  -1  -1 1842.05 135.238   5
 -16  -1  -1 1892.08 138.365  10
 -16   1  -1 1837.92 122.037  10
  16   1   0 1311.49 102.219   5
  16  -1   0 1563.33 122.237   5
 -16  -1   0 1275.30 113.315  10
 -16   1   0 1378.27 108.729  10
  16   1   1 1274.58 100.052   5
  16  -1   1 1416.87 115.721   5
 -16  -1   1 1311.19 112.757  10
 -16   1   1 1455.73 110.221  10
  16   1   2 970.651 93.8533   5
  16  -1   2 902.071 96.9903   5
 -16  -1   2 761.604 89.0466  10
 -16   1   2 968.698 93.9509  10
  16   1   3 3252.16 172.206   5
  16  -1   3 3164.86 185.561   5
 -16  -1   3 3232.79 183.674  10
 -16   1   3 3383.18 176.961  10
  16   1   4 995.093 97.7253   5
  16  -1   4 808.226 96.3037   5
 -16  -1   4 776.992 95.5704  10
 -16   1   4 946.173 99.0186  10
  16   1   5 1025.39 101.286   5
  16  -1   5 928.509 104.210   5
 -16  -1   5 1045.71 113.782  10
 -16   1   5 1082.45 108.422  10
 -16  -1   6 562.655 94.2411  10
 -16   1   6 542.330 84.9986  10
  16   1   6 559.206 81.8882   5
  16  -1   6 522.861 83.5307   5
  16   2  -6 5336.54 268.753   9
 -16   2  -6 5270.16 268.627   4
  16   2  -5 5830.20 273.553   9
 -16   2  -5 5687.15 267.027   4
  16  -2  -5 5583.69 260.915   5
  16   2  -4 6245.65 276.236   9
 -16   2  -4 6226.95 249.852   9
  16  -2  -4 5597.31 260.384   5
  16   2  -3 8314.80 316.221   9
 -16   2  -3 7849.26 289.119   9
  16  -2  -3 7293.34 297.022   5
 -16  -2  -3 8051.95 309.588  10
  16   2  -2 6946.48 283.128   9
 -16   2  -2 7001.44 276.340   9
  16  -2  -2 6573.06 278.271   5
 -16  -2  -2 6764.35 279.794  10
  16   2  -1 12751.7 399.434   9
 -16   2  -1 12589.6 402.549   9
  16  -2  -1 12768.1 403.902   5
 -16  -2  -1 13434.2 413.175  10
 -16   2   0 13667.2 423.695   9
  16  -2   0 12792.5 405.617   5
 -16  -2   0 13429.5 413.412  10
 -16   2   1 13954.4 431.095   9
 -16  -2   1 13673.0 412.093  10
  16  -2   2 6395.03 268.072   5
 -16  -2   2 6925.55 273.163  10
 -16   2   2 6473.56 243.094  10
  16   2   3 8108.30 277.561   5
  16  -2   3 7424.39 301.910   5
 -16  -2   3 7673.02 300.812  10
 -16   2   3 7754.82 276.355  10
  16   2   4 5785.05 235.390   5
  16  -2   4 5489.26 264.308   5
 -16  -2   4 5252.10 253.925  10
 -16   2   4 5691.14 238.998  10
  16   2   5 5922.30 247.920   5
  16  -2   5 5678.53 275.907   5
 -16  -2   5 5838.82 274.248  10
 -16   2   5 6180.32 258.251  10
  16   2   6 4662.34 223.896   5
  16  -2   6 4971.28 261.674   5
 -16  -2   6 4757.92 253.614  10
 -16   2   6 5119.42 243.725  10
 -16   3  -6 3946.44 243.141   4
  16   3  -5 6447.08 289.491   9
 -16   3  -5 5788.34 246.793   9
 -16   3  -5 6129.84 295.565   4
  16  -3  -5 6164.07 287.909   5
  16   3  -4 4167.56 223.443   9
 -16   3  -4 4090.09 205.923   9
  16  -3  -4 3883.78 220.885   5
  16   3  -3 4777.39 235.240   9
 -16   3  -3 4801.26 226.675   9
  16  -3  -3 4375.01 232.154   5
 -16  -3  -3 5004.15 248.379  10
  16   3  -2 5652.60 250.345   9
 -16   3  -2 5745.34 249.710   9
  16  -3  -2 5070.49 249.552   5
 -16  -3  -2 5603.99 259.690  10
  16   3  -1 9266.75 327.413   9
 -16   3  -1 10243.4 352.323   9
  16  -3  -1 9056.27 342.776   5
 -16  -3  -1 9445.34 348.317  10
  16   3   0 8221.36 300.920   9
 -16   3   0 8281.90 323.762   9
  16  -3   0 8900.08 332.069   5
 -16  -3   0 8667.17 328.382  10
 -16   3   1 8894.53 343.937   9
  16  -3   1 8982.46 337.078   5
 -16   3   2 5751.47 272.794   9
  16  -3   2 5814.40 263.187   5
 -16  -3   2 6141.84 267.468  10
 -16   3   3 4937.07 253.582   9
  16  -3   3 4500.96 233.961   5
 -16  -3   3 4789.38 235.915  10
  16  -3   4 3974.48 230.688   5
 -16   3   4 4645.64 247.612   9
 -16  -3   4 4031.19 222.924  10
  16  -3   5 5752.22 290.620   5
 -16  -3   5 5542.42 275.931  10
 -16   3   5 6148.44 256.832  10
  16  -3   6 4358.08 253.644   5
 -16  -3   6 3831.03 234.152  10
 -16   3   6 4000.01 213.676  10
  16   4  -5 1411.37 135.932   9
 -16   4  -5 1365.16 123.764   9
 -16   4  -5 1387.07 146.766   4
  16  -4  -5 1588.21 146.830   5
  16   4  -4 1319.42 127.897   9
 -16   4  -4 1333.67 120.055   9
  16  -4  -4 1311.23 132.674   5
  16   4  -3 1692.83 143.361   9
 -16   4  -3 1654.11 138.615   9
  16  -4  -3 1672.57 146.354   5
 -16  -4  -3 1470.04 137.853  10
  16   4  -2 1661.47 134.164   9
 -16   4  -2 1519.24 132.393   9
  16  -4  -2 1408.73 129.158   5
 -16  -4  -2 1655.22 142.184  10
  16   4  -1 1353.59 119.789   9
 -16   4  -1 1162.61 115.834   9
  16  -4  -1 1191.67 121.274   5
 -16  -4  -1 1368.18 129.979  10
  16   4   0 2654.11 161.112   9
 -16   4   0 2733.59 172.765   9
  16  -4   0 2498.22 175.198   5
 -16  -4   0 2907.66 188.866  10
 -16   4   1 1588.05 141.061   9
  16  -4   1 1536.62 135.377   5
 -16  -4   1 1500.64 134.119  10
 -16   4   2 2021.70 161.074   9
  16  -4   2 1824.98 151.149   5
 -16  -4   2 1913.35 151.358  10
 -16   4   3 1360.13 133.159   9
  16  -4   3 1451.18 136.142   5
 -16  -4   3 1501.12 137.375  10
  16  -4   4 1633.59 149.155   5
 -16  -4   4 1466.62 134.684  10
  16  -4   5 1284.13 137.794   5
 -16  -4   5 1182.39 123.381  10
  16   5  -3 9481.90 350.404   9
 -16   5  -3 9811.32 358.366   9
  16   5  -3 9331.36 355.526   3
  16  -5  -3 9793.72 381.072   5
  16   5  -2 6673.24 279.738   9
 -16   5  -2 6769.03 293.565   9
  16  -5  -2 6195.74 295.338   5
 -16  -5  -2 6661.73 303.830  10
  16   5  -1 12197.8 389.830   9
 -16   5  -1 12751.9 421.177   9
  16  -5  -1 11170.1 412.865   5
 -16  -5  -1 11266.4 411.188  10
 -16   5   0 8479.23 335.720   9
  16  -5   0 7927.66 336.398   5
 -16  -5   0 8011.67 333.668  10
 -16   5   1 12208.7 423.541   9
  16  -5   1 12733.7 441.003   5
 -16  -5   1 12985.4 438.645  10
 -16   5   2 6191.90 288.575   9
  16  -5   2 6691.05 305.710   5
 -16  -5   2 6680.28 298.336  10
 -16   5   3 9053.59 360.804   9
  16  -5   3 9527.97 380.817   5
 -16  -5   3 9566.78 369.835  10
  16  -5   4 6224.79 305.875   5
 -16  -5   4 6021.89 293.639  10
  16   6  -2 94.2067 51.3138   9
 -16   6  -1 171.771 56.0418   3
 -16  -6  -1 232.389 67.3329  10
  16  -6  -1 83.4237 42.9722   5
 -16  -6   0 423.918 82.6499  10
 -16   6   0 609.108 95.9566   9
  16  -6   0 598.295 92.8146   5
 -16  -6   1 191.538 68.8344  10
 -16   6   1 256.870 74.4180   9
  16  -6   1 306.897 73.1231   5
 -16  -6   2 163.108 61.9910  10
 -16   6   2 175.118 65.6307   9
  16  -6   2 137.778 42.7080   5
  17   0  -4 50.0405 33.5626   5
 -17   0  -3 31.3804 38.3131  10
 -17   0  -3 103.890 43.3288   9
  17   0  -3 48.5487 36.0618   5
 -17   0  -2 47.8058 45.5730  10
 -17   0  -2 132.881 52.2105   9
  17   0  -2 2.11994 33.9841   5
  17   0  -1 422.192 68.9585   5
 -17   0  -1 347.703 67.5182  10
 -17   0   0 197.751 54.2373  10
  17   0   0 167.170 43.4642   5
 -17   0   1 202.579 55.4573  10
  17   0   1 293.329 60.8089   5
 -17   0   2 2.08931 38.0783  10
  17   0   2 62.5237 42.1498   5
 -17   0   3 1.29652 39.8783  10
  17   0   3 23.9917 39.9133   5
 -17   0   4-3.08988 42.6316  10
  17   0   4-4.51837 39.7355   5
 -17   0   5 25.3929 45.7128  10
  17   0   5 12.5090 35.3328   5
 -17   0   6 79.7298 60.3962  10
  17   0   6 130.922 48.8913   5
  17   1  -6 12390.5 450.349   9
  17   1  -5 37.6090 55.5803   9
  17  -1  -5 120.164 47.2303   5
  17   1  -4 15013.1 476.908   9
  17  -1  -4 13987.2 440.987   5
 -17  -1  -3 467.383 76.9983  10
 -17   1  -3 487.227 73.3969   9
  17  -1  -3 417.389 71.5661   5
 -17   1  -2 27395.6 652.142   9
 -17  -1  -2 27095.5 654.840  10
 -17   1  -1 335.951 56.9807  10
 -17   1  -1 484.598 76.7324   9
  17  -1  -1 375.603 63.6916   5
  17   1   0 28490.8 641.750   5
  17  -1   0 27513.1 668.163   5
 -17  -1   0 29155.2 677.494  10
 -17   1   0 28385.7 643.744  10
  17   1   1 444.362 60.2390   5
  17  -1   1 489.918 72.9061   5
 -17  -1   1 488.991 74.4469  10
 -17   1   1 490.157 66.4002  10
  17   1   2 25709.2 611.559   5
  17  -1   2 25405.3 629.617   5
 -17  -1   2 26070.2 629.649  10
 -17   1   2 24840.1 605.858  10
 -17  -1   3 326.175 67.0175  10
 -17   1   3 307.354 60.5306  10
  17   1   3 296.766 58.6028   5
  17  -1   3 358.649 70.3575   5
  17   1   4 13994.4 425.860   5
  17  -1   4 14159.0 450.917   5
 -17  -1   4 14020.5 447.102  10
 -17   1   4 14849.5 438.254  10
 -17  -1   5 11.5755 39.6059  10
 -17   1   5 149.020 55.9667  10
  17   1   5 103.220 46.1554   5
  17  -1   5 18.9591 42.1021   5
  17   1   6 11312.0 397.442   5
  17  -1   6 12204.0 430.473   5
 -17  -1   6 11733.7 424.531  10
 -17   1   6 12950.3 426.036  10
  17   2  -6 2805.10 202.059   9
 -17   2  -6 2549.13 187.767   4
  17   2  -5 80.5575 55.2064   9
 -17   2  -5-20.6771 28.0348   4
  17  -2  -5 71.9446 44.9539   5
  17   2  -4 6116.10 284.621   9
 -17   2  -4 6062.21 254.335   9
  17  -2  -4 5458.60 264.714   5
 -17  -2  -3 302.646 72.3783  10
  17   2  -3 267.175 71.0169   9
 -17   2  -3 271.652 61.4683   9
  17  -2  -3 270.425 62.7698   5
  17   2  -2 6649.78 288.474   9
 -17   2  -2 6683.03 277.959   9
  17  -2  -2 6475.88 280.880   5
 -17  -2  -2 6704.64 286.031  10
 -17   2  -1 961.462 107.366   9
  17  -2  -1 948.808 105.344   5
 -17  -2  -1 987.129 108.503  10
 -17   2   0 12010.1 402.194   9
  17  -2   0 11368.8 381.774   5
 -17  -2   0 12172.9 392.810  10
 -17   2   1 1248.01 123.151   9
  17  -2   1 943.547 103.217   5
 -17  -2   1 1184.99 112.973  10
  17  -2   2 6498.78 274.221   5
 -17  -2   2 7006.54 279.204  10
 -17   2   2 6349.86 249.254  10
 -17  -2   3 251.991 64.7398  10
 -17   2   3 296.902 59.9826  10
  17  -2   3 290.298 66.4661   5
  17   2   4 5402.11 234.857   5
  17  -2   4 4874.89 254.063   5
 -17  -2   4 5139.84 255.108  10
 -17   2   4 5491.55 240.804  10
 -17  -2   5 54.0232 61.5457  10
 -17   2   5 54.1066 50.5015  10
  17   2   5 136.445 46.7808   5
  17  -2   5 17.8408 33.2014   5
  17   2   6 2645.03 173.015   5
 -17   2   6 2858.89 185.417  10
  17   3  -5 17.3246 55.4830   9
 -17   3  -5 14.9889 36.3527   9
 -17   3  -5 81.3517 45.8804   4
  17  -3  -5 35.3180 35.1660   5
  17   3  -4 9595.38 363.696   9
 -17   3  -4 9064.56 333.519   9
  17  -3  -4 8619.57 355.227   5
 -17  -3  -3 246.572 71.9607  10
  17   3  -3 126.774 51.7471   9
 -17   3  -3 157.554 51.0326   9
  17  -3  -3 187.528 60.9179   5
  17   3  -2 7003.68 292.710   9
 -17   3  -2 6641.64 284.024   9
  17  -3  -2 6644.59 293.968   5
 -17  -3  -2 6687.90 295.825  10
 -17  -3  -1 226.109 67.8054  10
  17   3  -1 311.068 72.3648   9
 -17   3  -1 259.637 68.1124   9
  17  -3  -1 228.388 63.8028   5
  17   3   0 10720.1 368.464   9
 -17   3   0 11141.8 397.194   9
  17  -3   0 11662.4 396.416   5
 -17  -3   1 220.591 59.9909  10
 -17   3   1 149.255 57.3618   9
  17  -3   1 132.017 46.5156   5
 -17   3   2 7807.76 325.983   9
  17  -3   2 6906.65 297.546   5
 -17  -3   2 7507.94 304.836  10
 -17  -3   3 211.454 61.7706  10
 -17   3   3 211.804 64.9942   9
  17  -3   3 226.258 56.2077   5
  17  -3   4 8663.66 354.103   5
 -17   3   4 9095.41 365.951   9
 -17  -3   4 8320.84 336.199  10
 -17  -3   5 71.4067 60.1931  10
  17  -3   5 112.450 50.1699   5
 -17   4  -5 121.581 54.6391   9
  17   4  -4 10150.8 380.380   9
 -17   4  -4 9729.61 358.805   9
  17  -4  -4 10375.0 400.855   5
 -17  -4  -3 399.207 84.3865  10
  17   4  -3 423.130 80.7168   9
 -17   4  -3 396.525 79.3864   9
  17  -4  -3 400.355 78.4789   5
  17   4  -2 15678.0 474.776   9
 -17   4  -2 15718.3 482.096   9
  17  -4  -2 14602.7 485.307   5
 -17  -4  -2 15224.7 490.151  10
 -17  -4  -1 255.669 70.9646  10
  17   4  -1 236.760 61.8951   9
 -17   4  -1 158.635 51.9773   9
  17  -4  -1 247.850 63.4946   5
  17   4   0 14167.4 433.364   9
 -17   4   0 14427.6 470.280   9
  17  -4   0 14489.9 469.957   5
 -17  -4   0 15469.4 480.210  10
 -17  -4   1 234.863 59.3792  10
 -17   4   1 261.520 68.5086   9
  17  -4   1 212.332 56.2489   5
  17  -4   2 16400.6 504.897   5
 -17  -4   2 16609.5 498.329  10
 -17  -4   3 453.456 82.7270  10
 -17   4   3 361.467 81.3145   9
  17  -4   3 396.497 75.5857   5
  17  -4   4 10179.8 392.340   5
 -17  -4   4 9490.59 368.849  10
  17   5  -3 25.2815 47.7536   9
 -17  -5  -2 395.409 89.9575  10
  17   5  -2 391.979 83.8515   9
 -17   5  -2 393.125 80.5364   9
  17  -5  -2 355.184 75.1800   5
 -17  -5  -1-41.1589 64.6423  10
  17   5  -1 5.74500 42.1321   9
 -17   5  -1 59.5822 53.8965   9
  17  -5  -1-74.3850 40.5367   5
 -17  -5   0 165.076 67.5104  10
 -17   5   0 26.3206 52.9929   9
  17  -5   0 83.3310 50.8790   5
 -17  -5   1 77.2647 59.2628  10
 -17   5   1-49.9668 64.2573   9
  17  -5   1 40.9836 48.7364   5
 -17  -5   2 239.196 71.6044  10
 -17   5   2 279.996 72.3317   9
  17  -5   2 164.315 49.3114   5
 -17  -5   3 75.0786 61.6183  10
 -17   5   3 70.1491 53.4602   9
  17  -5   3 228.553 57.6355   5
 -17   6  -1 112.898 47.1238   3
  18   0  -4 3159.26 182.287   5
  18   0  -3 16481.8 470.413   5
 -18   0  -3 16468.5 471.608  10
 -18   0  -2 8740.76 313.060   9
  18   0  -2 7773.55 297.459   5
 -18   0  -2 8235.53 305.378  10
  18   0  -1 20932.8 544.877   5
 -18   0  -1 21926.7 555.591  10
  18   0   0 9164.66 316.706   5
 -18   0   0 9521.55 323.065  10
  18   0   1 22306.3 564.366   5
 -18   0   1 22845.1 568.745  10
  18   0   2 7233.46 281.617   5
 -18   0   2 7404.76 283.662  10
  18   0   3 15088.9 458.787   5
 -18   0   3 15633.4 463.547  10
  18   0   4 2859.42 183.295   5
 -18   0   4 2906.27 186.328  10
  18   0   5 13693.0 453.070   5
 -18   0   5 14496.1 467.245  10
  18   0   6 2760.47 191.122   5
  18  -1  -5 1144.82 113.813   5
  18  -1  -4 351.947 66.7315   5
 -18   1  -3 1411.84 125.745   9
  18  -1  -3 1239.71 122.471   5
 -18  -1  -3 1397.83 128.957  10
 -18  -1  -2 353.013 72.0153  10
 -18   1  -2 305.124 64.0374   9
  18  -1  -2 334.065 67.7719   5
 -18  -1  -1 219.501 66.2152  10
 -18   1  -1 394.886 75.2938   9
  18  -1  -1 225.696 67.1765   5
  18  -1   0 640.242 83.4012   5
 -18  -1   0 677.349 86.5115  10
 -18   1   0 746.466 84.8724  10
 -18  -1   1 211.850 61.6741  10
 -18   1   1 331.173 66.3444  10
  18   1   1 340.257 64.1166   5
  18  -1   1 217.860 59.6323   5
 -18  -1   2 307.723 59.5166  10
 -18   1   2 271.139 60.0730  10
  18   1   2 322.221 59.3662   5
  18  -1   2 250.521 57.4702   5
  18   1   3 1257.32 115.363   5
  18  -1   3 1264.01 123.113   5
 -18  -1   3 1156.92 117.958  10
 -18   1   3 1203.49 117.733  10
 -18  -1   4 347.249 75.8144  10
 -18   1   4 258.249 62.3007  10
  18   1   4 186.253 50.2999   5
  18  -1   4 312.538 72.8070   5
  18   1   5 803.054 99.8142   5
  18  -1   5 744.432 100.975   5
 -18  -1   5 946.029 115.163  10
 -18   1   5 995.587 115.070  10
 -18   1   6 322.942 78.4023  10
  18   1   6 304.373 68.3643   5
  18   2  -5 5618.98 289.395   9
 -18   2  -5 5355.62 267.284   4
  18  -2  -5 5215.23 271.105   5
  18   2  -4 3084.48 209.161   9
 -18   2  -4 2971.92 180.697   9
  18  -2  -4 2663.32 186.893   5
  18   2  -3 8465.93 346.689   9
 -18   2  -3 8295.42 319.398   9
  18  -2  -3 7756.56 324.120   5
 -18  -2  -3 8352.60 335.801  10
  18   2  -2 3621.39 215.281   9
 -18   2  -2 3625.98 207.187   9
  18  -2  -2 3510.01 206.568   5
 -18  -2  -2 3756.45 211.916  10
 -18   2  -1 10925.1 386.239   9
  18  -2  -1 10650.4 376.080   5
 -18  -2  -1 11330.0 389.047  10
 -18   2   0 4058.26 224.682   9
  18  -2   0 3719.06 204.727   5
 -18  -2   0 3795.91 205.923  10
 -18   2   1 10724.8 383.096   9
 -18  -2   1 10118.2 353.007  10
  18  -2   2 3770.58 208.050   5
 -18  -2   2 4180.60 216.751  10
  18  -2   3 7783.46 318.392   5
 -18  -2   3 8335.40 321.597  10
 -18   2   3 7566.24 294.746  10
  18  -2   4 2327.11 175.814   5
 -18  -2   4 2593.91 179.230  10
 -18   2   4 2619.12 169.399  10
  18  -2   5 5078.95 274.547   5
 -18  -2   5 4792.33 262.018  10
 -18   2   5 5262.08 254.500  10
  18   2   6 1851.30 147.499   5
 -18   3  -5 6794.56 320.774   4
  18   3  -4 2656.82 192.685   9
 -18   3  -4 2501.46 173.488   9
  18  -3  -4 2494.41 187.073   5
  18   3  -3 8098.42 338.543   9
 -18   3  -3 8342.54 329.124   9
  18  -3  -3 7073.04 320.316   5
 -18  -3  -3 7848.99 337.168  10
  18   3  -2 3071.85 199.171   9
 -18   3  -2 3245.23 198.747   9
  18  -3  -2 3100.77 200.521   5
 -18  -3  -2 3096.31 201.046  10
  18   3  -1 10291.1 375.361   9
 -18   3  -1 10480.1 386.423   9
  18  -3  -1 10408.0 382.562   5
 -18  -3  -1 10852.6 391.355  10
 -18   3   0 2498.01 180.386   9
  18  -3   0 2868.97 182.021   5
 -18  -3   0 3157.47 193.030  10
 -18   3   1 10638.8 396.784   9
  18  -3   1 10565.5 379.403   5
 -18  -3   1 10784.2 381.502  10
 -18   3   2 3733.18 226.361   9
  18  -3   2 3678.35 213.267   5
 -18  -3   2 3827.34 214.922  10
 -18   3   3 8283.99 350.175   9
  18  -3   3 7616.82 323.218   5
 -18  -3   3 7577.30 315.977  10
  18  -3   4 2358.80 179.385   5
 -18   3   4 2489.31 188.619   9
 -18  -3   4 2181.97 167.773  10
 -18   4  -4 640.836 97.4693   9
  18   4  -3 2075.85 168.572   9
 -18   4  -3 2201.11 168.759   9
  18  -4  -3 1866.53 163.897   5
 -18  -4  -3 1913.72 167.398  10
 -18  -4  -2 555.098 94.2045  10
  18   4  -2 534.118 92.5004   9
 -18   4  -2 614.925 96.3767   9
  18  -4  -2 535.254 89.8964   5
  18   4  -1 2884.24 187.931   9
 -18   4  -1 2842.62 195.264   9
  18  -4  -1 2923.18 197.268   5
 -18  -4  -1 2794.21 195.994  10
 -18   4   0 684.783 100.111   9
  18  -4   0 818.961 106.007   5
 -18  -4   0 839.599 111.827  10
 -18   4   1 2740.70 196.885   9
  18  -4   1 2793.99 189.322   5
 -18  -4   1 2922.58 193.602  10
 -18  -4   2 540.107 87.0012  10
 -18   4   2 503.843 94.1579   9
  18  -4   2 530.152 83.7755   5
 -18   4   3 2045.44 173.138   9
  18  -4   3 2321.46 175.690   5
 -18  -4   3 2268.83 170.650  10
 -18   4   4 480.797 94.5896   9
 -18  -4   4 761.126 103.183  10
  18   5  -2 4270.15 238.591   9
 -18   5  -1 10597.5 408.563   9
  18  -5  -1 10619.5 412.229   5
 -18  -5  -1 10500.5 409.223  10
 -18   5   0 4187.86 248.350   9
  18  -5   0 4325.75 249.601   5
 -18  -5   0 4431.48 251.232  10
 -18   5   1 9882.69 400.950   9
  18  -5   1 10949.8 412.287   5
 -18  -5   1 10996.6 409.823  10
 -18   5   2 4289.19 254.838   9
  18  -5   2 5107.68 268.984   5
 -18  -5   2 4992.15 263.374  10
 -18   5   3 8695.04 374.086   9
  19   0  -3 24.2996 27.0923   5
 -19   0  -2 137.628 67.5641  10
 -19   0  -2 23.7294 40.7135   9
  19   0  -2 37.8950 53.4815   5
 -19   0  -1 118.120 50.8742  10
  19   0  -1 138.140 51.7153   5
 -19   0   0 320.233 65.3163  10
  19   0   0 240.914 53.8743   5
 -19   0   1 156.476 54.8430  10
  19   0   1 191.064 52.1962   5
 -19   0   2 87.3156 52.9630  10
  19   0   2 15.4852 44.5542   5
 -19   0   3-19.3814 44.5709  10
  19   0   3 130.308 52.5770   5
 -19   0   4-30.5146 48.6971  10
  19   0   4 13.4863 34.8629   5
 -19   0   5-2.13777 40.9688  10
  19   0   5-5.11920 48.3666   5
  19  -1  -5 10609.6 396.123   5
  19  -1  -4 1526.28 137.752   5
 -19   1  -3 14461.4 441.003   9
 -19  -1  -3 14004.1 450.791  10
 -19   1  -2 3892.20 212.144   9
  19  -1  -2 3390.30 200.131   5
 -19  -1  -2 3709.19 210.371  10
  19  -1  -1 21113.6 574.748   5
 -19  -1  -1 21641.5 583.129  10
  19  -1   0 2610.06 166.589   5
 -19  -1   0 2722.63 170.933  10
 -19   1   0 2794.67 159.522  10
  19   1   1 21296.3 532.768   5
  19  -1   1 20223.0 551.191   5
 -19  -1   1 21250.2 557.458  10
 -19   1   1 20615.7 529.509  10
  19   1   2 3361.84 181.698   5
  19  -1   2 2938.77 180.539   5
 -19  -1   2 3332.90 188.539  10
 -19   1   2 3147.18 178.742  10
  19   1   3 12999.7 414.879   5
  19  -1   3 12333.0 419.686   5
 -19  -1   3 13121.4 423.620  10
 -19   1   3 12595.2 412.092  10
  19   1   4 1637.06 139.715   5
  19  -1   4 1791.76 154.297   5
 -19  -1   4 1903.02 157.079  10
 -19   1   4 1740.01 144.545  10
  19   1   5 10395.9 388.016   5
  19  -1   5 10696.2 414.265   5
 -19  -1   5 11218.0 417.761  10
 -19   1   5 11355.3 407.674  10
  19  -2  -5 3333.59 219.240   5
  19   2  -4 930.004 124.747   9
 -19   2  -4 934.576 107.135   9
  19  -2  -4 835.045 108.928   5
  19   2  -3 3345.20 220.178   9
 -19   2  -3 3305.99 201.600   9
  19  -2  -3 3073.86 200.569   5
 -19  -2  -3 3495.38 215.573  10
 -19   2  -2 1132.98 123.626   9
  19  -2  -2 873.510 106.398   5
 -19  -2  -2 922.899 109.447  10
 -19   2  -1 5022.44 256.001   9
  19  -2  -1 4596.11 239.129   5
 -19  -2  -1 5187.81 252.409  10
 -19   2   0 1442.20 135.229   9
  19  -2   0 1154.06 116.897   5
 -19  -2   0 1404.11 126.459  10
  19  -2   1 4712.15 238.094   5
 -19  -2   1 4894.07 239.146  10
  19  -2   2 771.418 96.6364   5
 -19  -2   2 1048.72 113.269  10
  19  -2   3 3308.28 202.785   5
 -19  -2   3 3250.86 196.153  10
  19  -2   4 956.142 115.545   5
 -19  -2   4 822.779 109.147  10
 -19   2   4 937.220 106.164  10
 -19   2   5 3290.93 206.070  10
  19   3  -4 1325.08 149.498   9
 -19   3  -4 1484.57 141.877   9
  19  -3  -4 1235.34 135.110   5
  19   3  -3 6105.35 300.113   9
 -19   3  -3 5770.37 278.364   9
  19  -3  -3 5416.97 281.995   5
 -19  -3  -3 5823.39 293.678  10
 -19  -3  -2 415.339 80.6252  10
  19   3  -2 500.739 93.6554   9
 -19   3  -2 382.408 81.1064   9
  19  -3  -2 411.807 77.5713   5
  19   3  -1 6444.99 296.879   9
 -19   3  -1 6945.68 314.262   9
  19  -3  -1 6694.93 302.638   5
 -19  -3  -1 7249.92 316.222  10
 -19   3   0 1284.62 134.638   9
  19  -3   0 1330.98 129.273   5
 -19  -3   0 1289.20 128.531  10
 -19   3   1 6910.54 318.097   9
  19  -3   1 6182.32 284.260   5
 -19  -3   1 6490.11 290.976  10
 -19  -3   2 496.589 85.4119  10
 -19   3   2 452.004 86.3637   9
  19  -3   2 493.064 84.5961   5
 -19   3   3 6757.53 316.981   9
  19  -3   3 5983.02 286.955   5
 -19  -3   3 6107.20 284.422  10
 -19   3   4 1476.73 150.160   9
  19  -3   4 1249.95 130.497   5
 -19  -3   4 1386.48 133.436  10
  19   4  -3 8910.13 372.576   9
 -19   4  -3 9427.61 376.428   9
  19   4  -2 1890.08 163.337   9
 -19   4  -2 1924.17 164.239   9
  19  -4  -2 1872.68 160.753   5
 -19  -4  -2 2016.09 172.542  10
  19   4  -1 10983.7 407.103   9
 -19   4  -1 11215.1 424.284   9
  19  -4  -1 12102.4 436.101   5
 -19  -4  -1 11733.2 427.339  10
 -19   4   0 1588.99 151.575   9
  19  -4   0 1542.44 146.174   5
 -19  -4   0 1661.21 151.491  10
 -19   4   1 11002.8 428.221   9
  19  -4   1 11733.1 422.376   5
 -19  -4   1 12096.3 424.782  10
 -19   4   2 1831.24 168.870   9
  19  -4   2 1872.69 156.065   5
 -19  -4   2 1739.98 150.170  10
 -19   4   3 9036.31 388.287   9
 -19   4   4 1837.12 167.444   9
 -20   0  -2 24656.5 623.183   9
  20   0  -2 22494.1 601.677   5
 -20   0  -2 23178.8 608.487  10
  20   0  -1 1972.25 138.000   5
 -20   0  -1 1645.14 133.359  10
  20   0   0 15644.4 455.197   5
 -20   0   0 16006.0 458.567  10
  20   0   1 1450.78 123.196   5
 -20   0   1 1374.00 119.191  10
  20   0   2 19742.8 541.791   5
 -20   0   2 19985.7 540.087  10
 -20   0   3 304.672 64.8101  10
  20   0   3 369.305 70.4533   5
  20   0   4 10794.9 403.306   5
 -20   0   4 10939.0 401.811  10
  20   0   5 753.391 105.805   5
  20  -1  -5 46.1862 36.0708   5
  20  -1  -4 1358.58 134.765   5
 -20  -1  -3 280.740 76.4162  10
 -20   1  -3 149.065 60.1078   9
  20  -1  -3 176.483 57.7610   5
 -20   1  -2 1496.45 137.503   9
  20  -1  -2 1565.14 136.006   5
 -20  -1  -2 1539.02 139.389  10
 -20   1  -1 692.453 100.011   9
  20  -1  -1 569.284 86.5607   5
 -20  -1  -1 591.201 94.1795  10
  20  -1   0 1227.69 116.125   5
 -20  -1   0 1225.15 117.591  10
  20  -1   1 566.386 83.4826   5
 -20  -1   1 654.179 90.5552  10
 -20   1   1 738.891 91.2739  10
  20   1   2 1180.29 109.184   5
  20  -1   2 1139.91 113.019   5
 -20  -1   2 1167.34 117.522  10
 -20   1   2 1270.98 119.138  10
 -20  -1   3 22.5776 34.6068  10
 -20   1   3 121.208 58.3062  10
  20   1   3 137.493 53.5224   5
  20  -1   3 97.5965 40.8162   5
  20   1   4 1297.80 129.702   5
  20  -1   4 1482.33 141.755   5
 -20  -1   4 1342.08 134.067  10
 -20   1   4 1292.58 135.119  10
 -20   1   5 64.8813 50.9299  10
  20   1   5-89.4647 40.3436   5
  20  -2  -4 10484.1 409.186   5
 -20  -2  -3 307.819 82.4535  10
 -20   2  -3 209.002 63.0863   9
  20  -2  -3 430.129 84.7270   5
 -20   2  -2 11528.8 408.599   9
  20  -2  -2 10442.4 394.190   5
 -20  -2  -2 11223.9 407.271  10
 -20   2  -1 441.335 82.8978   9
 -20  -2  -1 712.467 99.2513  10
  20  -2  -1 496.068 82.4117   5
 -20   2   0 11682.1 418.346   9
  20  -2   0 10619.6 383.758   5
 -20  -2   0 11214.9 391.731  10
 -20  -2   1 496.317 85.4146  10
 -20   2   1 738.787 105.083   9
  20  -2   1 525.891 81.5035   5
  20  -2   2 9879.96 372.183   5
 -20  -2   2 10514.4 377.018  10
 -20  -2   3 356.468 69.3815  10
  20  -2   3 275.467 60.3214   5
  20  -2   4 10519.1 402.673   5
 -20  -2   4 10177.2 389.609  10
 -20   2   5 587.669 95.1521  10
 -20   3  -4 7303.10 325.460   9
  20   3  -3 975.853 134.286   9
 -20   3  -3 951.352 114.416   9
  20  -3  -3 912.401 116.544   5
 -20  -3  -3 945.254 122.901  10
  20   3  -2 8308.97 362.890   9
 -20   3  -2 8643.10 359.836   9
  20  -3  -2 8888.43 365.667   5
 -20  -3  -2 9084.85 371.513  10
 -20   3  -1 1300.31 141.741   9
  20  -3  -1 1078.55 122.805   5
 -20  -3  -1 1234.10 127.022  10
 -20   3   0 7788.26 344.965   9
  20  -3   0 7276.53 317.920   5
 -20  -3   0 7751.70 327.480  10
 -20   3   1 1031.20 132.168   9
  20  -3   1 1062.46 116.341   5
 -20  -3   1 1083.89 115.797  10
  20  -3   2 8148.95 343.160   5
 -20  -3   2 8661.19 346.571  10
 -20   3   3 1135.57 133.443   9
  20  -3   3 1046.32 119.014   5
 -20  -3   3 989.341 117.581  10
 -20   3   4 8060.61 359.804   9
  20   4  -2 1574.41 159.314   9
  20   4  -1 413.408 90.5682   9
  20  -4   0 3505.56 219.391   5
 -20  -4   0 3399.48 219.967  10
 -20   4   1 406.648 87.8862   9
 -21   0  -2-21.5132 40.9562   9
 -21   0  -1 249.921 66.1366  10
  21   0  -1 368.776 70.8021   5
 -21   0   0 76.2364 46.9399  10
  21   0   0 90.8586 38.0047   5
 -21   0   1 251.255 67.3693  10
  21   0   1 227.946 53.7376   5
 -21   0   2 114.384 52.6255  10
  21   0   2 70.9922 37.3383   5
 -21   0   3 0.00000 38.9174  10
  21   0   3 71.1752 51.6736   5
 -21   0   4 28.0662 45.2643  10
  21   0   4 106.856 54.1233   5
  21  -1  -4 6828.30 315.462   5
 -21   1  -3 5623.98 270.267   9
  21  -1  -3 5303.01 268.604   5
 -21  -1  -3 5804.05 282.868  10
 -21   1  -2 10989.6 393.445   9
  21  -1  -2 10241.6 381.486   5
 -21  -1  -2 11058.7 394.565  10
 -21   1  -1 6239.76 283.935   9
  21  -1  -1 5373.55 259.031   5
 -21  -1  -1 5494.09 262.629  10
  21  -1   0 7186.23 300.213   5
 -21  -1   0 7219.61 298.938  10
  21  -1   1 5297.63 252.015   5
 -21  -1   1 5373.38 250.247  10
  21  -1   2 9367.17 353.458   5
 -21  -1   2 10093.6 362.572  10
 -21   1   2 9012.22 331.031  10
  21  -1   3 5350.24 264.789   5
 -21  -1   3 4954.27 252.288  10
 -21   1   3 5232.18 254.587  10
  21   1   4 6225.48 294.974   5
 -21   1   4 6408.42 301.632  10
 -21   2  -3 2308.72 179.658   9
  21  -2  -3 2323.44 181.393   5
 -21  -2  -3 2512.18 191.245  10
 -21   2  -2 4488.55 249.525   9
  21  -2  -2 4127.58 238.434   5
 -21  -2  -2 4296.26 242.910  10
 -21   2  -1 2609.08 191.196   9
  21  -2  -1 2127.28 166.073   5
 -21  -2  -1 2304.15 173.568  10
 -21   2   0 2861.82 196.910   9
  21  -2   0 2565.06 178.320   5
 -21  -2   0 2613.45 179.061  10
 -21   2   1 2180.43 174.197   9
  21  -2   1 1758.98 147.037   5
 -21  -2   1 1925.97 152.877  10
 -21   2   2 5090.94 269.381   9
  21  -2   2 4320.07 237.182   5
 -21  -2   2 4370.99 235.495  10
  21  -2   3 2449.95 178.350   5
 -21  -2   3 2432.39 177.614  10
 -21   3  -2 4142.50 245.823   9
 -21   3  -1 2593.84 198.947   9
  21  -3  -1 2336.20 181.224   5
 -21  -3  -1 2685.92 193.351  10
 -21   3   0 5460.81 290.622   9
  21  -3   0 5104.71 265.265   5
 -21  -3   0 5366.02 271.083  10
 -21   3   1 2100.12 177.851   9
  21  -3   1 2006.36 159.736   5
 -21  -3   1 1910.01 156.984  10
 -21   3   2 4604.13 267.853   9
 -22   0  -2 72.5645 47.2081   9
 -22   0  -1 18082.1 526.434   9
 -22   0  -1 16840.0 499.690  10
 -22   0   0 583.080 80.3477  10
  22   0   0 504.241 74.1943   5
  22   0   1 14405.9 444.954   5
 -22   0   1 14364.8 440.859  10
 -22   0   2 103.529 47.1861  10
  22   0   2 106.053 38.6865   5
  22   0   3 14030.6 460.178   5
 -22   0   3 13655.7 452.022  10
  22  -1  -3 692.864 100.188   5
 -22  -1  -3 772.505 110.841  10
 -22  -1  -2 212.834 69.2958  10
 -22   1  -2 176.837 62.3303   9
  22  -1  -2 154.064 51.3353   5
 -22   1  -1 1390.89 135.897   9
  22  -1  -1 1477.69 135.729   5
 -22  -1  -1 1324.04 133.767  10
 -22  -1   0 313.551 74.2609  10
  22  -1   0 213.811 61.6370   5
  22  -1   1 1063.10 112.733   5
 -22  -1   1 1054.82 113.535  10
 -22  -1   2 138.166 56.2408  10
  22  -1   2 180.408 57.3270   5
 -22   1   3 543.750 86.5104  10
 -22  -2  -2-44.6624 57.3417  10
  22  -2  -2-35.4594 33.0553   5
 -22   2  -1 10788.2 407.443   9
  22  -2  -1 9496.42 374.417   5
 -22  -2  -1 9836.53 380.674  10
 -22  -2   0 42.7829 43.6527  10
 -22   2   0-37.8367 60.9596   9
  22  -2   0 64.6589 41.5048   5
  22  -2   1 9303.20 363.210   5
 -22  -2   1 9195.78 359.755  10
 -23   0  -2-36.1810 47.7299   9
 -23   0  -1 104.916 61.7646   9
 -23   0   0 56.5582 42.7550  10
 -23   0   1 165.562 56.3961  10
  23   0   1 89.6112 41.5522   5
 -23   0   2 57.7238 54.3053  10
  23   0   2 257.810 62.7480   5
 -23   1  -2 8944.98 360.770   9
  23  -1  -2 8412.04 345.660   5
 -23  -1  -2 8063.60 340.705  10
 -23   1  -1 4694.46 255.033   9
  23  -1  -1 4055.21 228.136   5
 -23  -1  -1 4355.00 237.265  10
  23  -1   0 8878.94 347.098   5
 -23  -1   0 8875.78 344.208  10
  23  -1   1 3582.81 210.502   5
 -23  -1   1 3797.31 214.868  10
;
_shelx_hkl_checksum              19223
loop_
_space_group_symop_operation_xyz
'x, y, z'
'-x, -y, z+1/2'
'x+1/2, -y, z'
'-x+1/2, y, z+1/2'
loop_
_atom_site_label
_atom_site_type_symbol
_atom_site_fract_x
_atom_site_fract_y
_atom_site_fract_z
_atom_site_U_iso_or_equiv
_atom_site_adp_type
_atom_site_occupancy
_atom_site_site_symmetry_order
_atom_site_calc_flag
_atom_site_refinement_flags_posn
_atom_site_refinement_flags_adp
_atom_site_refinement_flags_occupancy
_atom_site_disorder_assembly
_atom_site_disorder_group
Dy1 Dy 0.60198(2) 0.20406(2) 0.44467(9) 0.01208(11) Uani 1 1 d . . . . .
O1 O 0.7192(2) 0.1950(6) 0.5839(7) 0.0351(12) Uani 1 1 d . . . . .
O2 O 0.5857(2) 0.1765(6) 0.7526(6) 0.0216(9) Uani 1 1 d . . . . .
O3 O 0.65279(19) 0.5321(5) 0.4909(5) 0.0255(11) Uani 1 1 d . . . . .
O4 O 0.5728(2) 0.4063(5) 0.1872(5) 0.0208(8) Uani 1 1 d . . . . .
O5 O 0.6778(2) 0.1169(7) 0.2176(5) 0.0311(10) Uani 1 1 d . . . . .
O6 O 0.4943(2) 0.3942(6) 0.5188(5) 0.0239(8) Uani 1 1 d . . . . .
O7 O 0.6247(3) -0.1437(6) 0.5171(6) 0.0270(9) Uani 1 1 d . . . . .
O8 O 0.4908(2) -0.0243(6) 0.8034(5) 0.0270(9) Uani 1 1 d . . . . .
C1 C 0.6384(3) 0.7057(7) 0.4279(14) 0.0217(14) Uani 1 1 d . . . . .
H1 H 0.6382 0.7199 0.3062 0.026 Uiso 1 1 calc R U . . .
C2 C 0.5130(3) 0.4772(8) 0.1366(7) 0.0202(11) Uani 1 1 d . . . . .
H2 H 0.4709 0.4299 0.1913 0.024 Uiso 1 1 calc R U . . .
C3 C 0.7361(3) 0.0777(8) 0.1458(7) 0.0260(13) Uani 1 1 d . . . . .
H3 H 0.7477 -0.0591 0.1374 0.031 Uiso 1 1 calc R U . . .
C4 C 0.5436(3) 0.0761(7) 0.8512(7) 0.0199(11) Uani 1 1 d . . . . .
H4 H 0.5535 0.0786 0.9711 0.024 Uiso 1 1 calc R U . . .
N1 N 0.6799(2) 0.4704(7) 0.9278(9) 0.0314(11) Uani 1 1 d . . . . .
H1A H 0.7279 0.4525 0.9362 0.047 Uiso 1 1 calc R U . . .
H1B H 0.6626 0.3956 0.8397 0.047 Uiso 1 1 calc DR U . . .
H1C H 0.6587 0.4329 1.0279 0.047 Uiso 1 1 calc DR U . . .
N2 N 0.6648(4) 0.6786(8) 0.8949(7) 0.0390(16) Uani 1 1 d D . . . .
H2A H 0.6223(14) 0.705(3) 0.952(4) 0.047 Uiso 1 1 d D U . . .
H2B H 0.658(2) 0.6895(8) 0.7767(10) 0.047 Uiso 1 1 d D U . . .
loop_
_atom_site_aniso_label
_atom_site_aniso_U_11
_atom_site_aniso_U_22
_atom_site_aniso_U_33
_atom_site_aniso_U_23
_atom_site_aniso_U_13
_atom_site_aniso_U_12
Dy1 0.01121(14) 0.01051(15) 0.01452(14) 0.00027(18) 0.00049(17) 0.00079(6)
O1 0.016(2) 0.029(2) 0.060(3) 0.014(2) -0.015(2) 0.0003(16)
O2 0.025(2) 0.021(2) 0.018(2) 0.0014(16) 0.0031(19) -0.0060(16)
O3 0.029(2) 0.0104(16) 0.038(3) -0.0012(15) -0.0067(15) -0.0003(15)
O4 0.019(2) 0.022(2) 0.0218(19) 0.0053(16) -0.0037(16) 0.0034(16)
O5 0.020(2) 0.042(3) 0.032(2) -0.002(2) 0.0106(18) 0.005(2)
O6 0.021(2) 0.029(2) 0.0217(16) -0.0071(18) 0.0000(15) 0.0091(16)
O7 0.036(2) 0.0111(18) 0.034(2) 0.0010(18) 0.001(2) 0.002(2)
O8 0.027(2) 0.0243(19) 0.030(2) 0.0028(18) 0.0000(18) -0.0094(17)
C1 0.027(3) 0.018(3) 0.020(4) -0.001(3) -0.006(4) -0.0017(18)
C2 0.017(3) 0.026(3) 0.017(2) 0.002(2) 0.001(2) 0.003(2)
C3 0.020(3) 0.020(3) 0.038(4) 0.002(2) 0.008(2) 0.005(2)
C4 0.026(3) 0.018(2) 0.016(3) 0.001(2) 0.003(2) -0.001(2)
N1 0.031(2) 0.033(2) 0.031(3) -0.007(3) -0.005(3) -0.0009(19)
N2 0.039(3) 0.039(3) 0.039(4) 0.013(2) -0.005(2) 0.000(2)
loop_
_atom_type_symbol
_atom_type_description
_atom_type_scat_dispersion_real
_atom_type_scat_dispersion_imag
_atom_type_scat_source
C C 0.0033 0.0016 'International Tables Vol C Tables 4.2.6.8 and 6.1.1.4'
H H 0.0000 0.0000 'International Tables Vol C Tables 4.2.6.8 and 6.1.1.4'
N N 0.0061 0.0033 'International Tables Vol C Tables 4.2.6.8 and 6.1.1.4'
O O 0.0106 0.0060 'International Tables Vol C Tables 4.2.6.8 and 6.1.1.4'
Dy Dy -0.1892 4.4098 'International Tables Vol C Tables 4.2.6.8 and 6.1.1.4'
loop_
_geom_angle_atom_site_label_1
_geom_angle_atom_site_label_2
_geom_angle_atom_site_label_3
_geom_angle
_geom_angle_site_symmetry_1
_geom_angle_site_symmetry_3
O5 Dy1 O8 88.15(15) . 2_654
O5 Dy1 O2 143.39(16) . .
O8 Dy1 O2 108.91(15) 2_654 .
O5 Dy1 O3 95.86(15) . .
O8 Dy1 O3 144.50(13) 2_654 .
O2 Dy1 O3 88.47(14) . .
O5 Dy1 O7 80.05(15) . .
O8 Dy1 O7 75.25(15) 2_654 .
O2 Dy1 O7 73.79(14) . .
O3 Dy1 O7 140.21(14) . .
O5 Dy1 O1 77.43(18) . .
O8 Dy1 O1 147.52(14) 2_654 .
O2 Dy1 O1 70.98(17) . .
O3 Dy1 O1 66.86(12) . .
O7 Dy1 O1 73.69(14) . .
O5 Dy1 O6 143.68(14) . .
O8 Dy1 O6 77.03(14) 2_654 .
O2 Dy1 O6 72.85(14) . .
O3 Dy1 O6 79.16(12) . .
O7 Dy1 O6 126.03(14) . .
O1 Dy1 O6 130.17(15) . .
O5 Dy1 O4 70.37(14) . .
O8 Dy1 O4 75.42(13) 2_654 .
O2 Dy1 O4 144.27(13) . .
O3 Dy1 O4 72.88(12) . .
O7 Dy1 O4 138.55(14) . .
O1 Dy1 O4 124.55(15) . .
O6 Dy1 O4 73.83(13) . .
C3 O1 Dy1 141.9(4) 4_655 .
C4 O2 Dy1 134.7(4) . .
C1 O3 Dy1 133.1(4) . .
C2 O4 Dy1 130.2(4) . .
C3 O5 Dy1 156.4(4) . .
C2 O6 Dy1 127.9(4) 2_665 .
C1 O7 Dy1 133.1(5) 1_545 .
C4 O8 Dy1 135.4(3) . 2_655
O7 C1 O3 124.3(9) 1_565 .
O6 C2 O4 124.8(5) 2_664 .
O1 C3 O5 128.4(5) 4_654 .
O8 C4 O2 126.1(5) . .
loop_
_geom_bond_atom_site_label_1
_geom_bond_atom_site_label_2
_geom_bond_distance
_geom_bond_site_symmetry_2
Dy1 O5 2.291(4) .
Dy1 O8 2.336(4) 2_654
Dy1 O2 2.367(4) .
Dy1 O3 2.383(4) .
Dy1 O7 2.398(4) .
Dy1 O1 2.398(4) .
Dy1 O6 2.406(4) .
Dy1 O4 2.430(3) .
O1 C3 1.222(7) 4_655
O2 C4 1.264(7) .
O3 C1 1.270(7) .
O4 C2 1.254(7) .
O5 C3 1.227(7) .
O6 C2 1.241(6) 2_665
O7 C1 1.229(8) 1_545
O8 C4 1.228(6) .
O8 Dy1 2.336(4) 2_655
C1 O7 1.229(8) 1_565
C2 O6 1.241(6) 2_664
C3 O1 1.222(7) 4_654
N1 N2 1.425(7) .
