#------------------------------------------------------------------------------
#$Date: 2019-10-11 11:54:38 +0300 (Fri, 11 Oct 2019) $
#$Revision: 219290 $
#$URL: file:///home/coder/svn-repositories/cod/cif/7/23/45/7234556.cif $
#------------------------------------------------------------------------------
#
# This file is available in the Crystallography Open Database (COD),
# http://www.crystallography.net/
#
# All data on this site have been placed in the public domain by the
# contributors.
#
data_7234556
loop_
_publ_author_name
'Maciej Ptak'
'Miroslaw Maczka'
'Anna Gagor'
'Pawel Gluchowski'
'Lucyna Macalik'
_publ_section_title
;
 Synthesis, structure and optical properties of two novel luminescent
 polar dysprosium metal-organic frameworks: [(CH3)2NH2][Dy(HCOO)4] and
 [N2H5][Dy(HCOO)4]
;
_journal_name_full               'Journal of Materials Chemistry C'
_journal_page_first              1019
_journal_page_last               1028
_journal_paper_doi               10.1039/C5TC04264J
_journal_volume                  4
_journal_year                    2016
_chemical_formula_sum            'C6 H12 Dy N O8'
_chemical_formula_weight         388.67
_space_group_crystal_system      orthorhombic
_space_group_IT_number           33
_space_group_name_Hall           'P 2c -2n'
_space_group_name_H-M_alt        'P n a 21'
_atom_sites_solution_hydrogens   geom
_atom_sites_solution_primary     direct
_atom_sites_solution_secondary   difmap
_cell_angle_alpha                90.00
_cell_angle_beta                 90.00
_cell_angle_gamma                90.00
_cell_formula_units_Z            4
_cell_length_a                   8.73830(10)
_cell_length_b                   18.1604(2)
_cell_length_c                   6.70720(10)
_cell_measurement_reflns_used    14033
_cell_measurement_temperature    297(2)
_cell_measurement_theta_max      29.6260
_cell_measurement_theta_min      3.9840
_cell_volume                     1064.37(2)
_computing_structure_refinement  'SHELXL-2014/7 (Sheldrick, 2014)'
_computing_structure_solution    'SHELXS-97 (Sheldrick, 1990)'
_diffrn_ambient_temperature      297(2)
_diffrn_measured_fraction_theta_full 0.968
_diffrn_measured_fraction_theta_max 0.968
_diffrn_measurement_device_type  KM4CCD
_diffrn_radiation_monochromator  graphite
_diffrn_radiation_source         'fine-focus sealed tube'
_diffrn_radiation_type           MoK\a
_diffrn_radiation_wavelength     0.71073
_diffrn_reflns_av_R_equivalents  0.0163
_diffrn_reflns_av_sigmaI/netI    0.0101
_diffrn_reflns_limit_h_max       10
_diffrn_reflns_limit_h_min       -11
_diffrn_reflns_limit_k_max       23
_diffrn_reflns_limit_k_min       -21
_diffrn_reflns_limit_l_max       8
_diffrn_reflns_limit_l_min       -7
_diffrn_reflns_number            22091
_diffrn_reflns_theta_full        27.86
_diffrn_reflns_theta_max         27.86
_diffrn_reflns_theta_min         3.99
_exptl_absorpt_correction_T_max  1.00000
_exptl_absorpt_correction_T_min  0.56626
_exptl_absorpt_correction_type   multi-scan
_exptl_absorpt_process_details
;
CrysAlisPro, Agilent Technologies,
Version 1.171.37.35 (release 13-08-2014 CrysAlis171 .NET)
(compiled Aug 13 2014,18:06:01)
Empirical absorption correction using spherical harmonics,
 implemented in SCALE3 ABSPACK scaling algorithm.
;
_exptl_crystal_colour            colorless
_exptl_crystal_density_diffrn    2.425
_exptl_crystal_description       'rectangular prism'
_exptl_crystal_size_max          0.2
_exptl_crystal_size_mid          0.16
_exptl_crystal_size_min          0.15
_refine_diff_density_max         0.331
_refine_diff_density_min         -0.572
_refine_diff_density_rms         0.073
_refine_ls_abs_structure_details
;
 Flack x determined using 923 quotients [(I+)-(I-)]/[(I+)+(I-)]
 (Parsons, Flack and Wagner, Acta Cryst. B69 (2013) 249-259).
;
_refine_ls_abs_structure_Flack   -0.013(7)
_refine_ls_extinction_method     none
_refine_ls_goodness_of_fit_ref   1.105
_refine_ls_hydrogen_treatment    mixed
_refine_ls_matrix_type           full
_refine_ls_number_parameters     145
_refine_ls_number_reflns         2322
_refine_ls_number_restraints     1
_refine_ls_restrained_S_all      1.104
_refine_ls_R_factor_all          0.0131
_refine_ls_R_factor_gt           0.0122
_refine_ls_shift/su_max          0.017
_refine_ls_shift/su_mean         0.001
_refine_ls_structure_factor_coef Fsqd
_refine_ls_weighting_details
'calc w=1/[\s^2^(Fo^2^)+(0.0111P)^2^+0.8200P] where P=(Fo^2^+2Fc^2^)/3'
_refine_ls_weighting_scheme      calc
_refine_ls_wR_factor_gt          0.0270
_refine_ls_wR_factor_ref         0.0273
_reflns_number_gt                2239
_reflns_number_total             2322
_reflns_threshold_expression     >2sigma(I)
_cod_data_source_file            J-Mater-Chem-C-2016-4-1019.cif
_cod_data_source_block           nc
_cod_database_code               7234556
_shelx_space_group_comment
;
The symmetry employed for this shelxl refinement is uniquely defined
by the following loop, which should always be used as a source of
symmetry information in preference to the above space-group names.
They are only intended as comments.
;
_shelx_res_file
;

    nc.res created by SHELXL-2014/7

TITL nc in Pna2(1)
CELL 0.71073   8.7383  18.1604   6.7072  90.000  90.000  90.000
ZERR    4.00   0.0001   0.0002   0.0001   0.000   0.000   0.000
LATT -1
SYMM -X, -Y, 0.5+Z
SYMM 0.5+X, 0.5-Y, Z
SYMM 0.5-X, 0.5+Y, 0.5+Z
SFAC C H N O DY
UNIT 24 48 4 32 4

L.S. 8
bond $h
htab
eqiv $1 x+1/2, -y+3/2, z
eqiv $2 x+1/2, -y+3/2, z+1
htab N1 O5_$1
htab N1 O1_$2

htab N1 O6
htab N1 O8
BOND
FMAP 2
PLAN 20
acta 56
shel 10 0.76
WGHT    0.011100    0.820000
FVAR       0.20386
MOLE   1
DY1   5    0.744151    0.605544    0.405909    11.00000    0.01081    0.01054 =
         0.01175   -0.00114   -0.00053   -0.00007
O1    4    0.721468    0.654129   -0.262710    11.00000    0.04088    0.02772 =
         0.01392    0.00432   -0.00303    0.00681
O3    4    0.854146    0.510338    0.223801    11.00000    0.02442    0.02777 =
         0.02411   -0.00577    0.00272    0.00957
O4    4    0.654100    0.501681    0.593567    11.00000    0.02266    0.03066 =
         0.02845    0.00935    0.00290   -0.01057
O5    4    0.603113    0.715882    0.408225    11.00000    0.02538    0.02141 =
         0.02791   -0.00211   -0.00435    0.01144
C3    1    0.986720    0.753297    0.343134    11.00000    0.02459    0.02079 =
         0.01950    0.00289   -0.00393   -0.00217
AFIX  43
H3    2    0.929462    0.777930    0.247152    11.00000   -1.20000
AFIX   0
C4    1    0.528877    0.478074    0.646723    11.00000    0.03540    0.03438 =
         0.03118   -0.00053    0.00495   -0.00862
AFIX  43
H4    2    0.445969    0.501712    0.587882    11.00000   -1.20000
AFIX   0
C5    1    0.983975    0.495881    0.162531    11.00000    0.02343    0.01306 =
         0.02881    0.00142    0.00724   -0.00395
AFIX  43
H5    2    1.055323    0.533767    0.170415    11.00000   -1.20000
AFIX   0
C6    1    0.738072    0.622188   -0.098206    11.00000    0.02920    0.02296 =
         0.01684   -0.00301    0.00283    0.00178
AFIX  43
H6    2    0.739216    0.570987   -0.100391    11.00000   -1.20000
AFIX   0
O6    4    0.969820    0.562412    0.592535    11.00000    0.02215    0.01935 =
         0.03018    0.00632   -0.00795    0.00348
O7    4    0.493855    0.429543    0.761996    11.00000    0.02486    0.02997 =
         0.03110    0.00660    0.00754   -0.00846
O8    4    0.941738    0.691705    0.397832    11.00000    0.02623    0.02216 =
         0.03478    0.00779   -0.00565   -0.01160
O9    4    0.752982    0.651758    0.065596    11.00000    0.04262    0.02918 =
         0.01314   10.00410   -0.00012  -10.00810
mole 1
N1    3    1.172742    0.678138    0.726806    11.00000    0.03250    0.03198 =
         0.03320    0.01113   -0.00807   -0.00744
AFIX  23
H1A   2    1.167948    0.722636    0.671557    11.00000   -1.20000
H1B   2    1.110041    0.648687    0.659162    11.00000   -1.20000
AFIX   0

C1    1    1.120265    0.682990    0.930709    11.00000    0.08484    0.06251 =
         0.05110   -0.01378    0.02299   -0.03224
AFIX 137
H1C   2    1.131151    0.635885    0.994097    11.00000   -1.50000
H1D   2    1.014590    0.697428    0.932442    11.00000   -1.50000
H1E   2    1.180195    0.718881    1.001042    11.00000   -1.50000
AFIX   0
C2    1    1.327978    0.650411    0.708554    11.00000    0.05375    0.04592 =
         0.15096    0.01854    0.04389    0.00249
AFIX 137
H2A   2    1.398422    0.686324    0.759621    11.00000   -1.50000
H2B   2    1.350391    0.641022    0.570760    11.00000   -1.50000
H2C   2    1.337747    0.605556    0.783214    11.00000   -1.50000
MOLE   2
AFIX   0
HKLF 4

REM  nc in Pna2(1)
REM R1 =  0.0122 for    2239 Fo > 4sig(Fo)  and  0.0131 for all    2322 data
REM    145 parameters refined using      1 restraints

END

;
_shelx_res_checksum              87127
_shelx_hkl_file
;
   0  -3   0    0.11    0.23
   0   3   0    0.29    0.28
   0  -4   0 1171.99   14.04
   0  -4   0 1156.79   14.02
   0  -4   0 1186.49   13.82
   0   4   0 1188.33   14.06
   0   4   0 1193.54   14.06
   0   4   0 1201.70   13.81
   0  -5   0    0.64    0.42
   0  -5   0    0.61    0.31
   0   5   0    0.85    0.42
   0   5   0    0.38    0.42
   0  -5   0    0.60    0.42
   0   5   0    0.74    0.37
   0   6   0   72.53    2.08
   0  -6   0   72.40    2.24
   0  -6   0   72.86    2.11
   0  -6   0   70.70    2.21
   0   6   0   72.23    2.23
   0   6   0   72.05    2.23
   0   7   0    0.41    0.40
   0   7   0    0.61    0.50
   0  -7   0    0.28    0.36
   0  -7   0    0.69    0.52
   0  -7   0    0.17    0.51
   0   7   0    0.81    0.51
   0  -8   0  546.33    8.81
   0  -8   0  545.66    8.81
   0  -8   0  567.50    8.57
   0   8   0  561.30    8.50
   0   8   0  558.72    8.87
   0   8   0  547.16    8.82
   0   9   0    0.20    0.41
   0  -9   0   -0.51    0.47
   0  -9   0    0.44    0.56
   0   9   0    0.43    0.59
   0   9   0    0.23    0.50
   0  -9   0    0.42    0.53
   0  10   0 1345.35   18.30
   0  10   0 1340.15   17.68
   0  10   0 1345.80   18.29
   0 -10   0 1380.23   17.85
   0 -10   0 1332.17   18.24
   0 -10   0 1344.57   18.27
   0  11   0    0.94    0.53
   0 -11   0   -0.04    0.45
   0  11   0   -0.05    0.42
   0 -11   0   -0.11    0.42
   0 -11   0    0.35    0.45
   0  11   0    0.64    0.45
   0 -12   0   19.40    1.65
   0  12   0   19.55    1.70
   0 -12   0   19.20    1.54
   0  12   0   23.84    1.84
   0 -12   0   18.19    1.61
   0  12   0   22.18    1.59
   0  13   0   -0.34    0.67
   0  13   0    0.11    0.51
   0 -13   0    1.11    0.59
   0  13   0    1.02    0.74
   0 -13   0    0.30    0.57
   0 -13   0   -0.67    0.72
   0 -14   0  536.25   10.04
   0 -14   0  526.64   10.50
   0  14   0  519.76    9.80
   0  14   0  516.26   10.44
   0 -14   0  527.57   10.50
   0  14   0  515.80   10.45
   0  15   0   -0.64    0.77
   0 -15   0   -0.90    0.79
   0 -15   0   -0.22    0.57
   0  15   0   -1.31    0.87
   0 -15   0    1.14    0.95
   0  15   0    0.76    0.68
   0 -16   0   30.88    2.45
   0  16   0   28.91    2.16
   0  16   0   33.28    2.55
   0 -16   0   34.49    2.61
   0  16   0   36.27    2.67
   0 -16   0   31.74    2.33
   0  17   0   -0.39    0.57
   0 -17   0    0.19    0.60
   0 -17   0    0.52    0.60
   0  17   0   -1.17    0.89
   0 -17   0    0.22    0.62
   0  17   0    0.20    0.58
   0  18   0  484.16   10.50
   0  18   0  486.18   11.33
   0  18   0  484.04   11.32
   0 -18   0  489.46   10.73
   0 -19   0    0.74    0.75
   0  19   0    0.15    0.87
   0  19   0   -1.33    1.10
   0  19   0   -0.32    0.71
   0  20   0  361.65    9.36
   0  20   0  368.44   10.20
   0  20   0  364.28   10.15
   0  21   0    0.20    0.76
   0  22   0   99.55    4.91
  -1  -3   0    4.76    0.46
  -1  -3   0    5.45    0.55
  -1   3   0    5.47    0.57
   1  -3   0    5.90    0.60
   1   3   0    5.50    0.57
  -1   3   0    5.15    0.56
  -1   3   0    5.68    0.56
   1  -3   0    4.96    0.55
   1   3   0    5.37    0.54
   1   3   0    4.91    0.48
  -1  -3   0    5.35    0.54
   1  -4   0  556.57    7.62
  -1   4   0  557.16    7.62
  -1   4   0  557.00    7.62
   1   4   0  555.18    7.32
   1  -4   0  559.08    7.62
  -1  -4   0  561.20    7.61
  -1   4   0  543.56    7.56
   1   4   0  543.15    7.59
  -1  -4   0  543.88    7.29
   1   4   0  546.51    7.60
   1  -4   0  544.45    7.59
  -1  -4   0  553.36    7.59
  -1  -5   0   62.27    2.00
   1  -5   0   61.69    2.01
  -1   5   0   66.97    2.04
  -1   5   0   69.28    2.04
  -1  -5   0   65.13    1.83
   1  -5   0   64.21    2.00
   1   5   0   65.29    1.86
  -1  -5   0   62.57    2.00
   1   5   0   68.66    2.05
   1   5   0   65.44    2.02
  -1   5   0   63.91    2.00
   1  -5   0   62.01    2.02
  -1  -6   0 1233.78   15.77
  -1   6   0 1296.45   15.87
  -1  -6   0 1226.79   15.77
   1   6   0 1252.51   15.32
  -1   6   0 1252.02   15.62
   1  -6   0 1252.62   15.82
  -1   6   0 1284.78   15.84
   1  -6   0 1256.06   15.67
   1   6   0 1256.79   15.81
   1   6   0 1263.24   15.81
   1  -6   0 1228.62   15.79
  -1  -6   0 1258.86   15.32
   1   7   0    1.46    0.56
  -1  -7   0    0.84    0.44
   1  -7   0    0.68    0.46
  -1  -7   0    1.38    0.49
   1   7   0    1.60    0.58
  -1   7   0    1.84    0.55
  -1   7   0    0.86    0.43
   1   7   0    1.08    0.41
  -1   7   0    0.55    0.41
   1  -7   0    1.96    0.62
  -1  -7   0    0.82    0.35
   1  -7   0    1.33    0.58
   1  -8   0 1018.00   13.70
  -1  -8   0 1019.74   13.36
  -1  -8   0  994.92   13.84
  -1  -8   0 1003.19   13.86
   1  -8   0  997.46   13.87
   1   8   0 1001.17   13.28
  -1   8   0  976.35   13.82
  -1   8   0  979.57   13.83
   1   8   0  997.70   13.87
   1  -8   0  997.87   13.86
   1   8   0 1007.20   13.91
  -1   8   0 1023.61   13.64
   1   9   0   34.24    1.89
   1   9   0   34.31    1.89
  -1  -9   0   35.38    1.73
  -1   9   0   34.93    1.82
  -1   9   0   37.91    1.96
   1  -9   0   37.11    1.89
  -1   9   0   35.58    1.91
   1  -9   0   35.27    1.91
  -1  -9   0   38.35    1.98
  -1  -9   0   38.85    1.99
   1   9   0   35.46    1.74
   1  -9   0   36.20    1.94
  -1  10   0  309.69    6.66
  -1 -10   0  326.14    6.31
   1  10   0  309.31    6.17
   1 -10   0  311.98    6.66
   1 -10   0  308.94    6.63
  -1  10   0  310.08    6.65
   1  10   0  331.84    5.15
   1 -10   0  323.69    6.53
   1  10   0  314.99    6.69
   1  10   0  318.56    6.72
  -1 -10   0  320.33    6.68
  -1 -10   0  319.47    6.68
  -1  10   0  312.78    6.38
  -1 -11   0   26.66    1.84
   1 -11   0   26.71    1.82
   1 -11   0   27.17    1.79
   1  11   0   27.56    1.90
   1 -11   0   26.90    1.85
  -1 -11   0   28.46    1.74
  -1  11   0   29.69    1.91
  -1  11   0   29.37    1.92
   1  11   0   26.82    1.68
   1  11   0   26.49    1.86
  -1 -11   0   28.16    1.87
   1  11   0   28.07    1.21
  -1  11   0   27.97    1.79
   1  12   0  901.08   11.20
  -1  12   0  886.54   14.23
   1 -12   0  894.14   13.86
  -1 -12   0  887.50   14.20
  -1 -12   0  915.73   13.61
   1 -12   0  906.29   14.27
   1  12   0  881.69   13.42
   1  12   0  906.76   11.23
   1 -12   0  897.33   14.23
  -1  12   0  893.09   14.26
   1  12   0  905.92   14.21
  -1  12   0  891.65   13.75
   1  12   0  891.25   14.15
  -1 -12   0  886.40   14.21
  -1  13   0   10.85    1.39
  -1 -13   0   11.00    1.25
   1  13   0   10.70    1.35
  -1 -13   0   11.62    1.37
   1  13   0   11.34    0.75
   1 -13   0   12.96    1.49
   1  13   0    9.76    1.27
  -1 -13   0   14.13    1.51
  -1  13   0   11.74    1.33
   1 -13   0   12.01    1.34
   1 -13   0    9.13    1.27
   1  13   0   12.32    1.29
  -1  13   0   12.19    1.41
   1  13   0   11.51    0.73
  -1  14   0   30.87    2.26
   1  14   0   31.66    2.26
   1  14   0   30.58    1.14
   1  14   0   31.74    1.16
  -1 -14   0   30.25    2.26
   1  14   0   31.63    2.28
   1  14   0   33.43    2.14
  -1 -14   0   31.02    2.28
  -1  14   0   27.97    2.17
   1 -14   0   31.69    2.29
  -1 -14   0   31.88    2.10
  -1  14   0   31.26    2.12
   1 -14   0   33.00    2.23
   1 -14   0   29.45    2.23
  -1 -15   0   11.77    1.54
   1  15   0   11.59    0.65
   1  15   0   13.33    1.62
   1 -15   0   11.48    1.41
   1 -15   0   11.69    1.49
  -1  15   0   10.86    1.50
   1  15   0   13.51    1.47
   1 -15   0    9.83    1.40
   1  15   0   10.91    1.48
  -1  15   0   12.56    1.50
  -1 -15   0   12.43    1.60
  -1  15   0   12.72    1.62
  -1 -15   0   10.47    1.34
   1  15   0   10.89    0.64
  -1 -16   0  524.30   11.13
  -1  16   0  521.76   10.53
  -1  16   0  531.19   11.18
  -1 -16   0  519.59   11.07
   1  16   0  523.00   11.07
   1 -16   0  526.45   10.72
  -1 -16   0  518.11   10.38
   1  16   0  520.09   11.05
   1 -16   0  512.22   11.00
   1  16   0  505.86   10.19
   1 -16   0  529.73   11.15
   1  16   0  493.29    6.32
  -1  16   0  521.78   11.12
  -1  17   0    9.19    1.36
   1  17   0    9.83    1.57
  -1 -17   0    7.91    1.37
  -1 -17   0    8.22    1.29
   1  17   0    9.11    1.37
   1 -17   0    7.43    1.33
  -1  17   0    8.39    1.41
  -1 -17   0    7.83    1.36
   1 -17   0   10.30    1.49
   1 -17   0    9.90    1.56
  -1  17   0    8.01    1.39
   1  17   0    8.90    1.46
   1 -18   0  239.12    7.24
   1  18   0  253.05    7.84
   1  18   0  239.13    6.94
  -1  18   0  244.29    7.13
  -1  18   0  243.20    7.61
   1  18   0  251.74    7.81
  -1 -18   0  254.13    7.27
  -1  18   0  244.31    7.64
   1  19   0    0.67    0.92
   1  19   0    0.35    0.80
  -1  19   0   -0.14    0.87
   1 -19   0   -0.02    0.78
  -1  19   0   -0.43    0.79
   1  19   0    0.13    0.70
  -1 -19   0    0.95    0.77
  -1  20   0  269.91    8.00
   1  20   0  273.53    8.70
   1  20   0  268.64    7.87
  -1  20   0  274.18    8.72
  -1  20   0  265.17    8.59
   1  20   0  269.32    8.66
  -1  21   0    7.81    1.46
   1  21   0    7.45    1.43
  -1  22   0  334.10    9.59
   1  22   0  335.21    9.44
  -2   0   0 1786.03   20.30
   2   0   0 1815.66   20.79
   2   0   0 1832.01   20.90
   2   0   0 1775.07   20.38
   2   0   0 1838.26   21.14
   2   0   0 1850.08   21.13
  -2   0   0 1826.18   20.81
  -2   0   0 1824.21   20.91
  -2  -1   0   72.64    2.05
  -2  -1   0   75.94    1.71
  -2   1   0   73.19    2.08
  -2  -1   0   77.58    2.16
   2  -1   0   74.64    2.05
   2   1   0   73.26    1.71
   2  -1   0   77.20    1.96
  -2   1   0   72.60    1.94
   2   1   0   75.53    2.12
  -2   1   0   77.67    1.94
  -2  -1   0   75.09    2.07
   2   1   0   74.99    2.05
   2  -1   0   71.58    1.94
   2   1   0   76.86    2.16
  -2  -1   0   76.47    2.15
   2   1   0   74.08    2.05
  -2   2   0   15.64    0.98
  -2   2   0   15.92    0.95
   2  -2   0   16.86    1.05
   2   2   0   14.08    0.75
  -2   2   0   14.87    1.03
   2  -2   0   14.39    0.97
  -2  -2   0   16.25    1.05
  -2  -2   0   15.88    1.02
   2   2   0   16.76    0.99
   2   2   0   14.13    1.01
   2   2   0   17.57    1.10
  -2  -2   0   16.16    1.05
  -2  -2   0   13.89    0.98
   2  -2   0   15.92    0.94
  -2   3   0   12.96    0.99
  -2   3   0   11.73    0.84
   2   3   0   11.53    0.88
  -2  -3   0   14.16    1.02
  -2  -3   0   13.49    1.01
  -2  -3   0   11.41    0.89
   2   3   0   12.57    0.95
   2   3   0   11.67    0.94
   2  -3   0   10.98    0.92
   2  -3   0   12.68    0.85
   2  -3   0   10.75    0.90
  -2   3   0   11.52    0.92
   2  -3   0   12.29    0.92
   2  -4   0 3323.87   37.71
  -2  -4   0 3352.49   37.82
   2   4   0 3470.55   37.87
  -2   4   0 3399.13   37.86
  -2  -4   0 3446.05   37.45
  -2  -4   0 3331.71   37.81
  -2   4   0 3300.93   37.94
   2  -4   0 3431.84   37.43
  -2  -4   0 3383.02   37.76
   2  -4   0 3331.19   37.83
   2   4   0 3487.69   37.88
   2  -4   0 3307.38   37.80
  -2   4   0 3404.04   37.86
   2  -5   0   14.76    1.05
  -2  -5   0   14.84    1.09
   2  -5   0   13.98    1.07
   2   5   0   13.40    1.06
  -2  -5   0   14.74    1.09
  -2  -5   0   13.20    0.93
  -2   5   0   13.48    1.07
   2  -5   0   15.33    1.00
  -2  -5   0   14.14    1.06
  -2   5   0   14.05    1.07
  -2   5   0   15.20    1.21
  -2   5   0   14.58    1.09
   2  -5   0   13.74    1.05
   2   5   0   13.58    1.05
  -2   6   0  212.62    4.55
   2   6   0  206.84    4.50
  -2   6   0  204.07    4.49
   2  -6   0  200.77    4.47
  -2  -6   0  198.63    4.13
   2   6   0  200.78    4.45
  -2  -6   0  204.17    4.48
   2  -6   0  209.39    4.50
  -2   6   0  208.78    4.52
  -2  -6   0  206.85    4.51
   2  -6   0  196.30    4.43
   2  -7   0   10.48    1.03
  -2  -7   0   11.35    1.07
  -2   7   0   11.48    1.05
   2  -7   0   12.18    0.66
  -2   7   0   11.77    1.10
  -2   7   0   11.40    1.08
   2   7   0   11.61    1.07
   2   7   0   10.55    1.04
  -2  -7   0   11.30    0.97
   2  -7   0   12.79    1.14
  -2  -7   0   12.36    1.07
   2   7   0   10.37    0.94
  -2   8   0  976.80   13.82
  -2   8   0  956.86   13.75
   2  -8   0  960.91   13.77
  -2  -8   0  970.53   13.13
   2   8   0  971.51   13.76
  -2  -8   0  956.36   13.75
   2  -8   0  961.87   10.91
   2   8   0  946.77   13.10
  -2   8   0  953.03   13.61
  -2  -8   0  962.07   13.77
   2   8   0  983.72   13.80
   2  -8   0  942.93   10.89
   2  -8   0  960.41   13.79
  -2   9   0   13.47    1.24
   2   9   0   16.34    1.35
   2  -9   0   14.72    1.32
   2   9   0   15.49    1.36
   2   9   0   13.12    1.12
  -2  -9   0   13.33    1.23
  -2  -9   0   15.11    1.34
   2  -9   0   12.66    1.21
  -2  -9   0   14.47    1.14
  -2   9   0   14.08    1.31
  -2   9   0   14.40    1.30
  -2 -10   0  884.74   13.68
   2  10   0  902.42   13.73
   2 -10   0  890.38   13.60
   2 -10   0  904.94   13.74
  -2  10   0  898.81   13.52
   2  10   0  895.57   13.02
  -2 -10   0  890.71   13.01
   2 -10   0  891.11   13.69
  -2 -10   0  894.20   13.73
  -2  10   0  890.95   13.72
   2  10   0  899.92   13.71
  -2  10   0  906.59   13.79
   2  11   0    3.97    0.78
  -2 -11   0    4.84    0.99
  -2  11   0    4.65    0.93
   2 -11   0    3.97    0.87
  -2  11   0    5.27    0.94
   2 -11   0    3.96    0.87
   2  11   0    3.46    0.90
  -2  11   0    5.85    1.00
   2  11   0    4.81    0.94
  -2 -11   0    4.95    0.95
   2 -11   0    4.38    0.87
  -2 -11   0    4.04    0.78
   2  12   0   11.76    1.34
   2 -12   0   12.12    1.42
   2 -12   0   11.43    1.32
   2  12   0    9.25    1.12
  -2 -12   0   13.70    1.48
  -2  12   0   10.92    1.33
  -2  12   0   12.16    1.40
   2 -12   0   11.29    1.36
  -2 -12   0   11.80    1.21
   2  12   0   14.12    1.23
  -2 -12   0   12.98    1.41
  -2  12   0   10.38    1.22
   2  12   0   12.72    1.43
  -2 -13   0    0.09    0.63
   2 -13   0   -0.01    0.71
   2  13   0    0.23    0.68
   2  13   0    1.73    0.63
   2  13   0   -0.23    0.69
  -2 -13   0   -0.06    0.67
   2 -13   0    0.45    0.64
  -2 -13   0    0.91    0.80
  -2  13   0    0.10    0.75
   2 -13   0    1.44    0.84
  -2  13   0   -0.56    0.70
  -2  13   0    0.18    0.68
   2  13   0    0.71    0.60
  -2  14   0  880.76   14.94
  -2 -14   0  852.72   14.84
   2  14   0  898.20   12.27
   2  14   0  874.51   14.96
   2 -14   0  863.26   14.94
   2 -14   0  874.18   15.00
  -2 -14   0  877.75   14.14
   2  14   0  877.74   12.27
   2  14   0  848.70   13.94
  -2  14   0  879.78   14.54
   2 -14   0  880.17   14.74
  -2  14   0  875.94   14.92
  -2 -14   0  864.80   14.89
   2  14   0  880.86   15.00
  -2 -15   0    0.99    0.76
  -2 -15   0    1.27    0.84
  -2  15   0    3.07    1.02
  -2 -15   0    2.13    0.77
  -2  15   0    2.85    1.04
  -2  15   0    0.20    0.70
   2  15   0    1.14    0.46
   2 -15   0    1.94    0.84
   2  15   0    1.85    0.72
   2  15   0    1.08    0.78
   2  15   0    1.80    0.61
   2 -15   0    1.12    0.81
   2 -15   0    2.28    0.94
   2  15   0    2.09    0.89
   2 -16   0  232.30    6.93
  -2  16   0  231.20    6.75
   2  16   0  239.72    6.56
   2 -16   0  231.68    7.13
  -2 -16   0  241.38    6.63
   2  16   0  239.89    7.19
  -2 -16   0  231.78    7.07
   2  16   0  240.16    7.19
   2 -16   0  234.78    7.17
   2  16   0  246.82    4.82
   2  16   0  239.11    4.76
  -2 -16   0  232.76    7.10
  -2  16   0  247.07    7.25
  -2  16   0  247.43    7.27
  -2 -17   0   17.19    1.94
   2  17   0   17.91    1.11
  -2 -17   0   20.76    2.12
   2  17   0   18.52    1.14
  -2  17   0   20.07    2.03
  -2  17   0   19.07    2.09
  -2 -17   0   17.92    1.84
   2  17   0   15.72    1.69
  -2  17   0   18.53    2.02
   2  17   0   18.76    2.07
   2  17   0   16.39    1.97
   2 -17   0   19.08    2.03
  -2 -18   0  461.45   10.25
   2  18   0  441.53    9.99
  -2  18   0  449.97   10.43
   2  18   0  449.75    6.82
  -2  18   0  440.43   10.88
   2  18   0  444.07    6.82
  -2  18   0  443.89   10.91
   2  18   0  446.68   10.96
   2  18   0  429.80   10.77
  -2  19   0    1.39    0.83
  -2  19   0    0.56    0.81
   2  19   0    0.61    0.77
   2  19   0    1.48    1.00
  -2 -19   0    2.24    0.88
  -2  19   0    0.73    0.87
   2  19   0    0.50    0.79
   2  20   0  287.66    8.20
  -2  20   0  313.93   10.10
  -2  20   0  282.82    8.50
   2  21   0    0.41    0.70
  -2  21   0    0.95    0.85
  -2  21   0    1.85    1.51
   2  22   0   54.69    3.66
  -2  22   0   58.19    4.62
   3   0   0    0.17    0.43
   3   0   0    0.93    0.50
   3   0   0    0.52    0.48
  -3   0   0    1.39    0.58
   3   0   0    0.85    0.39
   3   0   0    0.44    0.44
  -3   0   0    2.38    0.59
  -3   0   0    0.22    0.34
   3   1   0   42.99    1.80
  -3  -1   0   43.02    1.92
   3  -1   0   42.07    1.81
   3  -1   0   45.20    1.78
   3  -1   0   41.93    1.91
  -3  -1   0   40.30    1.77
  -3  -1   0   43.92    1.93
  -3  -1   0   44.86    1.86
   3  -1   0   44.15    1.98
  -3  -1   0   41.77    1.45
  -3   1   0   43.64    1.65
   3  -1   0   42.67    1.67
   3   1   0   41.35    1.87
  -3   1   0   44.52    1.79
  -3   1   0   44.64    1.89
   3   1   0   42.05    1.88
   3   1   0   42.88    1.51
   3   1   0   43.33    1.82
   3   2   0 2269.01   25.71
  -3   2   0 2313.00   26.50
  -3  -2   0 2309.31   26.93
  -3   2   0 2271.58   26.98
   3  -2   0 2298.82   26.65
   3  -2   0 2238.93   26.69
   3   2   0 2277.30   27.17
  -3  -2   0 2260.39   26.89
  -3  -2   0 2239.94   27.11
   3  -2   0 2329.65   26.98
   3   2   0 2284.53   27.19
  -3   2   0 2292.20   26.63
  -3  -2   0 2237.46   27.11
   3   2   0 2316.63   26.92
  -3   3   0   12.28    1.02
  -3  -3   0   11.15    1.03
   3   3   0   12.06    1.02
   3  -3   0   12.59    0.99
   3  -3   0   12.28    1.04
  -3   3   0   11.56    1.03
   3   3   0   11.88    1.07
   3  -3   0   12.71    1.12
  -3  -3   0   10.37    1.05
   3   3   0   11.70    0.79
  -3  -3   0   11.97    1.07
  -3  -3   0   12.04    1.13
   3   3   0   10.72    1.04
  -3   3   0   11.91    1.07
  -3   4   0  330.75    6.19
   3   4   0  329.87    6.16
   3   4   0  333.94    6.31
   3   4   0  332.32    6.29
  -3  -4   0  330.05    6.28
  -3  -4   0  333.00    6.30
  -3   4   0  326.22    5.88
   3  -4   0  327.59    6.31
   3  -4   0  330.79    6.18
   3  -4   0  318.83    6.25
  -3  -4   0  328.67    6.14
  -3   4   0  332.06    6.22
   3  -4   0  331.18    5.90
   3   5   0   13.82    1.21
   3   5   0   16.33    1.31
  -3   5   0   15.33    1.24
   3  -5   0   16.46    1.15
  -3  -5   0   14.50    1.24
   3  -5   0   15.51    1.31
  -3  -5   0   14.49    1.20
  -3  -5   0   14.59    1.23
   3  -5   0   15.23    1.21
   3  -5   0   16.51    1.33
   3  -6   0 1725.94   21.88
  -3  -6   0 1744.44   21.98
  -3  -6   0 1762.83   21.44
   3   6   0 1723.10   22.01
   3   6   0 1722.58   22.02
   3  -6   0 1747.57   21.38
  -3   6   0 1715.12   22.17
   3  -6   0 1695.89   22.01
  -3  -6   0 1756.30   22.02
  -3   6   0 1711.01   22.12
   3  -6   0 1687.29   21.99
  -3  -6   0 1701.20   21.83
  -3   7   0   11.79    1.19
   3  -7   0   13.41    1.31
  -3  -7   0   11.84    1.22
  -3   7   0   11.15    1.29
  -3  -7   0   11.87    1.10
  -3  -7   0   11.93    1.19
   3  -7   0   12.47    1.10
  -3   7   0   13.55    1.30
   3  -7   0   12.54    1.18
  -3  -7   0   11.91    1.18
   3   7   0   11.54    1.17
   3  -7   0   12.21    1.24
   3   7   0   12.83    1.26
  -3   7   0   10.96    1.14
   3   8   0  531.05    9.42
  -3  -8   0  519.88    8.78
  -3  -8   0  538.40    9.43
   3  -8   0  535.49    9.48
  -3  -8   0  516.69    9.25
   3   8   0  516.82    9.35
   3  -8   0  525.78    8.89
  -3   8   0  529.05    9.46
   3  -8   0  541.33    9.40
  -3  -8   0  537.68    9.42
  -3   8   0  525.98    9.40
   3  -8   0  522.05    9.39
  -3   8   0  534.56    9.66
  -3   8   0  518.55    9.35
   3  -9   0   35.81    2.16
  -3  -9   0   32.52    2.04
  -3   9   0   35.53    2.15
  -3  -9   0   36.02    1.94
   3  -9   0   37.68    1.42
  -3   9   0   35.11    2.15
  -3   9   0   34.04    2.24
   3   9   0   36.84    2.15
  -3  -9   0   34.55    2.10
  -3  -9   0   34.82    2.11
   3   9   0   38.50    2.18
   3  -9   0   36.36    2.13
   3  -9   0   38.06    2.02
  -3   9   0   33.09    2.05
   3  -9   0   32.17    2.06
  -3  10   0  152.90    4.78
   3 -10   0  154.80    4.78
   3  10   0  169.75    4.94
   3  10   0  162.68    4.85
   3 -10   0  158.28    4.81
   3 -10   0  160.21    4.86
  -3 -10   0  157.78    4.36
  -3  10   0  158.75    4.86
   3 -10   0  166.31    4.61
   3 -10   0  162.22    2.96
  -3  10   0  157.01    4.77
  -3 -10   0  154.82    4.77
  -3  10   0  158.49    5.06
  -3 -10   0  156.33    4.78
   3 -10   0  162.57    2.96
  -3 -11   0    0.21    0.62
   3 -11   0    0.59    0.58
   3 -11   0    0.10    0.18
  -3  11   0   -0.16    0.83
  -3 -11   0   -0.17    0.57
   3 -11   0    0.26    0.61
   3  11   0    0.25    0.61
  -3  11   0    0.33    0.62
   3 -11   0    0.02    0.17
  -3  11   0    0.43    0.75
  -3  11   0   -0.26    0.64
   3 -11   0    0.17    0.51
   3  11   0    0.18    0.60
  -3 -11   0    0.52    0.42
   3 -12   0  864.83   14.49
  -3  12   0  876.74   15.16
   3 -12   0  851.62   14.49
  -3 -12   0  835.58   14.33
   3 -12   0  848.65   14.48
  -3 -12   0  861.18   14.46
   3  12   0  866.90   14.47
  -3 -12   0  882.55   13.66
  -3  12   0  875.77   14.41
   3  12   0  855.02   14.41
  -3  12   0  876.01   14.52
  -3  12   0  884.27   14.56
  -3  13   0    0.54    0.96
   3  13   0   -0.34    0.72
   3 -13   0    0.99    0.84
  -3  13   0    0.99    0.68
  -3 -13   0    0.05    0.77
  -3 -13   0    0.17    0.70
  -3  13   0   -0.29    0.66
   3 -13   0    0.45    0.58
  -3  13   0    0.46    0.69
   3  13   0    0.61    0.71
  -3 -13   0   -0.39    0.59
   3  14   0   46.13    2.50
   3 -14   0   42.71    2.83
  -3 -14   0   38.83    2.66
  -3  14   0   43.71    2.79
  -3  14   0   44.09    3.09
  -3 -14   0   45.74    2.90
  -3  14   0   45.12    2.92
   3 -14   0   42.15    2.81
  -3  14   0   46.79    2.95
  -3 -14   0   44.46    2.54
   3  14   0   46.92    2.94
   3  14   0   47.44    2.97
   3  15   0    0.80    0.64
   3 -15   0    0.11    0.58
  -3 -15   0    0.05    0.73
  -3 -15   0   -1.99    1.04
  -3 -15   0   -0.21    0.68
  -3  15   0   -0.93    0.63
   3  15   0    0.16    0.66
   3 -15   0    0.58    0.65
  -3  15   0   -0.14    0.89
  -3  15   0    0.05    0.66
   3  15   0    0.18    0.64
  -3  15   0    0.09    0.66
  -3 -16   0  610.06   12.66
  -3  16   0  611.49   12.37
   3 -16   0  597.27   12.69
   3  16   0  613.52   10.34
  -3 -16   0  618.11   11.84
  -3  16   0  606.46   12.71
   3  16   0  617.97   12.70
  -3  16   0  615.58   13.53
   3  16   0  576.78   10.21
   3 -16   0  595.42   12.66
  -3  16   0  614.42   12.78
  -3 -16   0  609.33   12.63
   3  16   0  614.48   12.67
  -3  17   0    3.57    1.31
  -3  17   0    0.80    0.69
   3  17   0    0.81    0.85
   3  17   0    1.89    0.59
  -3  17   0    1.22    0.76
   3  17   0    3.08    0.78
  -3  17   0    1.65    0.87
   3  17   0    1.52    0.83
  -3 -17   0    1.64    0.73
   3  18   0  213.99    7.33
   3  18   0  210.38    7.27
  -3  18   0  215.13    7.40
   3  18   0  218.21    5.20
  -3  18   0  211.79    7.90
   3  18   0  207.34    5.07
  -3  18   0  211.16    7.35
  -3 -18   0  212.75    6.75
  -3  18   0  207.99    7.00
  -3 -19   0   32.93    2.63
  -3  19   0   42.66    3.37
   3  19   0   34.65    3.00
   3  19   0   38.89    3.18
  -3  19   0   36.08    2.93
  -3  19   0   38.60    3.52
  -3  19   0   39.89    3.22
  -3  20   0  170.41    7.50
  -3  20   0  157.08    6.42
  -3  21   0    5.79    1.66
  -4   0   0 2265.71   26.30
  -4   0   0 2280.17   27.34
   4   0   0 2229.35   26.46
   4   0   0 2271.43   27.32
   4   0   0 2260.31   27.88
   4   0   0 2287.74   27.48
  -4   0   0 2242.83   27.59
   4   0   0 2256.30   27.89
   4   1   0  109.21    2.87
   4   1   0  102.96    3.47
   4   1   0  109.60    3.37
  -4  -1   0  110.14    3.56
   4  -1   0  109.26    3.36
   4  -1   0  101.53    3.47
  -4   1   0  105.69    2.94
  -4   1   0  106.11    3.38
  -4  -1   0  103.89    3.32
   4   1   0  107.00    3.29
   4   1   0  104.65    3.50
  -4  -1   0  104.95    2.74
   4  -1   0  104.88    3.53
   4  -1   0  110.11    3.26
  -4  -1   0  107.80    3.33
  -4  -1   0  108.40    3.55
   4  -1   0  111.15    3.11
  -4   1   0  106.66    3.26
   4   2   0  158.66    4.44
   4   2   0  162.88    4.27
  -4  -2   0  163.50    4.28
   4   2   0  156.39    4.42
   4  -2   0  169.85    4.17
  -4  -2   0  166.03    4.51
   4   2   0  156.96    3.57
   4  -2   0  167.25    4.12
   4  -2   0  160.91    4.28
  -4  -2   0  167.62    4.30
  -4   2   0  162.49    4.12
  -4   2   0  163.22    4.35
  -4  -2   0  165.27    4.50
  -4   2   0  168.54    3.99
   4   3   0   32.57    1.94
   4   3   0   30.87    1.90
  -4   3   0   33.00    1.77
  -4  -3   0   32.39    1.87
  -4  -3   0   30.06    1.88
  -4  -3   0   34.22    1.91
  -4   3   0   29.15    1.84
   4  -3   0   31.00    1.72
   4  -3   0   32.19    1.87
   4   3   0   32.75    1.46
   4   3   0   32.65    1.87
  -4   3   0   28.94    1.69
  -4  -3   0   31.18    1.89
   4  -3   0   30.52    1.75
   4   4   0 1856.61   23.49
   4   4   0 1818.46   21.59
   4  -4   0 1798.96   23.48
  -4  -4   0 1816.85   23.19
  -4   4   0 1795.54   22.86
   4  -4   0 1817.70   22.75
  -4  -4   0 1781.31   23.20
   4  -4   0 1857.08   23.32
  -4   4   0 1789.23   23.18
  -4   4   0 1815.84   22.72
  -4  -4   0 1809.46   23.46
   4   4   0 1804.99   23.18
   4  -4   0 1787.96   23.44
  -4  -4   0 1747.72   23.32
   4   4   0 1853.39   23.48
  -4  -5   0    3.08    0.74
  -4  -5   0    2.98    0.81
  -4   5   0    3.00    0.67
   4   5   0    2.80    0.54
  -4  -5   0    2.81    0.72
   4  -5   0    2.97    0.66
   4  -5   0    2.91    0.69
   4   5   0    2.70    0.75
  -4   5   0    3.57    0.77
  -4   5   0    3.58    0.86
   4  -5   0    3.53    0.83
  -4  -5   0    4.05    0.90
   4  -5   0    3.00    0.73
   4   5   0    2.24    0.66
   4   5   0    2.74    0.73
   4   6   0  895.67   13.87
   4  -6   0  898.27   13.26
   4  -6   0  895.22   14.00
  -4  -6   0  900.12   13.73
  -4   6   0  917.58   13.80
   4  -6   0  884.86   13.95
  -4  -6   0  905.72   13.89
   4  -6   0  908.32   13.82
  -4  -6   0  914.90   13.94
   4   6   0  897.97   13.89
  -4  -7   0    2.29    0.66
  -4  -7   0    2.24    0.69
   4   7   0    0.88    0.72
   4   7   0    0.89    0.66
  -4  -7   0    0.96    0.54
   4  -7   0    1.55    0.58
   4  -7   0    2.50    0.74
  -4   7   0    1.82    0.78
  -4   7   0    1.31    0.72
   4  -7   0    1.98    0.69
  -4  -7   0    1.52    0.59
   4  -7   0    1.68    0.65
   4  -8   0  333.16    7.47
   4   8   0  348.12    7.65
  -4   8   0  347.13    7.72
   4   8   0  350.06    7.67
  -4   8   0  345.10    7.75
  -4  -8   0  343.39    7.53
  -4  -8   0  349.95    7.19
  -4  -8   0  350.96    7.65
   4  -8   0  335.39    7.62
  -4  -8   0  350.50    7.63
   4  -8   0  350.74    7.12
   4  -8   0  337.20    7.62
   4   9   0   12.74    1.40
   4  -9   0   12.75    1.41
   4  -9   0   12.75    1.44
  -4  -9   0   12.78    1.28
   4   9   0   11.17    1.36
   4  -9   0   13.76    1.34
  -4  -9   0   14.68    1.51
  -4  -9   0   14.18    1.52
   4  -9   0   14.38    1.52
  -4   9   0   13.66    1.49
  -4  -9   0   13.00    1.42
  -4   9   0   13.35    1.54
  -4 -10   0  480.60    9.65
   4 -10   0  472.56    9.77
   4  10   0  468.89    9.69
  -4 -10   0  479.80    9.78
   4  10   0  468.71    9.68
  -4  10   0  486.43    9.86
  -4 -10   0  477.29    9.09
  -4  10   0  474.82    9.74
   4 -10   0  469.37    9.15
  -4 -10   0  472.47    9.72
   4 -10   0  480.03    9.70
   4 -10   0  483.49    7.81
  -4  10   0  479.08   10.02
   4 -10   0  474.02    9.79
  -4  10   0  478.80    9.79
   4 -11   0    7.19    0.81
  -4  11   0    5.72    1.24
   4 -11   0    6.57    0.76
   4 -11   0    6.25    1.12
   4 -11   0    5.87    1.09
   4  11   0    7.72    1.30
   4  11   0    6.97    1.17
  -4  11   0    6.61    1.15
  -4 -11   0    6.69    1.22
  -4 -11   0    6.20    1.21
   4 -11   0    6.51    1.03
  -4  11   0    7.45    1.28
   4 -11   0    7.10    1.26
  -4 -11   0    6.34    1.19
  -4 -11   0    6.55    1.00
  -4  11   0    5.74    1.21
   4 -12   0    1.49    0.74
  -4  12   0    0.34    0.90
   4 -12   0    0.97    0.79
  -4 -12   0    2.15    0.84
   4  12   0    0.04    0.62
  -4  12   0    0.66    0.80
   4 -12   0    0.91    0.65
  -4 -12   0    1.44    0.68
  -4  12   0    1.17    0.63
  -4  12   0    0.59    0.72
  -4 -12   0    0.06    0.79
   4  12   0    1.52    0.86
   4 -12   0    1.04    0.38
   4 -12   0    1.23    0.62
   4 -12   0    0.58    0.34
  -4 -12   0    2.97    1.05
   4 -13   0   17.81    0.83
  -4  13   0   18.04    1.92
  -4  13   0   21.72    2.24
  -4  13   0   17.30    1.88
  -4  13   0   16.93    1.82
   4  13   0   20.40    1.99
   4 -13   0   18.42    0.84
  -4 -13   0   21.13    2.03
  -4 -13   0   16.93    1.64
  -4 -13   0   20.99    2.04
   4 -13   0   20.42    2.03
  -4 -13   0   18.63    1.95
   4 -13   0   17.74    1.75
   4 -13   0   18.60    2.02
   4  13   0   20.07    1.99
   4 -14   0  676.44   13.47
   4  14   0  687.35   13.43
  -4  14   0  683.37   13.47
  -4 -14   0  652.79   13.18
   4 -14   0  661.61   13.38
  -4 -14   0  686.27   13.38
  -4  14   0  697.40   13.59
   4 -14   0  681.19   12.68
  -4  14   0  694.42   14.05
  -4  14   0  668.00   13.22
  -4 -14   0  669.24   12.38
  -4 -14   0  664.22   13.27
   4  14   0  691.15   13.46
  -4  15   0   24.14    2.33
   4  15   0   26.45    2.38
  -4 -15   0   25.29    2.09
  -4 -15   0   25.07    2.35
   4 -15   0   23.97    2.37
   4  15   0   26.04    2.14
  -4 -15   0   26.63    2.40
  -4 -15   0   28.77    2.53
  -4  15   0   24.64    2.39
   4 -15   0   22.57    2.23
  -4  15   0   29.40    2.55
   4 -15   0   24.61    2.14
  -4  15   0   27.68    2.61
   4  15   0   26.47    2.35
   4  16   0   60.07    3.13
  -4  16   0   56.81    3.87
   4  16   0   57.49    3.60
  -4 -16   0   57.63    3.27
  -4 -16   0   60.27    3.72
   4 -16   0   61.06    3.49
   4  16   0   62.89    3.73
  -4  16   0   56.99    3.64
  -4  16   0   53.15    3.53
  -4  16   0   55.35    3.51
  -4 -17   0    3.60    0.97
   4  17   0    3.61    1.04
  -4  17   0    2.62    0.80
  -4 -17   0    3.43    1.15
   4  17   0    3.30    1.02
  -4  17   0    3.88    1.34
   4  17   0    4.29    1.04
   4  17   0    1.06    0.79
   4 -17   0    5.15    1.23
  -4  17   0    3.77    1.16
  -4  17   0    3.33    1.13
   4  18   0  279.49    7.02
   4  18   0  281.45    8.80
  -4 -18   0  288.37    8.92
   4  18   0  283.70    8.84
  -4  18   0  274.07    8.55
  -4 -18   0  283.81    8.09
  -4  18   0  293.26    9.54
   4  18   0  277.42    6.99
  -4  18   0  278.33    8.80
  -4  18   0  282.43    8.88
  -4  19   0    0.78    0.98
  -4  19   0    1.54    1.28
  -4 -19   0   -0.51    0.83
  -4 -20   0  252.86    8.81
  -4  20   0  241.94    9.25
  -4  21   0    7.03    1.90
  -4 -21   0    7.10    1.67
   5   0   0    0.00    0.57
   5   0   0   -0.35    0.73
   5   0   0   -0.04    0.60
   5   0   0    0.53    0.45
  -5   0   0    0.14    0.41
  -5   0   0   -0.25    0.72
   5   0   0    0.74    0.43
  -5   0   0    0.58    0.57
  -5  -1   0   64.97    2.32
   5   1   0   62.13    3.00
  -5   1   0   63.58    2.48
  -5  -1   0   65.19    2.92
   5  -1   0   65.06    2.88
   5   1   0   66.49    2.85
   5  -1   0   64.29    2.56
   5  -1   0   65.12    3.05
   5   1   0   63.14    3.03
   5   1   0   65.56    2.42
   5  -1   0   66.65    3.06
  -5   1   0   64.90    2.92
   5   1   0   63.72    2.86
  -5  -1   0   66.62    2.89
  -5   1   0   65.53    2.82
   5  -1   0   63.77    2.78
   5  -2   0 2170.03   28.32
   5  -2   0 2197.08   27.83
  -5  -2   0 2164.22   27.66
  -5   2   0 2161.05   27.88
  -5  -2   0 2201.64   28.25
  -5  -2   0 2206.76   27.83
   5   2   0 2202.79   28.25
   5  -2   0 2122.91   27.03
   5  -2   0 2193.37   28.37
   5   2   0 2193.98   28.21
  -5   2   0 2160.35   27.34
  -5  -2   0 2167.01   28.17
   5  -2   0 2224.25   27.41
   5   2   0 2179.35   26.11
   5   2   0 2184.89   27.76
  -5   2   0 2182.21   26.67
   5   3   0   14.96    1.54
   5   3   0   15.35    1.54
  -5   3   0   14.55    1.30
   5  -3   0   15.24    1.48
   5  -3   0   14.69    1.38
  -5  -3   0   13.69    1.46
  -5  -3   0   16.20    1.53
  -5  -3   0   16.18    1.49
  -5  -3   0   16.51    1.57
   5   3   0   15.06    1.14
   5  -3   0   13.78    1.29
  -5   3   0   16.27    1.41
   5   3   0   15.89    1.51
  -5   3   0   15.57    1.53
  -5  -4   0  106.34    3.85
  -5  -4   0  109.54    3.85
   5  -4   0  105.84    3.87
   5   4   0  107.50    3.98
   5  -4   0  108.74    3.69
   5   4   0  104.06    3.06
  -5   4   0  107.25    3.64
  -5   4   0  106.13    3.86
  -5  -4   0  109.03    4.04
   5   4   0  108.55    4.01
  -5  -4   0  107.56    4.01
   5   4   0  104.28    3.81
  -5   4   0  105.69    3.61
  -5  -5   0   97.13    3.83
   5  -5   0   98.35    3.76
  -5   5   0  103.29    3.87
   5  -5   0   97.91    3.52
   5   5   0   98.42    3.70
  -5  -5   0   93.23    3.68
  -5  -5   0   95.70    3.80
  -5   5   0   94.07    3.47
  -5   5   0   98.80    3.59
   5  -5   0   98.61    3.87
  -5  -5   0   95.66    3.69
   5  -5   0   97.95    3.87
   5   5   0  101.14    3.90
   5   5   0   98.48    3.85
   5   5   0   96.97    2.96
   5  -6   0  714.77   12.59
  -5   6   0  699.43   11.75
  -5  -6   0  732.35   12.61
  -5   6   0  719.00   12.40
   5  -6   0  718.03   12.34
   5  -6   0  718.88   11.76
   5   6   0  721.34   12.54
   5   6   0  712.80   10.68
   5  -6   0  714.05   12.59
   5   6   0  723.79   12.56
  -5  -6   0  726.29   12.57
  -5  -6   0  706.64   12.36
  -5  -6   0  689.31   12.14
  -5   6   0  706.83   12.04
   5  -7   0    5.66    1.12
   5  -7   0    5.96    0.93
   5   7   0    4.35    0.98
  -5   7   0    4.51    1.01
  -5  -7   0    7.12    1.22
  -5  -7   0    5.55    1.04
   5  -7   0    6.39    1.17
   5   7   0    5.33    1.00
   5   7   0    5.49    0.79
  -5  -7   0    5.32    1.00
  -5  -7   0    6.01    1.10
   5  -7   0    6.77    1.16
   5  -8   0  594.37   11.58
  -5  -8   0  585.34   11.43
   5   8   0  618.26   11.55
  -5   8   0  599.66   11.32
   5  -8   0  603.52   11.64
  -5   8   0  606.10   11.67
   5  -8   0  593.88   11.35
  -5  -8   0  610.70   11.58
   5  -8   0  609.90   10.82
  -5  -8   0  611.52   10.98
   5   8   0  617.57   11.53
  -5  -8   0  597.70   11.29
   5  -9   0    9.78    1.43
  -5  -9   0    8.97    1.20
  -5   9   0    8.02    1.36
   5   9   0    7.51    1.29
  -5   9   0    7.22    1.27
  -5  -9   0   10.73    1.43
   5  -9   0    8.05    1.29
  -5  -9   0   10.09    1.41
  -5  -9   0   11.07    1.48
   5  -9   0    8.83    1.35
   5   9   0    9.46    1.43
   5  -9   0    8.32    1.10
  -5 -10   0   19.24    1.90
  -5 -10   0   20.33    1.79
  -5 -10   0   18.35    1.93
   5 -10   0   20.82    1.95
   5 -10   0   23.87    1.89
  -5  10   0   21.71    2.10
   5 -10   0   18.51    1.89
  -5  10   0   19.46    1.96
   5 -10   0   25.14    1.85
   5  10   0   20.06    1.94
   5  10   0   21.48    2.03
  -5 -10   0   17.53    1.82
   5 -10   0   19.50    1.94
   5 -11   0    7.86    1.41
  -5 -11   0    7.68    1.36
   5  11   0    7.83    1.30
   5 -11   0    7.38    1.29
  -5 -11   0    7.96    1.41
  -5  11   0    9.32    1.43
   5  11   0    6.24    1.21
  -5 -11   0    7.95    1.30
  -5  11   0    8.39    1.50
   5 -11   0    8.15    1.21
   5 -11   0    7.92    1.09
  -5 -11   0    7.50    1.16
   5 -11   0    9.04    1.42
   5 -12   0  596.91   11.59
  -5 -12   0  583.08   12.26
  -5 -12   0  584.27   12.13
  -5  12   0  581.12   12.31
  -5 -12   0  605.81   11.54
   5 -12   0  600.95    9.50
  -5  12   0  592.18   12.48
   5  12   0  617.58   12.46
  -5 -12   0  575.32   12.17
   5  12   0  615.70   12.44
   5 -12   0  591.72   12.37
   5 -12   0  607.73   12.51
   5 -12   0  604.16    9.54
   5 -13   0   10.84    1.64
  -5  13   0   10.39    1.69
  -5  13   0   10.72    1.59
   5 -13   0    9.30    1.33
  -5 -13   0   10.65    1.56
  -5 -13   0    9.13    1.45
  -5 -13   0    8.45    1.27
   5 -13   0   10.79    0.95
   5  13   0   12.22    1.70
   5 -13   0   10.87    0.94
   5 -13   0   11.20    1.58
   5  13   0    8.45    1.42
  -5 -13   0   10.96    1.63
   5 -14   0    1.16    0.36
   5 -14   0    1.04    0.32
  -5 -14   0    0.10    0.67
   5 -14   0    0.25    0.72
   5  14   0    1.48    0.94
   5 -14   0   -0.06    0.90
   5  14   0   -0.71    0.97
  -5  14   0    0.18    0.70
  -5 -14   0    1.17    0.94
  -5 -14   0   -0.01    0.60
   5 -14   0    0.16    0.69
  -5 -14   0    0.15    0.70
  -5  14   0   -0.57    0.98
   5  15   0   18.17    2.07
   5 -15   0   13.60    0.73
  -5 -15   0   12.05    1.78
   5 -15   0   14.95    1.82
  -5  15   0   15.98    2.05
  -5 -15   0   14.21    1.63
   5  15   0   19.74    2.24
   5  15   0   14.85    1.92
  -5  15   0   15.99    2.10
   5  16   0  509.59   12.22
   5 -16   0  500.30   11.43
  -5  16   0  498.93   12.03
  -5  16   0  496.46   12.10
   5  16   0  512.15   11.34
   5  16   0  512.39   12.22
  -5 -16   0  507.64   12.15
  -5 -16   0  511.34   11.26
  -5  16   0  507.63   12.71
  -5  16   0  511.14   12.25
   5  17   0    0.96    0.87
  -5  17   0    0.40    0.87
   5  17   0   -1.25    1.14
  -5  17   0   -0.15    0.87
  -5 -17   0    1.14    1.02
  -5  17   0    0.11    0.86
   5  17   0   -1.22    0.95
  -5 -17   0    0.67    0.66
  -5  17   0    0.02    1.03
  -5 -18   0  171.11    6.98
  -5  18   0  164.26    6.78
   5  18   0  165.97    5.86
  -5  18   0  177.18    7.52
  -5 -19   0    3.00    1.30
  -5  19   0    3.43    1.38
  -5  20   0  138.88    7.03
  -5 -20   0  126.54    6.37
  -6   0   0  743.99   11.47
  -6   0   0  747.06   13.07
   6   0   0  760.29   11.87
   6   0   0  770.67   13.56
  -6   0   0  750.83   12.88
   6   0   0  762.08   13.51
   6   0   0  764.98   12.90
   6   0   0  757.11   13.05
   6  -1   0    1.23    0.79
  -6   1   0    1.24    0.73
  -6   1   0    1.89    0.64
  -6   1   0    1.05    0.77
  -6  -1   0    1.95    0.88
   6  -1   0    1.33    0.81
  -6  -1   0    1.05    0.56
   6  -1   0    1.97    0.67
  -6  -1   0    0.50    0.75
   6  -1   0    0.56    0.60
   6   1   0    0.93    0.65
   6  -1   0    0.83    0.55
   6   1   0    1.36    0.55
   6   1   0    1.92    0.81
   6   1   0    1.25    0.64
   6  -2   0    3.37    0.82
   6  -2   0    1.36    0.67
   6  -2   0    0.78    0.81
   6   2   0   -0.86    0.92
  -6  -2   0    0.10    0.77
   6   2   0   -0.11    0.71
  -6   2   0    2.61    0.91
  -6  -2   0    1.39    0.73
   6   2   0    0.78    0.68
  -6   2   0    0.44    0.62
   6  -2   0    2.18    0.77
   6  -2   0    2.88    0.95
  -6   2   0    2.29    0.73
   6   2   0    2.09    0.66
  -6  -3   0   80.52    3.57
   6  -3   0   73.39    3.60
   6  -3   0   74.28    3.45
  -6   3   0   73.64    3.23
   6  -3   0   78.81    3.30
  -6  -3   0   78.21    3.69
  -6   3   0   74.95    3.47
   6   3   0   73.22    2.78
  -6   3   0   71.90    3.03
  -6  -3   0   75.23    3.64
  -6  -3   0   73.36    3.42
   6  -3   0   75.41    3.28
   6   3   0   77.69    3.67
   6   3   0   77.60    3.48
   6  -3   0   74.74    3.64
   6   3   0   73.31    3.59
   6   4   0 1200.15   18.63
   6   4   0 1168.95   18.09
   6  -4   0 1220.62   18.85
   6   4   0 1185.37   16.23
   6  -4   0 1214.89   17.76
  -6   4   0 1195.05   17.33
  -6   4   0 1175.82   17.63
  -6  -4   0 1203.25   18.69
  -6  -4   0 1174.95   18.14
   6   4   0 1211.14   18.63
  -6  -4   0 1203.24   18.69
  -6   4   0 1187.82   18.34
  -6  -4   0 1176.72   18.10
   6  -4   0 1182.02   18.17
  -6   5   0   23.85    2.06
  -6   5   0   23.04    1.85
  -6   5   0   23.05    1.89
   6  -5   0   24.17    1.88
  -6  -5   0   23.42    1.98
   6   5   0   25.36    2.06
  -6  -5   0   24.50    2.08
   6  -5   0   25.87    2.21
   6   5   0   23.89    2.10
   6  -5   0   26.34    2.22
   6   5   0   24.26    2.07
  -6  -5   0   26.84    2.11
  -6  -5   0   24.78    2.11
   6  -5   0   24.29    2.02
   6   5   0   23.76    1.57
   6   6   0  450.76    9.87
  -6  -6   0  439.87    9.59
   6   6   0  448.88    9.85
  -6   6   0  437.49    9.08
   6  -6   0  455.47    9.67
  -6  -6   0  428.37    9.75
  -6  -6   0  438.75    9.50
   6  -6   0  447.21    9.11
  -6  -6   0  438.70    9.83
   6   6   0  451.50    8.06
   6  -6   0  442.82    9.93
  -6   6   0  437.41    9.64
   6   6   0  450.05    9.62
   6  -6   0  451.17    9.99
  -6   6   0  465.35    9.33
   6  -7   0   65.46    3.52
  -6  -7   0   59.31    3.32
  -6  -7   0   58.22    3.31
   6  -7   0   62.87    3.43
  -6  -7   0   60.09    3.32
  -6   7   0   60.91    3.17
   6   7   0   63.86    3.45
   6  -7   0   59.67    3.03
  -6  -7   0   64.74    3.37
   6   7   0   59.56    2.54
   6  -7   0   61.27    3.30
   6   7   0   62.67    3.41
  -6   7   0   59.08    3.29
  -6   8   0  200.95    6.53
   6   8   0  195.62    4.98
   6   8   0  198.71    6.36
   6  -8   0  193.64    6.36
  -6  -8   0  188.71    5.86
  -6  -8   0  187.93    6.23
  -6  -8   0  196.99    6.20
  -6  -8   0  204.77    6.35
  -6   8   0  201.16    6.08
   6  -8   0  209.31    5.95
   6  -8   0  195.68    6.37
  -6  -8   0  194.44    6.32
   6  -8   0  196.62    6.24
   6   8   0  204.03    6.43
   6   9   0    0.26    0.83
   6  -9   0    0.44    0.55
   6  -9   0    0.23    0.74
  -6  -9   0    1.61    0.94
   6   9   0   -0.27    0.81
  -6  -9   0   -0.45    0.90
  -6  -9   0    1.38    0.88
   6  -9   0   -0.07    0.61
   6   9   0   -0.21    0.45
  -6   9   0    0.25    0.99
  -6  -9   0   -0.79    0.67
   6  -9   0   -0.50    0.72
  -6  -9   0    0.25    0.63
  -6   9   0    0.56    0.85
   6 -10   0  604.70   11.37
   6 -10   0  589.37   12.57
   6  10   0  608.84   10.63
  -6 -10   0  600.44   12.47
  -6 -10   0  601.81   12.52
  -6 -10   0  599.43   12.24
   6 -10   0  602.25   12.67
  -6  10   0  578.67   12.52
   6 -10   0  597.95   11.56
   6  10   0  597.27   12.49
   6  10   0  587.13   12.43
  -6 -10   0  598.09   12.49
  -6  10   0  603.03   12.21
  -6 -10   0  610.19   11.90
   6 -11   0   22.46    1.98
  -6  11   0   21.06    2.23
   6  11   0   21.76    2.21
   6  11   0   22.06    2.24
   6 -11   0   19.86    2.14
  -6 -11   0   19.06    2.08
  -6  11   0   21.74    2.16
  -6 -11   0   21.84    2.19
   6 -11   0   22.76    1.86
  -6 -11   0   20.41    1.96
   6 -11   0   21.24    2.23
  -6 -11   0   21.49    2.19
  -6 -11   0   22.48    2.18
   6  12   0   84.48    4.38
  -6 -12   0   80.39    4.24
  -6  12   0   86.70    4.40
  -6 -12   0   86.39    4.47
   6 -12   0   87.59    3.46
   6 -12   0   83.14    4.45
  -6 -12   0   87.44    4.50
   6 -12   0   83.21    4.42
   6 -12   0   90.55    3.48
  -6  12   0   84.65    4.46
   6  12   0   85.20    4.43
  -6 -12   0   89.92    4.14
   6 -12   0   84.88    3.98
  -6  13   0   19.97    2.27
   6 -13   0   21.53    1.61
  -6 -13   0   18.85    2.18
  -6 -13   0   20.06    2.04
   6  13   0   18.60    2.17
   6 -13   0   23.91    1.67
  -6  13   0   20.40    2.28
   6  13   0   19.62    2.24
   6 -13   0   19.62    2.02
  -6 -14   0  585.52   13.06
  -6  14   0  555.18   13.08
   6  14   0  587.00   13.31
   6  14   0  584.37   13.31
  -6 -14   0  576.88   12.27
   6 -14   0  597.58    9.66
  -6  14   0  585.97   13.41
   6 -14   0  581.76   12.37
   6 -14   0  593.42    9.63
  -6  15   0    1.99    1.16
   6 -15   0    2.15    0.82
  -6 -15   0    2.60    1.15
   6  15   0    1.46    0.81
   6  15   0    3.71    1.44
   6 -15   0    2.22    0.52
   6  15   0   -0.13    0.74
  -6  15   0    4.76    1.46
  -6 -15   0    0.07    0.64
   6  16   0  151.47    6.51
  -6 -16   0  152.58    6.51
   6  16   0  151.44    6.25
  -6  16   0  146.14    6.60
  -6  16   0  143.79    6.38
   6  16   0  144.05    6.35
   6  17   0   29.00    2.71
  -6  17   0   26.40    2.89
  -6 -17   0   29.23    2.92
   6  18   0  216.47    7.42
  -6  18   0  212.70    8.45
  -6 -18   0  217.15    8.20
  -6  19   0   -0.15    1.19
  -6 -19   0   -0.67    1.02
   7   0   0   -0.13    0.90
   7   0   0    0.58    0.77
   7   0   0   -0.11    0.64
   7   0   0    0.22    0.58
  -7   0   0    0.79    0.56
  -7   0   0    0.87    0.69
  -7   0   0   -0.15    0.77
   7   0   0    0.12    0.86
   7  -1   0   40.94    2.93
  -7  -1   0   42.06    2.76
   7   1   0   42.57    3.00
   7  -1   0   43.98    2.77
   7   1   0   42.59    2.97
  -7   1   0   43.27    2.88
  -7   1   0   41.89    2.70
  -7  -1   0   42.07    2.21
   7  -1   0   42.96    2.99
   7   1   0   41.84    2.37
   7  -1   0   44.15    2.52
  -7  -1   0   45.01    2.91
  -7   1   0   41.45    2.27
   7  -1   0   44.50    2.88
   7   1   0   42.24    2.80
   7   2   0  949.94   14.35
   7  -2   0  946.32   16.75
  -7   2   0  935.11   16.27
  -7   2   0  955.64   14.69
   7   2   0  958.91   16.76
   7   2   0  939.81   16.15
   7  -2   0  945.19   15.11
   7   2   0  940.57   16.66
  -7   2   0  955.29   15.82
   7  -2   0  957.30   16.78
  -7  -2   0  938.11   15.99
   7  -2   0  949.74   15.80
  -7  -2   0  939.96   16.27
   7  -2   0  952.19   16.15
   7  -3   0   12.98    1.58
  -7   3   0   11.83    1.49
   7   3   0   12.06    1.54
   7  -3   0   12.53    1.42
  -7   3   0   14.58    1.81
   7  -3   0   13.66    1.78
   7   3   0   13.04    1.70
   7   3   0   12.87    1.29
  -7  -3   0   13.67    1.73
   7   3   0   11.76    1.58
  -7   3   0   12.34    1.54
   7  -3   0   14.22    1.86
  -7  -3   0   12.82    1.62
   7  -3   0   12.40    1.58
  -7  -4   0   85.60    4.07
  -7  -4   0   84.64    4.20
  -7   4   0   88.58    4.14
   7  -4   0   91.78    4.19
   7   4   0   93.71    4.39
   7   4   0   84.25    4.03
  -7   4   0   88.00    3.65
  -7   4   0   91.39    3.98
   7  -4   0   89.51    4.32
   7  -4   0   93.07    4.38
   7  -4   0   91.39    3.96
  -7  -4   0   89.36    4.33
   7   4   0   87.27    4.28
   7   4   0   91.59    3.32
  -7  -4   0   86.05    4.05
   7   5   0   42.93    2.87
  -7  -5   0   40.72    2.85
  -7   5   0   41.77    2.90
  -7   5   0   46.13    2.73
  -7  -5   0   42.87    2.98
   7   5   0   39.71    2.90
   7  -5   0   41.77    2.96
  -7  -5   0   42.63    2.96
   7   5   0   40.91    2.99
   7  -5   0   41.59    3.01
   7   5   0   42.82    2.25
   7  -5   0   43.65    3.03
   7  -5   0   43.73    3.04
   7  -5   0   42.92    2.86
   7  -5   0   40.94    2.61
  -7  -5   0   44.91    2.94
  -7   5   0   47.30    2.84
  -7   6   0  460.59   10.54
   7  -6   0  486.95   10.12
  -7  -6   0  459.39   10.73
  -7  -6   0  456.77   10.39
  -7  -6   0  461.36   10.75
  -7   6   0  476.51    9.93
   7  -6   0  465.27   10.86
   7   6   0  478.71    8.72
   7   6   0  469.26   10.81
   7  -6   0  471.38   10.95
  -7  -6   0  458.60   10.38
   7   6   0  461.88   10.74
  -7   6   0  459.67    9.88
   7  -6   0  466.86   10.47
  -7   7   0    7.22    1.31
   7  -7   0    7.05    1.17
   7   7   0    7.39    1.00
  -7  -7   0    5.58    1.15
   7  -7   0    5.86    1.20
   7   7   0    7.41    1.33
  -7  -7   0    7.42    1.38
   7  -7   0    6.62    1.25
  -7   7   0    7.19    1.23
  -7  -7   0    6.91    1.34
  -7   7   0    7.68    1.31
   7   7   0    8.97    1.51
  -7  -7   0    6.72    1.29
   7   8   0  406.49   10.01
  -7  -8   0  389.75    9.94
  -7   8   0  398.44    9.37
   7  -8   0  382.53    9.97
   7  -8   0  386.59    9.07
   7   8   0  397.31    7.96
  -7  -8   0  395.00    9.68
   7  -8   0  392.16   10.10
  -7  -8   0  377.97    9.80
  -7  -8   0  391.28    9.72
   7   8   0  400.56    9.96
   7   9   0   48.31    3.29
   7  -9   0   49.24    2.98
  -7  -9   0   42.64    3.10
   7   9   0   52.76    3.45
  -7  -9   0   48.20    3.22
  -7   9   0   50.35    3.46
  -7  -9   0   46.93    3.28
   7  -9   0   43.77    3.22
   7  -9   0   42.45    3.16
   7   9   0   48.08    2.49
  -7   9   0   48.21    3.08
  -7  -9   0   48.54    3.11
  -7  -9   0   46.43    3.27
   7 -10   0  152.01    5.53
  -7 -10   0  147.64    5.99
   7  10   0  147.61    5.94
  -7  10   0  148.10    5.64
  -7  10   0  146.78    6.07
  -7 -10   0  146.09    5.87
  -7 -10   0  144.84    5.55
   7  10   0  143.36    4.59
   7 -10   0  147.85    5.45
   7  10   0  146.93    5.92
  -7 -10   0  146.85    5.97
  -7 -10   0  138.47    5.67
  -7 -11   0    7.77    1.62
   7 -11   0   10.15    1.56
   7  11   0    9.13    1.53
  -7  11   0    8.79    1.57
  -7 -11   0    9.16    1.69
   7  11   0    9.79    1.26
   7  11   0    6.81    1.34
  -7 -11   0    9.80    1.57
   7 -11   0    8.70    1.41
  -7  11   0    7.82    1.50
  -7 -12   0  512.49   12.20
   7 -12   0  525.22   11.57
   7  12   0  533.94   12.58
  -7 -12   0  531.84   11.73
   7 -12   0  535.35   10.74
   7 -12   0  536.22   10.68
  -7  12   0  521.64   12.17
  -7  12   0  505.99   12.53
   7  12   0  535.26   12.60
   7  12   0  509.90   10.27
  -7 -12   0  526.39   12.56
   7  13   0   12.78    1.53
   7 -13   0   13.84    1.48
  -7 -13   0   13.73    1.98
  -7 -13   0    9.95    1.78
  -7 -13   0   13.08    1.77
   7 -13   0   13.57    1.52
   7  13   0   13.61    2.00
  -7  13   0   12.30    1.93
   7 -13   0   10.91    1.58
   7  13   0   12.83    1.88
  -7  13   0   11.40    1.83
  -7 -14   0   35.13    3.13
   7  14   0   39.66    3.32
   7 -14   0   39.89    2.36
  -7  14   0   41.36    3.45
   7 -14   0   38.49    3.00
   7  14   0   38.13    3.28
  -7 -14   0   42.21    3.36
  -7  14   0   40.45    3.33
  -7 -15   0   24.58    2.72
  -7  15   0   26.86    2.78
  -7 -16   0  316.21   10.01
  -7  16   0  302.19    9.92
  -7 -17   0    1.66    1.05
  -7  17   0    1.81    1.25
  -7  18   0  127.15    6.66
   7  18   0  130.39    6.15
  -7 -18   0  124.92    6.45
   8   0   0  916.85   17.14
  -8   0   0  882.05   15.94
   8   0   0  891.87   16.95
  -8   0   0  892.51   16.45
  -8   0   0  885.82   14.16
   8   0   0  869.09   14.52
  -8  -1   0   64.55    3.80
  -8   1   0   67.64    3.12
  -8   1   0   67.17    3.90
   8  -1   0   70.35    4.12
   8   1   0   71.31    4.13
   8  -1   0   69.40    3.34
  -8  -1   0   65.77    3.69
  -8   1   0   67.31    3.69
   8  -1   0   66.74    3.73
   8   1   0   68.04    4.03
   8   1   0   67.40    3.14
   8  -1   0   74.77    4.23
  -8   2   0   68.30    3.20
   8  -2   0   67.79    3.36
  -8   2   0   71.47    4.02
   8   2   0   68.51    4.06
  -8  -2   0   70.30    3.84
   8   2   0   66.59    3.09
   8   2   0   70.79    4.09
   8  -2   0   68.94    4.06
  -8   2   0   72.89    3.79
  -8  -2   0   73.19    4.03
   8  -2   0   71.07    3.79
   8  -2   0   71.53    4.12
  -8   3   0   60.29    3.10
   8  -3   0   56.84    3.37
   8  -3   0   56.36    3.71
  -8   3   0   59.19    3.43
  -8   3   0   53.86    3.50
   8   3   0   55.03    3.64
  -8  -3   0   58.67    3.56
  -8  -3   0   55.07    3.48
   8   3   0   59.55    2.86
   8  -3   0   55.99    3.72
   8   3   0   55.14    3.63
   8  -4   0  449.12   10.23
  -8  -4   0  430.80   10.47
  -8   4   0  438.86   10.64
  -8  -4   0  436.47   10.55
   8   4   0  438.65   10.90
   8  -4   0  428.21   11.00
   8   4   0  447.71    8.78
  -8   4   0  441.69   10.18
   8   4   0  441.27   10.97
  -8   4   0  447.50    9.50
   8  -4   0  437.80   11.09
   8   5   0   -0.29    0.58
   8  -5   0    1.14    0.84
   8  -5   0   -0.90    1.03
   8   5   0    0.69    0.82
   8  -5   0   -1.26    1.05
  -8   5   0   -0.75    0.66
  -8   5   0    0.14    0.72
   8  -5   0    0.98    0.67
  -8  -5   0   -1.04    1.06
  -8  -5   0   -0.88    0.97
  -8  -5   0    0.80    0.72
   8  -5   0   -0.02    0.87
   8   5   0    1.21    0.83
  -8   5   0   -0.73    0.90
   8   6   0  302.46    8.94
   8  -6   0  307.55    9.08
  -8  -6   0  307.09    9.03
  -8  -6   0  304.65    8.68
  -8  -6   0  298.62    8.90
   8   6   0  299.03    6.90
  -8   6   0  308.38    8.81
  -8   6   0  309.56    7.96
   8  -6   0  308.17    9.07
   8  -6   0  307.52    8.25
   8   6   0  304.04    8.94
  -8   6   0  295.46    8.09
  -8  -6   0  302.74    8.69
  -8   7   0   44.88    2.92
   8  -7   0   46.33    3.39
   8   7   0   49.04    2.58
  -8  -7   0   42.24    3.15
   8  -7   0   45.21    3.39
  -8  -7   0   43.49    3.20
  -8   7   0   45.54    3.03
   8  -7   0   44.55    3.01
  -8   7   0   48.69    3.40
   8   7   0   42.63    3.25
   8   7   0   46.89    3.41
   8   8   0  255.13    8.23
   8   8   0  252.37    8.20
   8   8   0  244.07    6.21
  -8  -8   0  252.48    7.93
  -8   8   0  255.02    7.49
  -8  -8   0  243.13    7.84
   8  -8   0  254.90    7.50
   8  -9   0    3.01    1.43
  -8  -9   0    0.01    0.78
  -8   9   0   -0.81    0.86
  -8  -9   0    0.57    0.92
   8  -9   0   -1.33    0.88
  -8  -9   0    0.98    0.96
   8   9   0   -0.09    0.83
   8   9   0   -0.65    1.06
  -8   9   0    1.05    0.97
   8   9   0    0.70    0.56
  -8  10   0  402.58   10.18
   8 -10   0  378.37    9.90
   8  10   0  402.38   10.86
  -8  10   0  391.12   10.93
  -8 -10   0  382.92   10.35
   8  10   0  372.44    8.33
  -8 -10   0  387.58   10.51
   8 -10   0  378.99    9.69
   8  10   0  396.62   10.78
  -8 -11   0   31.67    2.90
  -8 -11   0   30.78    2.95
   8  11   0   26.66    2.75
  -8  11   0   26.89    2.79
   8 -11   0   32.93    2.70
   8  11   0   27.90    2.82
   8 -11   0   31.38    2.62
  -8  11   0   30.51    2.79
  -8  12   0   -0.49    0.87
  -8 -12   0    3.02    1.28
  -8 -12   0    0.98    1.00
   8 -12   0    0.81    0.73
   8 -12   0    0.91    0.82
  -8  13   0   16.30    2.26
   8 -13   0   17.44    1.87
  -8 -13   0   16.51    2.28
  -8  14   0  287.35    9.46
  -8 -14   0  304.85    9.77
  -8 -15   0    7.17    1.79
  -8  15   0    5.46    1.57
  -8 -16   0   33.45    3.30
  -8  16   0   43.35    3.81
  -8  17   0   19.78    2.75
  -9   0   0    0.71    0.74
  -9   0   0   -0.82    0.95
  -9   0   0   -0.77    0.94
   9   0   0    0.49    0.61
   9   0   0   -0.57    1.08
   9   0   0   -0.08    0.90
  -9   1   0   52.70    2.92
   9  -1   0   51.79    3.02
   9   1   0   53.81    2.96
   9  -1   0   56.80    3.95
   9   1   0   54.45    3.91
  -9  -1   0   53.07    3.72
  -9   1   0   56.33    3.64
  -9  -1   0   55.27    3.64
   9  -1   0   54.76    3.92
   9   1   0   53.77    3.88
  -9   1   0   56.11    3.84
  -9   2   0  576.59   13.25
   9   2   0  548.70   13.44
   9  -2   0  571.76   13.64
  -9   2   0  563.48   11.09
   9   2   0  585.93   13.77
   9   2   0  571.85   10.98
  -9   2   0  564.67   12.61
  -9  -2   0  575.97   12.92
  -9  -2   0  562.51   13.10
   9  -2   0  590.29   13.81
   9  -2   0  572.91   12.70
  -9  -3   0   35.63    3.01
  -9   3   0   38.70    2.55
  -9   3   0   40.72    3.05
   9   3   0   34.67    3.15
   9  -3   0   35.64    3.14
   9  -3   0   37.61    3.25
  -9  -3   0   37.85    3.06
   9   3   0   36.82    3.21
  -9   3   0   38.88    3.26
   9   3   0   36.74    2.38
   9  -3   0   40.34    3.02
   9   4   0  145.00    4.76
  -9   4   0  135.24    5.04
   9  -4   0  145.27    5.81
  -9   4   0  140.18    6.06
   9   4   0  147.61    6.39
   9   4   0  148.04    6.41
  -9   4   0  141.94    5.73
  -9  -4   0  131.77    5.87
  -9  -4   0  136.59    5.89
   9  -4   0  129.42    6.08
   9  -4   0  139.57    6.31
   9   5   0   52.36    2.78
  -9   5   0   48.84    3.28
   9  -5   0   51.69    3.79
   9  -5   0   53.10    3.85
   9   5   0   43.99    3.51
   9  -5   0   45.81    3.24
   9   5   0   52.39    3.85
  -9   5   0   46.83    3.52
  -9  -5   0   45.29    3.43
  -9   5   0   46.40    2.98
  -9  -5   0   46.97    3.46
   9   6   0  278.98    9.10
  -9   6   0  277.36    8.78
   9  -6   0  275.26    9.14
  -9  -6   0  271.61    8.62
  -9   6   0  266.66    8.09
   9  -6   0  280.37    8.31
   9  -6   0  279.85    9.20
  -9   6   0  268.19    7.63
   9   6   0  279.78    9.10
  -9  -6   0  264.29    8.59
   9   7   0   10.69    1.89
   9   7   0    9.43    1.66
  -9  -7   0   15.20    2.12
   9  -7   0    9.54    1.62
   9  -7   0    9.66    1.84
  -9   7   0   11.29    1.81
  -9   7   0    9.19    1.50
   9  -7   0   11.34    1.92
  -9   7   0   13.93    1.91
  -9  -7   0    8.47    1.50
  -9   8   0  246.25    7.58
   9  -8   0  239.53    7.69
  -9  -8   0  241.66    8.30
   9   8   0  249.76    8.69
  -9  -8   0  253.56    8.47
   9   8   0  246.39    8.63
   9  -8   0  241.74    8.41
  -9  -9   0   30.69    2.94
  -9  -9   0   28.18    2.78
   9  -9   0   34.17    3.08
  -9   9   0   26.96    2.56
  -9  10   0   27.92    2.66
   9 -10   0   28.14    2.74
  -9 -10   0   30.94    3.02
  -9 -11   0    9.34    1.84
  -9  11   0    8.13    1.71
   9 -11   0   10.22    1.64
   9 -12   0  280.41    8.45
  -9  12   0  283.38    9.11
  -9 -12   0  288.91    9.63
  -9  13   0   20.67    2.46
  -9 -13   0   25.32    2.86
  -9 -14   0    4.93    1.44
  -9  14   0    2.15    1.03
  -9  15   0   23.97    2.81
 -10   0   0  417.93   11.26
 -10   0   0  438.28   11.93
 -10   1   0   20.97    2.42
 -10  -1   0   19.48    2.41
 -10   1   0   23.13    2.69
 -10   1   0   27.13    2.23
 -10  -1   0   24.25    2.83
 -10   2   0   39.78    3.43
 -10  -2   0   38.18    3.24
 -10   2   0   38.03    3.16
 -10  -2   0   35.63    3.26
 -10   2   0   45.21    2.87
 -10   3   0   40.06    2.76
 -10   3   0   43.45    3.35
 -10  -3   0   47.48    3.73
 -10   3   0   43.83    3.58
 -10  -3   0   46.92    3.66
 -10  -4   0  297.93    9.56
 -10   4   0  299.39    8.05
 -10   4   0  279.91    8.91
 -10   4   0  293.34    9.60
 -10  -4   0  308.30    9.75
 -10   5   0    9.48    1.78
 -10   5   0    9.62    1.44
 -10  -5   0    9.99    1.78
 -10   5   0    7.22    1.54
 -10  -5   0    7.35    1.64
 -10   6   0   84.38    4.70
 -10  -6   0   86.97    5.03
 -10   6   0   88.42    4.38
 -10   6   0   92.93    5.21
 -10  -6   0   96.44    5.38
 -10  -7   0   55.79    4.09
 -10   7   0   51.47    3.68
 -10   7   0   57.62    3.57
 -10   7   0   60.07    4.28
 -10   8   0  118.96    5.37
 -10  -8   0  115.49    5.96
 -10   9   0    4.63    1.29
 -10  -9   0    4.76    1.42
 -10 -10   0  297.42   10.00
 -10  10   0  287.63    9.02
 -10  11   0   35.20    3.18
 -10 -11   0   33.78    3.40
 -10  12   0    3.04    1.27
 -10  13   0   11.53    2.11
 -10  14   0  232.82    8.83
 -11   0   0    1.48    1.10
 -11   1   0   23.41    2.86
 -11  -1   0   26.69    3.12
 -11   2   0  251.34    8.89
 -11  -2   0  268.91    9.69
 -11   2   0  259.48    9.56
 -11   3   0    8.32    1.56
 -11   3   0    9.02    1.89
 -11  -3   0    7.45    1.79
 -11   4   0   53.54    3.98
 -11  -4   0   57.53    4.39
 -11   4   0   54.42    4.24
 -11   5   0   47.97    3.97
 -11  -5   0   51.29    4.20
 -11   6   0  150.54    7.16
 -11  -6   0  149.90    7.19
 -11  -7   0   -0.56    1.21
 -11   7   0    2.01    1.34
   0  -2  -1    0.90    0.22
   0   2   1    0.54    0.20
   0   2   1    1.22    0.24
   0   2  -1    1.06    0.25
   0   2   1    1.01    0.31
   0  -2  -1    1.20    0.30
   0  -2  -1    1.17    0.41
   0  -2   1    1.06    0.25
   0   2  -1    1.11    0.25
   0   2   1    1.87    0.44
   0  -2  -1    1.20    0.24
   0  -2   1    1.08    0.25
   0  -2  -1    1.03    0.31
   0   3   1 1313.83   14.82
   0   3  -1 1335.38   14.94
   0  -3  -1 1291.58   14.77
   0   3  -1 1317.68   14.16
   0  -3  -1 1218.84   15.34
   0  -3   1 1329.26   14.94
   0  -3   1 1324.46   14.93
   0   3   1 1174.63   15.43
   0  -3  -1 1294.02   14.74
   0   3   1 1323.97   15.28
   0  -3  -1 1310.76   15.26
   0  -3  -1 1287.89   14.77
   0   3  -1 1335.87   14.94
   0   3   1 1307.41   14.81
   0   4   1    0.11    0.57
   0  -4  -1    0.21    0.35
   0   4  -1    0.39    0.38
   0  -4  -1    0.17    0.29
   0  -4  -1    0.30    0.30
   0   4  -1    0.01    0.24
   0   4   1   -0.07    0.34
   0   4   1    0.12    0.42
   0  -4   1    0.51    0.25
   0   4   1    0.31    0.38
   0  -4  -1    0.31    0.32
   0  -4  -1    0.63    0.46
   0  -4   1    0.29    0.37
   0   4  -1    0.02    0.36
   0  -4   1    0.43    0.38
   0  -5   1  245.69    4.24
   0   5   1  236.53    4.14
   0   5  -1  212.25    3.44
   0  -5  -1  215.30    3.44
   0   5   1  235.02    4.13
   0   5  -1  215.06    4.05
   0  -5  -1  212.33    3.97
   0  -5  -1  215.28    3.98
   0  -5   1  233.81    3.59
   0  -5  -1  219.72    3.44
   0   5   1  234.89    4.35
   0  -5   1  236.16    4.18
   0   5   1  246.99    4.65
   0  -5  -1  208.26    4.17
   0   5  -1  215.46    4.05
   0  -6  -1    0.58    0.43
   0   6   1    0.58    0.48
   0  -6  -1    0.61    0.41
   0  -6  -1    0.41    0.25
   0  -6   1    0.44    0.33
   0  -6  -1    0.12    0.40
   0   6  -1    0.19    0.27
   0  -6   1    0.54    0.47
   0   6   1    1.29    0.56
   0   6   1    0.67    0.48
   0   6  -1    0.32    0.43
   0  -6  -1   -0.19    0.27
   0   6  -1    0.09    0.45
   0  -6   1    1.64    0.58
   0  -7  -1 1869.30   21.19
   0  -7  -1 1910.64   22.80
   0  -7   1 1896.45   22.89
   0  -7   1 1880.98   21.92
   0   7   1 1906.16   23.03
   0  -7   1 1897.30   22.88
   0   7  -1 1924.21   22.96
   0   7  -1 1921.54   22.96
   0   7  -1 1884.18   21.84
   0  -7  -1 1926.69   22.82
   0   7   1 1896.08   22.79
   0   7   1 1889.68   22.79
   0  -7  -1 1899.14   23.06
   0  -7  -1 1867.05   21.17
   0   8   1    0.60    0.49
   0  -8  -1    0.23    0.41
   0  -8  -1    0.44    0.43
   0  -8  -1    0.42    0.32
   0  -8   1    0.40    0.48
   0   8   1   -0.50    0.49
   0  -8   1    1.54    0.59
   0   8  -1    0.63    0.51
   0  -8   1    0.62    0.38
   0   8   1    0.42    0.52
   0  -8  -1    0.09    0.42
   0   8  -1    0.26    0.50
   0   8  -1    0.37    0.33
   0   9   1  334.41    6.47
   0   9  -1  316.31    6.42
   0  -9  -1  315.56    6.32
   0  -9  -1  318.74    6.34
   0  -9   1  328.72    6.51
   0   9   1  340.53    6.52
   0  -9  -1  312.76    6.41
   0  -9   1  336.67    5.83
   0   9  -1  322.04    5.67
   0  -9   1  332.91    6.54
   0   9   1  321.60    6.43
   0   9  -1  316.16    6.42
   0  10   1    0.04    0.45
   0 -10  -1    0.89    0.61
   0  10  -1    1.03    0.65
   0  10  -1   -0.03    0.39
   0  10   1    0.55    0.53
   0  10  -1    0.32    0.54
   0 -10   1    0.45    0.54
   0  10   1   -0.08    0.42
   0 -10  -1   -0.56    0.55
   0 -10   1    1.07    0.65
   0 -10   1    0.97    0.49
   0 -10  -1    0.07    0.51
   0 -11   1 1006.81   14.19
   0  11  -1 1070.48   15.42
   0 -11  -1 1039.51   15.26
   0  11   1 1026.83   15.23
   0  11   1 1011.74   15.18
   0 -11  -1 1052.04   15.30
   0 -11  -1 1041.00   15.29
   0  11   1  975.31   14.97
   0 -11   1  999.96   15.21
   0 -11   1 1005.92   15.24
   0  11  -1 1083.42   15.47
   0  11  -1 1065.98   14.24
   0 -12   1    1.10    0.58
   0  12   1    0.73    0.61
   0 -12  -1   -0.19    0.58
   0 -12   1    0.02    0.54
   0 -12  -1    0.15    0.58
   0  12  -1    0.11    0.45
   0 -12   1    0.11    0.61
   0  12  -1    0.19    0.53
   0  12   1    0.46    0.61
   0  12   1   -0.31    0.56
   0 -12  -1    0.42    0.57
   0  12  -1    0.88    0.65
   0 -13   1  457.16    8.44
   0  13  -1  462.39    8.37
   0  13   1  461.22    9.32
   0 -13  -1  476.89    9.39
   0  13   1  464.13    9.32
   0  13  -1  487.63    9.57
   0  13   1  436.97    9.00
   0 -13   1  443.40    9.28
   0  13  -1  485.66    9.55
   0 -13  -1  467.63    9.33
   0 -13  -1  464.47    9.29
   0  13  -1  447.61    5.57
   0 -13   1  451.69    9.34
   0 -14   1    0.17    0.65
   0  14   1    0.73    0.70
   0 -14   1    0.61    0.61
   0 -14  -1    1.13    0.77
   0 -14  -1    0.63    0.69
   0 -14  -1    0.43    0.59
   0  14  -1   -0.52    0.69
   0  14  -1    0.37    0.80
   0  14   1   -0.37    0.67
   0 -14   1    0.45    0.46
   0  14  -1    0.30    0.51
   0  14   1    0.15    0.65
   0 -15   1  214.89    6.44
   0 -15  -1  196.42    6.03
   0 -15   1  214.19    6.44
   0  15  -1  197.91    6.18
   0  15   1  207.86    6.25
   0  15   1  209.45    6.10
   0 -15   1  213.00    5.65
   0  15   1  208.25    6.25
   0  15  -1  191.74    5.28
   0 -15  -1  193.55    6.07
   0  15  -1  200.71    6.22
   0 -15  -1  196.41    6.11
   0 -16  -1    1.53    0.78
   0 -16  -1   -0.15    0.68
   0  16   1   -0.05    0.74
   0 -16   1   -0.56    0.52
   0  16  -1   -0.84    0.65
   0  16  -1   -0.91    0.78
   0 -16   1   -0.18    0.62
   0  16   1    1.04    0.79
   0  16   1    0.53    0.78
   0  16  -1   -0.18    0.72
   0 -16   1    0.42    0.68
   0 -16  -1    0.77    0.74
   0 -17  -1  521.10   11.51
   0  17   1  538.46   11.63
   0 -17   1  517.26   11.58
   0 -17   1  535.12   11.71
   0 -17  -1  522.76   11.34
   0  17   1  543.59   11.68
   0  17   1  539.30   11.29
   0  17  -1  518.88   11.57
   0  17  -1  526.28   11.62
   0 -17   1  526.72   10.59
   0  17  -1  516.97   10.27
   0 -17  -1  521.12   11.53
   0  18  -1    0.10    0.75
   0 -18   1    0.47    0.71
   0  18   1   -0.23    0.64
   0  18   1    0.63    0.92
   0  18  -1    0.29    0.60
   0  18  -1    0.64    1.00
   0 -18  -1   -0.70    0.72
   0  18   1   -0.37    0.75
   0  19  -1    0.75    0.66
   0  19   1    0.19    0.78
   0  19  -1    1.37    0.80
   0  19   1    1.07    0.91
   0  19  -1    0.51    0.62
   0 -19   1    0.08    0.60
   0  19   1    1.58    1.04
   0  20   1   -1.32    0.85
   0 -20   1   -0.65    0.77
   0  20   1    0.48    0.98
   0  20  -1   -0.69    0.85
   0  20   1    0.05    1.15
   0  20  -1    0.56    0.90
   0  20  -1    0.00    0.71
   0  20   1   -0.28    0.75
   0  21  -1  444.33   10.51
   0  21   1  470.13   13.13
   0  21   1  467.54   11.55
   0  22  -1   -0.02    0.63
   0  22   1    0.95    1.26
   0  23   1   74.70    5.33
   0  23  -1   64.94    3.90
  -1   0   1    0.81    0.33
   1   0   1    0.37    0.27
   1   0  -1    0.77    0.41
  -1   0   1    0.57    0.29
   1   0   1    0.53    0.28
   1   0   1    0.95    0.22
  -1   0   1    1.08    0.33
   1   0   1    1.33    0.24
  -1   0   1    0.79    0.36
  -1   0  -1    1.04    0.38
  -1   0   1    1.05    0.46
   1   0  -1    1.38    0.36
  -1   0   1    1.05    0.26
   1   0  -1    0.85    0.37
   1   0  -1    1.43    0.36
  -1   0  -1    0.98    0.36
   1   0  -1    0.99    0.32
  -1   1   1 1590.16   18.37
   1   1   1 1589.98   18.22
  -1  -1  -1 1599.69   17.52
   1  -1   1 1587.35   17.52
  -1  -1  -1 1604.90   18.25
  -1  -1   1 1610.62   18.14
   1   1  -1 1600.00   18.12
  -1  -1   1 1594.22   18.50
   1  -1   1 1592.70   18.09
  -1   1   1 1621.11   17.93
  -1  -1  -1 1649.21   17.55
   1   1  -1 1608.49   18.35
   1   1  -1 1542.49   18.48
   1  -1  -1 1635.80   17.94
  -1   1   1 1592.62   18.42
   1  -1  -1 1619.17   18.37
   1  -1   1 1629.70   18.09
  -1   1  -1 1654.53   18.14
   1  -1  -1 1604.89   18.48
   1  -1   1 1580.35   17.52
  -1  -1  -1 1649.50   18.28
   1   1   1 1670.64   17.47
  -1  -1   1 1553.97   18.34
  -1   1   1 1610.49   18.57
   1   1  -1 1597.55   18.13
  -1  -1   1 1581.77   18.29
   1   1   1 1632.13   18.27
  -1   1  -1 1677.72   18.18
   1   1  -1 1583.59   18.32
   1  -1  -1 1592.76   18.56
  -1  -1   1 1548.76   18.07
   1   1   1 1664.07   17.46
   1   2   1   47.68    1.20
  -1  -2   1   47.12    1.45
  -1  -2   1   45.17    1.51
   1  -2  -1   49.43    1.48
   1   2   1   48.31    1.21
  -1  -2   1   47.42    1.45
   1   2  -1   53.17    1.64
   1  -2  -1   53.16    1.79
   1  -2   1   46.20    1.25
   1   2  -1   50.30    1.48
   1  -2   1   45.46    1.34
   1  -2  -1   48.77    1.45
  -1   2   1   47.60    1.45
   1  -2   1   46.27    1.25
  -1  -2  -1   51.69    1.26
   1  -2   1   44.90    1.33
  -1   2  -1   51.99    1.41
  -1  -2  -1   47.95    1.50
  -1  -2  -1   50.42    1.53
   1  -2  -1   51.54    1.62
  -1  -2  -1   51.22    1.55
   1   2  -1   52.09    1.50
  -1   2   1   48.79    1.58
  -1   2   1   46.98    1.55
   1   2   1   47.25    1.46
  -1   2   1   47.30    1.73
   1   2  -1   51.95    1.58
   1   2   1   49.91    1.15
  -1  -2   1   48.29    1.58
   1  -2  -1   48.91    1.46
  -1   2  -1   50.64    1.38
  -1   2  -1   48.40    1.28
  -1  -2  -1   50.49    1.25
   1   2   1   47.83    1.46
  -1   2  -1   50.56    1.31
   1  -2  -1   49.28    1.60
  -1  -3  -1  371.46    5.41
  -1  -3  -1  375.09    5.11
  -1  -3   1  343.32    4.34
  -1   3   1  337.11    5.89
   1  -3  -1  374.55    5.67
  -1  -3   1  342.60    5.35
  -1  -3  -1  372.04    5.42
  -1   3   1  335.20    5.28
  -1   3  -1  389.03    5.26
   1  -3  -1  379.77    5.56
  -1   3   1  342.70    5.42
   1  -3  -1  375.09    5.40
   1   3  -1  373.78    5.48
   1  -3   1  337.86    5.08
   1   3  -1  376.90    5.49
   1  -3   1  332.70    4.91
   1   3   1  349.63    5.22
  -1   3  -1  381.19    5.05
   1   3   1  343.98    5.23
  -1   3  -1  387.00    5.25
  -1  -3   1  339.19    5.46
   1   3   1  349.46    5.49
  -1  -3  -1  374.13    5.11
   1   3   1  341.87    4.98
  -1  -3  -1  371.34    5.58
  -1   3   1  331.90    5.28
   1  -3   1  339.30    5.08
   1  -3  -1  375.46    5.41
  -1  -3   1  338.42    5.33
   1  -3  -1  381.40    6.14
   1   3   1  341.16    4.97
   1   3   1  341.17    4.97
   1  -3  -1  395.40    5.69
  -1   3  -1  385.54    5.07
   1  -4   1   91.84    2.26
  -1   4   1   88.30    2.31
   1  -4  -1   91.67    2.76
  -1  -4  -1   97.90    2.24
  -1  -4   1   87.43    2.34
  -1   4   1   91.49    2.34
  -1   4  -1   93.88    2.29
   1   4   1   90.57    2.17
  -1  -4  -1   94.24    2.47
   1   4   1   92.10    2.43
   1  -4  -1   92.50    2.45
   1  -4   1   90.88    2.26
   1  -4  -1   92.15    2.45
  -1  -4   1   91.43    1.67
   1   4   1   90.52    2.17
  -1   4   1   87.97    2.41
  -1  -4  -1   94.78    2.29
  -1   4  -1   95.68    1.94
  -1  -4   1   90.89    2.41
  -1  -4   1   87.00    2.33
   1   4   1   89.43    2.16
   1  -4  -1   95.22    2.35
   1  -4   1   91.01    1.88
  -1   4   1   94.66    2.82
   1  -4  -1   92.16    2.33
  -1   4  -1   92.09    1.91
  -1  -4  -1   94.27    2.27
   1   4   1   92.84    2.20
   1   4  -1   93.56    2.40
  -1   4  -1   91.83    2.27
   1   4  -1   95.42    2.42
  -1  -4  -1   94.44    2.21
   1  -5  -1 1018.96   13.25
  -1   5   1 1062.37   13.35
  -1  -5   1 1024.82   13.34
  -1  -5  -1 1044.16   13.04
   1   5   1 1063.42   13.06
  -1   5   1 1075.76   14.27
   1   5  -1 1030.31   13.38
  -1   5  -1 1043.91   12.86
   1   5  -1 1040.82   12.14
  -1   5  -1 1038.76   12.10
  -1  -5  -1 1040.12   13.41
   1   5   1 1039.35   13.44
  -1   5   1 1059.33   13.54
   1   5   1 1064.28   13.06
  -1   5   1 1060.65   13.34
   1  -5  -1 1048.08   13.52
   1   5   1 1032.88   12.74
   1  -5   1 1061.97   13.21
  -1  -5  -1 1000.84   12.86
  -1   5  -1 1056.95   13.21
  -1  -5   1 1064.73   12.13
  -1   5  -1 1056.31   13.21
   1   5   1 1037.19   12.76
   1   5  -1 1045.36   13.40
   1  -5  -1 1020.29   13.25
  -1   5  -1 1040.22   12.11
   1  -5   1 1061.77   13.20
  -1  -5  -1 1047.03   13.05
  -1  -5   1 1026.87   13.36
  -1   6  -1   50.00    1.28
  -1  -6   1   52.04    2.00
   1  -6  -1   48.48    1.90
   1  -6  -1   50.53    1.98
  -1   6  -1   48.84    1.89
  -1   6  -1   51.62    1.73
   1   6   1   55.83    2.05
  -1  -6   1   49.42    1.95
   1   6   1   52.08    1.64
   1   6   1   51.45    1.86
  -1  -6  -1   50.36    1.84
  -1   6   1   52.18    1.95
  -1   6  -1   48.29    1.88
   1   6   1   53.55    1.89
   1   6  -1   48.54    1.44
   1   6  -1   52.41    1.98
  -1   6  -1   49.42    1.29
  -1   6   1   53.79    2.06
  -1   6   1   52.23    1.95
   1  -6  -1   49.71    1.92
   1   6  -1   51.69    1.96
  -1  -6   1   53.87    1.50
   1  -6   1   51.80    1.92
  -1  -6  -1   51.09    1.85
   1   6   1   49.69    1.62
   1  -6   1   52.48    1.94
  -1   6   1   55.58    2.36
  -1  -6  -1   46.68    1.89
  -1   7  -1   88.69    2.76
  -1   7  -1   88.59    2.77
   1   7  -1   85.99    2.77
   1   7  -1   83.96    2.75
  -1   7   1   89.84    2.84
   1  -7  -1   83.33    2.69
  -1  -7   1   84.76    2.77
   1  -7  -1   85.72    2.78
   1  -7   1   84.30    2.69
  -1   7   1   90.69    2.81
   1  -7  -1   87.28    1.74
  -1  -7  -1   88.83    2.79
  -1   7  -1   88.51    1.76
   1   7   1   85.63    2.75
  -1  -7  -1   87.34    2.67
   1   7   1   89.09    2.69
   1   7   1   87.57    2.23
  -1  -7  -1   90.07    2.70
  -1  -7   1   86.16    2.78
   1   7   1   89.34    2.69
   1  -7  -1   85.48    2.72
  -1   7   1   94.79    3.24
   1  -7   1   86.95    2.72
  -1  -7   1   89.44    2.21
  -1   7  -1   90.45    2.50
   1   7   1   87.54    2.23
   1   7  -1   85.04    2.15
  -1   7   1   85.01    2.73
  -1   7  -1   88.20    1.75
   1   8   1   31.58    1.69
  -1   8   1   33.97    1.99
  -1   8   1   32.36    1.76
  -1  -8  -1   32.86    1.74
  -1   8  -1   37.30    1.64
   1  -8  -1   36.25    1.82
   1   8  -1   33.40    1.39
  -1   8   1   33.37    1.77
   1   8  -1   35.48    1.84
   1  -8  -1   32.61    1.72
   1   8   1   33.78    1.34
   1  -8  -1   37.59    1.93
   1  -8   1   33.73    1.80
  -1  -8   1   32.03    1.77
   1   8   1   31.64    1.69
  -1   8  -1   33.71    0.98
   1  -8   1   33.16    1.76
   1  -8  -1   34.89    1.00
   1  -8  -1   33.71    0.98
  -1   8  -1   33.64    0.97
  -1   8  -1   33.47    1.76
  -1   8  -1   34.62    1.80
  -1  -8   1   31.90    1.38
   1   8   1   33.25    1.76
  -1   8   1   32.94    1.78
  -1  -8  -1   33.73    1.75
  -1  -8   1   33.21    1.80
   1   8  -1   34.96    1.83
  -1  -8  -1   34.29    1.75
   1   8   1   32.25    1.30
  -1   9   1 1558.95   20.23
  -1  -9  -1 1581.71   20.15
  -1  -9   1 1549.46   20.27
  -1  -9  -1 1558.92   20.02
  -1  -9   1 1582.82   18.96
   1  -9  -1 1531.50   17.13
   1  -9  -1 1535.20   20.31
   1  -9  -1 1509.81   20.07
   1  -9  -1 1522.33   20.09
  -1   9  -1 1532.06   19.35
  -1  -9   1 1549.19   20.26
   1   9   1 1608.24   20.10
   1  -9   1 1574.42   20.23
   1   9   1 1534.97   20.13
   1  -9   1 1524.80   19.48
  -1   9   1 1558.83   20.28
   1   9  -1 1542.16   20.24
  -1   9   1 1566.04   20.24
  -1   9  -1 1516.11   17.10
  -1   9  -1 1490.25   17.08
  -1   9  -1 1547.19   20.19
  -1   9   1 1528.85   21.10
   1   9   1 1574.57   18.30
   1  -9  -1 1583.24   17.18
  -1   9  -1 1546.63   20.20
  -1  -9  -1 1546.67   19.98
   1  -9   1 1576.60   20.23
   1   9   1 1587.27   18.31
   1   9  -1 1552.97   18.81
   1   9  -1 1563.94   20.30
   1   9   1 1602.85   20.10
   1 -10  -1   19.72    1.53
  -1  10   1   19.38    1.76
  -1 -10  -1   17.22    1.40
  -1  10  -1   19.17    1.51
  -1  10   1   21.49    1.61
   1 -10  -1   11.90    0.55
  -1  10  -1   17.22    0.61
  -1 -10  -1   19.94    1.52
   1  10  -1   18.70    1.22
   1 -10  -1   18.34    1.49
   1  10  -1   17.77    1.48
   1 -10   1   17.35    1.47
  -1 -10  -1   19.31    1.45
  -1 -10   1   20.98    1.27
   1 -10   1   18.70    1.54
  -1  10  -1   16.67    0.61
   1  10   1   17.91    0.99
  -1  10  -1   17.48    1.29
   1 -10  -1   17.71    1.50
   1  10   1   18.72    1.03
   1 -10   1   19.40    1.36
   1  10  -1   19.45    1.54
  -1 -10   1   18.83    1.52
  -1  10   1   19.99    1.53
   1  10   1   19.55    1.48
  -1 -10   1   19.60    1.54
  -1  10   1   20.99    1.58
  -1  10  -1   18.67    1.50
   1  10   1   20.47    1.51
   1  10   1   18.29    1.46
  -1 -11   1  539.35    8.62
   1 -11  -1  530.85    9.66
  -1  11   1  530.80   10.32
   1  11  -1  520.28    8.46
  -1 -11  -1  522.78    9.50
  -1 -11  -1  525.54    9.51
  -1 -11   1  521.79    9.63
   1  11   1  516.83    9.38
   1  11  -1  513.05    9.61
  -1 -11   1  522.24    9.63
   1  11   1  518.88    7.47
  -1  11  -1  529.05    9.62
   1 -11  -1  526.62    9.59
  -1  11   1  535.82    9.65
   1 -11  -1  522.02    9.57
   1  11  -1  524.87    9.68
   1 -11   1  531.63    9.64
  -1 -11  -1  529.52    9.53
   1 -11   1  526.68    9.01
   1  11   1  533.27    7.50
   1  11   1  517.63    9.47
   1  11   1  519.19    9.49
  -1  11  -1  528.42    8.86
  -1  11   1  539.87    9.67
   1 -11   1  526.35    9.60
  -1  11   1  525.07    9.57
  -1  11  -1  539.30    9.70
   1  12   1    9.88    1.20
   1 -12  -1    8.83    1.15
  -1 -12  -1    9.09    1.24
   1  12   1    8.40    0.70
  -1  12  -1    9.00    1.24
   1 -12   1   11.43    1.17
  -1 -12   1    9.03    0.98
   1 -12  -1    7.60    1.10
   1  12   1    8.44    1.17
   1  12  -1    7.60    1.12
  -1 -12   1    9.33    1.25
   1  12  -1    9.90    1.30
   1 -12   1    9.78    1.21
  -1 -12  -1    7.72    1.14
   1 -12  -1    8.01    1.16
  -1 -12  -1    8.63    1.13
   1  12   1   10.11    1.24
  -1  12   1   11.46    1.57
  -1  12   1   11.53    1.33
  -1  12   1   10.52    1.26
  -1  12   1    9.92    1.29
  -1  12  -1    8.70    1.03
  -1 -12   1    9.76    1.28
   1  12   1    9.71    0.76
  -1  12  -1    8.19    1.18
   1 -12   1   10.86    1.28
   1  12  -1    7.83    0.91
   1 -13  -1  514.39   10.09
  -1 -13   1  523.45    9.09
  -1 -13  -1  524.00   10.01
  -1  13   1  498.26    9.96
   1  13   1  521.76   10.06
   1  13  -1  530.79   10.25
   1  13  -1  525.17   10.21
  -1  13  -1  523.90   10.19
   1 -13  -1  517.39   10.12
  -1  13  -1  507.93    9.25
   1  13   1  526.34   10.09
  -1 -13   1  520.37   10.25
  -1  13   1  513.52   10.11
   1 -13   1  532.48    9.56
  -1  13  -1  529.78   10.23
  -1  13   1  519.42   10.92
   1 -13   1  502.33   10.06
   1 -13   1  499.82   10.05
   1  13   1  520.74    7.36
   1 -13  -1  525.56   10.16
  -1 -13  -1  521.58   10.11
  -1 -13  -1  512.04   10.03
  -1 -13   1  504.15   10.14
   1  13   1  517.83    9.89
   1  13  -1  516.20    8.97
  -1  13   1  514.28   10.11
   1 -14  -1    5.34    1.11
  -1  14   1    5.05    1.02
   1 -14   1    6.46    1.07
   1 -14  -1    5.02    1.11
  -1 -14   1    6.48    1.25
  -1  14  -1    5.78    0.98
  -1  14  -1    4.76    1.05
  -1 -14  -1    3.61    0.98
   1 -14   1    4.41    0.95
   1  14  -1    5.39    1.11
   1 -14   1    5.99    1.11
  -1  14   1    4.88    1.05
  -1  14   1    6.84    1.63
   1  14  -1    5.95    1.19
   1  14   1    5.61    1.12
  -1 -14  -1    4.97    0.99
  -1  14  -1    5.19    1.06
  -1 -14   1    3.82    0.90
   1  14   1    3.85    1.01
  -1 -14  -1    4.55    1.00
  -1 -14   1    6.01    0.91
   1 -14  -1    4.85    1.08
  -1  14   1    4.83    1.07
   1  14  -1    5.43    0.88
   1  14   1    7.21    1.20
   1  14   1    5.01    0.56
   1 -15  -1  563.09   11.46
  -1  15  -1  581.92   11.58
   1 -15  -1  582.75   11.60
  -1 -15  -1  591.99   11.35
  -1  15  -1  583.31   11.60
  -1 -15   1  573.05   11.61
   1 -15   1  573.39   11.52
  -1 -15  -1  579.34   11.46
   1  15  -1  566.74   10.19
   1  15   1  559.18   11.09
  -1 -15   1  575.09   10.40
  -1  15   1  571.92   11.32
   1 -15   1  572.76   10.78
   1  15   1  563.02   11.39
  -1  15  -1  570.58   10.53
   1  15  -1  594.80   11.69
  -1  15   1  579.23   11.51
  -1 -15   1  563.80   11.53
  -1 -15  -1  577.70   11.45
  -1  15   1  583.00   12.45
   1  15  -1  584.74   11.63
   1  15   1  569.71   11.43
   1 -15  -1  566.06   11.42
   1 -15   1  584.22   11.61
  -1  15   1  583.29   11.54
  -1  16  -1    1.47    0.84
  -1  16   1    2.15    0.87
   1  16  -1    2.35    0.42
  -1  16  -1    2.64    0.83
  -1 -16  -1    1.83    0.84
  -1 -16   1    3.96    1.02
  -1 -16  -1    2.03    0.83
   1  16   1    1.66    0.84
   1 -16   1    1.85    0.85
   1  16  -1    2.32    0.74
  -1  16   1    4.60    1.33
  -1  16  -1    1.78    0.98
   1 -16   1    2.05    0.69
  -1  16   1    1.84    0.72
   1  16  -1    2.74    0.99
  -1 -16  -1    1.63    0.73
   1 -16  -1    2.87    0.85
  -1 -16   1    1.63    0.86
   1  16   1    1.60    0.82
   1 -16   1    2.29    0.80
   1  16   1    1.11    0.70
   1  16  -1    2.50    0.87
   1 -16  -1    3.06    0.99
   1 -16  -1    2.71    1.06
  -1 -16   1    1.23    0.61
  -1  16   1    1.58    0.81
  -1  17   1   66.62    3.60
   1  17   1   63.03    3.61
  -1  17   1   63.92    3.65
   1  17  -1   62.74    3.68
   1 -17   1   65.18    3.37
   1 -17  -1   62.53    3.63
  -1  17   1   60.68    3.58
  -1  17  -1   62.84    3.64
   1 -17  -1   62.34    3.63
   1  17  -1   62.59    3.67
  -1  17   1   71.46    4.21
   1  17  -1   62.05    3.04
  -1 -17  -1   63.11    3.63
  -1 -17   1   65.12    3.20
   1 -17   1   61.36    3.64
  -1 -17  -1   65.57    3.54
   1  17  -1   57.51    1.48
   1  17   1   63.79    3.64
   1  17   1   65.47    3.52
  -1  17  -1   63.88    3.25
  -1 -17  -1   63.30    3.64
   1 -17   1   65.33    3.73
  -1  17  -1   59.21    3.54
   1  17  -1   60.48    1.48
   1 -17  -1   62.49    3.59
  -1 -17   1   63.34    3.69
  -1 -17   1   64.43    3.73
  -1  18   1    8.16    1.49
   1  18   1    7.89    1.40
  -1  18   1    8.09    1.67
  -1  18   1    6.14    1.30
  -1 -18  -1    6.97    1.33
  -1  18  -1    6.27    1.28
  -1  18  -1    7.60    1.17
   1  18  -1    5.53    1.06
  -1  18  -1    5.64    1.29
  -1 -18   1    7.33    1.25
   1  18  -1    5.97    1.36
   1  18   1    6.75    1.41
   1  18   1    8.93    1.50
  -1  18   1    5.61    1.19
   1  18  -1    7.68    1.47
   1  19  -1  537.46   12.51
  -1  19   1  527.47   12.33
   1  19  -1  525.71   12.43
  -1  19   1  543.24   12.47
   1  19  -1  505.63   10.73
   1  19   1  552.81   12.48
   1  19   1  550.15   12.46
  -1  19  -1  538.42   12.45
  -1  19  -1  533.00   12.40
  -1 -19   1  532.71   11.19
   1  19   1  539.63   11.91
  -1  19   1  520.39   11.92
  -1  19  -1  531.68   11.15
  -1  19   1  547.92   13.57
   1  20   1    3.87    1.29
   1  20   1    3.60    1.08
  -1 -20   1    1.93    0.81
   1  20  -1    2.73    0.96
  -1  20   1    1.09    0.91
  -1  20   1    1.42    0.92
  -1  20   1    2.70    1.15
  -1  20   1    3.52    1.51
   1  20   1    1.93    1.06
  -1  20  -1    3.21    1.00
   1  21   1   21.54    2.34
  -1 -21   1   22.01    2.22
  -1  21   1   24.40    2.56
  -1  21  -1   21.99    2.21
   1  21  -1   20.97    2.12
  -1  21   1   26.78    3.14
   1  22   1    2.12    1.63
   1  22  -1    1.70    0.90
  -1  22   1    2.93    1.60
  -1  22  -1    0.50    0.64
   1  23   1  266.60   10.26
   1  23  -1  238.29    7.70
  -1  23  -1  234.56    7.84
   2   0  -1  121.75    2.98
  -2   0   1  131.75    3.13
   2   0  -1  118.76    2.92
  -2   0   1  130.31    3.04
  -2   0  -1  115.38    2.24
   2   0  -1  119.47    3.00
   2   0   1  124.61    3.02
   2   0   1  129.84    2.37
   2   0   1  130.65    2.74
  -2   0  -1  116.99    2.93
  -2   0   1  129.53    3.12
   2   0  -1  120.38    2.93
   2   0   1  129.37    3.00
  -2   0  -1  121.59    2.32
   2   0  -1  118.80    2.95
   2   0   1  129.00    2.73
   2  -1   1  177.81    2.58
   2   1   1  178.38    3.24
   2  -1  -1  127.16    3.21
   2   1  -1  120.69    3.13
  -2  -1   1  174.94    3.64
  -2   1  -1  128.14    2.59
   2   1  -1  123.95    3.15
  -2   1   1  178.57    3.67
   2   1  -1  126.05    3.15
   2  -1   1  182.01    3.47
  -2  -1  -1  126.18    2.59
  -2  -1  -1  118.97    2.81
  -2  -1   1  180.68    3.67
  -2   1   1  172.16    3.67
   2  -1  -1  126.94    3.22
  -2  -1   1  179.97    3.57
   2   1   1  178.79    3.24
   2   1   1  172.06    3.57
   2   1   1  176.20    2.85
  -2   1  -1  126.70    2.34
   2   1  -1  122.35    3.14
  -2  -1   1  177.11    3.56
   2   1   1  178.14    3.59
  -2   1  -1  119.27    3.02
   2  -1   1  174.56    2.86
   2   1  -1  118.11    3.04
  -2  -1   1  171.79    3.51
  -2   1   1  173.30    3.65
   2  -1   1  178.51    3.46
  -2  -1  -1  122.42    2.84
   2  -1  -1  124.02    3.20
   2   2  -1   50.36    1.86
   2  -2   1   53.25    1.53
   2   2  -1   48.67    1.86
  -2  -2  -1   50.61    1.69
   2   2  -1   50.64    1.89
  -2  -2  -1   50.79    1.70
   2   2   1   54.93    1.94
   2  -2   1   53.35    1.71
  -2  -2   1   49.47    1.91
  -2   2   1   51.86    1.82
   2  -2  -1   49.32    1.97
  -2  -2   1   51.21    1.88
   2   2   1   55.79    1.98
   2   2  -1   50.71    1.89
   2  -2  -1   52.27    1.94
   2  -2  -1   49.33    1.92
   2   2   1   50.43    1.65
  -2   2   1   54.08    2.04
   2  -2   1   50.92    1.69
  -2   2  -1   53.33    1.50
  -2  -2   1   51.09    1.94
   2  -2   1   52.80    1.73
   2  -2   1   52.16    1.75
   2   2   1   51.83    1.66
  -2  -2  -1   52.16    1.52
   2   2  -1   50.91    1.93
  -2   2  -1   52.13    1.80
  -2   2  -1   49.21    1.23
  -2   2   1   49.41    1.93
   2  -2   1   52.08    1.26
  -2  -2   1   51.99    1.90
  -2   2   1   50.87    1.97
   2  -3   1 1461.55   17.53
   2  -3  -1 1440.81   17.99
  -2  -3  -1 1482.13   17.18
  -2  -3   1 1454.09   18.22
  -2   3   1 1448.04   18.14
  -2  -3  -1 1499.80   17.52
   2  -3   1 1491.12   17.39
   2   3  -1 1469.57   18.05
   2   3   1 1458.45   17.43
   2   3   1 1465.34   18.00
   2  -3  -1 1492.08   18.18
   2   3   1 1467.84   17.45
   2  -3   1 1455.23   17.52
   2  -3  -1 1488.16   18.28
   2   3   1 1460.51   18.03
   2   3  -1 1487.10   18.08
  -2   3   1 1472.34   18.22
  -2   3  -1 1462.13   17.42
  -2  -3   1 1487.13   18.08
   2  -3   1 1456.69   17.13
  -2  -3   1 1416.50   17.97
  -2   3   1 1443.98   18.55
  -2  -3   1 1441.30   18.14
   2  -3   1 1479.82   17.36
   2  -3   1 1467.80   16.55
   2  -3  -1 1450.69   18.00
  -2   3   1 1475.98   17.93
   2  -3  -1 1461.78   18.50
   2   3  -1 1456.29   18.16
  -2  -3  -1 1480.03   17.50
   2  -4   1   97.19    2.12
   2  -4  -1  102.05    2.86
   2  -4   1   97.57    2.43
  -2  -4   1   93.02    2.88
  -2  -4  -1  107.93    2.90
  -2   4  -1  106.14    2.52
   2   4  -1  104.16    2.88
   2  -4   1   97.50    2.35
   2  -4  -1  108.06    3.02
  -2  -4  -1  107.19    2.68
   2   4   1   98.64    2.58
  -2  -4   1  100.04    2.82
  -2   4   1   99.62    3.12
   2  -4   1   95.38    2.59
   2   4   1   97.49    2.57
  -2   4  -1  107.28    2.74
   2   4   1   98.68    2.76
   2   4  -1  103.39    2.94
   2   4  -1  107.64    2.93
   2  -4  -1  104.69    2.88
   2  -4   1   94.97    2.33
   2  -4   1   93.70    2.58
   2   4   1   94.09    2.76
  -2   4   1   95.58    2.89
   2  -4  -1  109.82    3.30
  -2   4  -1  106.30    2.73
  -2   4   1   93.72    2.77
  -2  -4  -1  107.80    2.68
  -2  -4   1   94.29    2.75
  -2  -4   1   93.10    2.82
   2  -4  -1  106.59    2.94
   2  -5   1   48.87    1.54
   2  -5  -1   48.08    2.23
   2  -5   1   50.71    1.91
   2  -5  -1   50.49    2.07
  -2   5   1   52.25    2.35
  -2  -5  -1   50.01    1.89
  -2  -5   1   48.86    2.02
  -2  -5   1   49.06    1.54
  -2  -5  -1   44.08    1.89
  -2   5  -1   48.56    1.91
  -2  -5   1   51.22    2.09
  -2  -5  -1   46.20    1.81
  -2   5   1   50.44    2.03
   2  -5  -1   46.60    1.97
   2  -5  -1   46.45    1.97
  -2  -5   1   47.42    1.98
   2  -5   1   48.77    1.88
   2  -5  -1   49.65    2.00
   2   5   1   50.69    1.96
   2  -5  -1   49.09    1.99
  -2   5  -1   46.57    1.87
   2   5  -1   50.01    2.01
  -2   5   1   59.08    2.19
   2   5   1   49.68    1.84
   2  -5   1   47.88    1.53
   2   5   1   49.93    1.85
  -2   5   1   61.48    2.21
   2   5   1   47.96    1.92
   2   5  -1   46.18    1.95
   2  -6  -1  151.21    3.84
   2   6  -1  152.22    3.86
   2   6   1  148.65    3.59
  -2   6  -1  157.19    3.74
   2  -6  -1  157.47    3.97
  -2   6   1  145.38    3.77
   2  -6   1  147.19    3.70
   2  -6  -1  151.78    3.93
  -2   6   1  149.97    4.28
   2  -6   1  152.03    2.88
   2   6   1  150.65    3.78
   2  -6   1  143.34    2.83
   2  -6  -1  154.36    3.91
  -2  -6   1  142.55    3.74
   2   6  -1  157.46    3.92
  -2   6  -1  148.90    3.68
  -2   6   1  147.51    3.79
  -2  -6  -1  150.32    3.63
   2   6   1  146.53    3.57
  -2  -6  -1  158.39    3.86
  -2  -6   1  149.66    3.82
  -2  -6   1  146.30    3.86
  -2   6  -1  154.85    3.72
   2   6   1  147.46    3.57
  -2  -6  -1  152.07    3.64
  -2   6   1  145.52    3.83
   2  -6   1  143.62    3.65
   2  -6  -1  150.17    3.83
  -2  -6   1  145.43    3.04
   2   6   1  146.26    3.59
  -2   7  -1 1743.57   21.66
   2  -7  -1 1735.49   21.82
  -2  -7  -1 1746.18   21.48
  -2   7   1 1725.71   22.78
   2   7  -1 1755.46   21.94
   2  -7  -1 1722.05   22.04
   2  -7  -1 1751.68   21.86
   2   7   1 1757.86   21.54
   2   7   1 1678.12   21.06
   2  -7   1 1741.48   21.65
  -2   7   1 1756.44   21.85
  -2  -7  -1 1750.65   21.48
   2  -7   1 1724.59   19.65
   2  -7   1 1746.83   21.66
  -2   7  -1 1763.35   21.55
   2   7   1 1686.74   21.03
  -2   7  -1 1765.35   21.71
   2   7  -1 1755.34   21.96
  -2  -7   1 1767.26   21.94
   2   7   1 1760.36   21.55
   2  -7  -1 1729.17   21.97
  -2  -7   1 1737.94   21.88
   2  -7  -1 1733.01   21.92
  -2  -7   1 1690.74   21.90
  -2  -7   1 1718.91   20.34
  -2   7   1 1743.08   21.83
  -2   7   1 1740.52   21.95
  -2  -7  -1 1756.54   21.75
   2   7   1 1704.96   21.72
  -2   8   1   67.58    3.01
  -2   8  -1   62.00    2.52
  -2   8  -1   59.49    2.40
  -2  -8   1   60.05    2.56
   2  -8   1   62.59    2.55
   2   8   1   64.70    2.52
   2  -8  -1   62.08    2.58
   2   8  -1   63.37    2.64
  -2  -8  -1   60.49    2.50
  -2   8  -1   61.39    2.51
   2  -8  -1   60.30    2.59
  -2   8   1   65.14    2.68
   2  -8   1   63.08    2.55
  -2   8   1   65.19    2.63
  -2  -8  -1   58.34    2.41
   2   8   1   65.67    2.29
   2   8   1   62.63    2.26
  -2  -8   1   63.08    2.06
   2  -8  -1   59.02    2.53
  -2   8   1   65.87    2.64
  -2  -8  -1   58.13    2.42
  -2  -8   1   62.42    2.60
   2   8   1   63.85    2.50
   2   8  -1   59.97    2.58
   2  -8  -1   57.66    2.56
   2  -8   1   64.21    1.59
   2   8   1   60.76    2.48
  -2  -9   1  134.84    3.34
   2  -9  -1  145.11    4.29
   2   9   1  139.80    3.57
   2   9  -1  143.70    4.21
  -2   9  -1  140.27    4.08
   2   9   1  133.16    3.96
   2   9   1  140.78    3.99
  -2   9   1  140.27    4.15
   2  -9  -1  139.06    4.18
   2  -9   1  140.87    4.06
  -2  -9   1  134.63    4.11
   2   9   1  131.97    3.48
  -2  -9  -1  147.28    4.10
  -2   9   1  144.78    4.67
  -2   9   1  135.59    4.15
  -2  -9   1  141.37    4.21
   2  -9  -1  137.37    4.16
  -2   9  -1  140.82    4.09
  -2  -9  -1  139.13    4.01
  -2   9  -1  146.95    3.95
  -2  -9  -1  136.84    3.98
   2   9  -1  136.75    3.37
  -2   9   1  135.84    4.09
   2   9   1  140.72    4.00
   2   9  -1  142.98    4.20
   2  -9   1  140.64    4.07
  -2 -10   1   39.29    1.79
   2 -10  -1   35.64    2.11
   2  10  -1   34.69    1.68
   2 -10  -1   37.03    2.20
  -2  10  -1   34.28    1.92
  -2 -10  -1   32.05    1.97
   2  10   1   40.07    2.16
   2 -10  -1   34.58    2.06
   2 -10   1   40.21    2.23
  -2  10   1   40.57    2.29
  -2  10   1   39.84    2.53
   2  10   1   38.91    2.12
   2  10  -1   34.51    2.09
  -2  10   1   38.98    2.22
  -2 -10   1   38.77    2.23
   2  10   1   37.57    1.78
  -2  10  -1   35.69    2.07
   2  10  -1   33.94    2.09
   2 -10  -1   34.19    1.01
   2 -10   1   36.59    2.12
   2  10   1   38.68    1.79
  -2 -10  -1   33.02    2.00
  -2  10  -1   36.96    2.11
  -2 -10  -1   32.49    1.99
  -2  10   1   37.14    2.18
   2  10   1   38.44    2.15
  -2 -10   1   40.24    2.26
   2  11   1 1040.38   10.70
  -2 -11  -1 1055.02   12.71
   2  11   1 1036.03   12.57
   2  11  -1 1063.83   13.07
   2  11  -1 1050.04   11.06
  -2  11  -1 1056.67   12.89
   2 -11  -1 1052.34   12.98
  -2  11  -1 1051.72   12.87
   2 -11  -1 1046.38   12.95
   2 -11  -1  292.48    6.32
  -2 -11   1 1073.67   11.17
  -2 -11  -1 1049.88   12.71
  -2 -11   1 1036.43   12.98
   2  11   1 1046.12   10.72
   2 -11   1 1042.59   12.86
  -2  11   1 1062.28   13.05
  -2  11   1 1057.17   13.01
  -2 -11   1 1042.34   13.00
  -2  11   1 1063.79   13.08
   2 -11  -1  277.52    6.29
   2 -11   1 1030.92   12.81
   2 -11  -1 1067.84   13.18
  -2  11  -1 1036.92   12.12
   2  11  -1 1086.08   13.19
   2  11   1 1062.93   12.75
  -2 -11  -1 1052.55   12.72
   2  11   1 1053.18   12.71
  -2  11   1 1041.60   14.12
   2 -12  -1   20.59    1.80
  -2  12   1   20.05    1.77
   2  12  -1   20.63    1.78
  -2  12  -1   17.83    1.55
   2 -12   1   19.86    1.76
  -2 -12  -1   20.51    1.72
  -2 -12  -1   20.73    1.76
  -2  12  -1   22.56    1.85
   2 -12   1   19.33    1.73
  -2  12   1   18.65    1.71
   2  12   1   18.61    1.67
   2  12  -1   22.02    1.82
  -2 -12  -1   20.48    1.76
  -2  12  -1   21.73    1.78
  -2 -12   1   19.43    1.40
   2 -12  -1   17.35    1.62
   2 -12  -1   21.09    1.82
  -2  12   1   21.22    2.13
   2  12  -1   21.63    1.49
   2  12   1   20.89    1.77
  -2 -12   1   18.57    1.74
   2  12   1   21.28    1.32
  -2  12   1   21.21    1.82
   2  12   1   20.97    1.74
   2  12   1   19.26    1.27
  -2 -12   1   20.36    1.81
   2  13   1  578.85   10.69
  -2 -13   1  560.25   10.93
  -2 -13  -1  548.65   10.65
   2  13   1  566.36    8.77
   2 -13   1  565.32   10.85
  -2 -13   1  574.71   11.01
  -2 -13  -1  530.48   10.52
  -2 -13   1  582.78    9.73
   2  13  -1  552.41   10.94
  -2  13  -1  547.56   10.14
  -2 -13  -1  546.86   10.50
   2 -13   1  575.91   10.93
   2 -13  -1  545.72   10.79
   2  13   1  582.78   10.82
  -2  13   1  564.37   10.90
  -2  13  -1  539.57   10.69
   2  13   1  576.19   10.77
   2 -13  -1  558.21   10.90
  -2  13   1  578.64   10.96
   2 -13  -1  543.14   10.75
   2  13  -1  544.75    9.46
  -2  13  -1  554.66   10.78
  -2  13   1  580.68   11.88
  -2  13   1  574.93   10.95
   2  13  -1  542.62   10.87
   2  13   1  578.62    8.82
  -2  14  -1    2.28    0.76
   2 -14  -1    2.42    0.91
  -2  14   1    2.58    0.84
   2  14  -1    3.41    1.03
   2  14   1    2.26    0.85
   2  14  -1    3.83    1.07
   2  14   1    1.27    0.71
   2 -14   1    3.16    0.98
   2 -14   1    1.20    0.79
  -2 -14   1    1.85    0.78
  -2 -14  -1    2.23    0.88
  -2 -14  -1    2.49    0.84
  -2  14   1    2.52    0.89
   2  14   1    1.61    0.53
  -2 -14   1    1.28    0.57
   2  14   1    1.50    0.47
   2  14   1    1.66    0.78
   2  14  -1    1.23    0.61
  -2  14   1    1.85    0.89
  -2  14   1    2.69    1.05
   2 -14  -1    2.72    0.82
  -2  14  -1    4.14    1.10
  -2  14  -1    2.63    0.93
  -2 -14  -1    0.89    0.66
   2 -14  -1    2.52    0.85
  -2 -14   1    0.96    0.74
  -2 -15  -1  169.13    5.64
  -2 -15  -1  167.46    5.62
  -2  15  -1  170.94    5.74
  -2  15  -1  167.81    5.70
   2  15   1  165.25    5.63
   2  15   1  163.72    5.61
   2  15   1  171.69    3.96
   2  15   1  166.52    3.93
  -2  15   1  166.34    5.74
  -2 -15   1  170.99    5.82
  -2  15   1  164.96    5.71
  -2  15  -1  162.19    5.20
  -2  15   1  163.63    6.22
   2  15  -1  166.89    4.87
   2 -15   1  163.11    5.64
  -2  15   1  163.05    5.60
   2 -15  -1  173.25    5.86
  -2 -15  -1  167.97    5.56
   2 -15   1  167.40    5.70
   2 -15  -1  168.92    5.78
   2 -15  -1  168.46    5.75
   2  15   1  165.38    5.45
  -2 -15   1  166.12    5.72
   2  15  -1  166.21    5.76
   2  15  -1  168.55    5.79
  -2 -15   1  165.74    4.89
   2 -16  -1   17.21    1.92
   2  16  -1   13.54    1.64
   2  16   1   17.11    1.90
   2 -16  -1   16.51    1.83
  -2  16  -1   18.32    1.75
  -2 -16   1   16.19    1.87
  -2 -16   1   15.05    1.77
   2 -16   1   17.04    1.86
   2  16   1   15.57    1.12
   2  16  -1   16.50    1.56
  -2  16   1   17.54    2.16
  -2  16   1   17.78    1.94
   2 -16  -1   17.85    1.96
  -2  16   1   16.06    1.80
  -2 -16   1   17.42    1.62
  -2  16   1   16.48    1.89
  -2  16  -1   18.76    2.04
  -2 -16  -1   15.02    1.76
  -2 -16  -1   15.72    1.77
  -2 -16  -1   14.56    1.74
  -2  16  -1   17.60    1.98
   2 -16   1   14.10    1.76
   2  16   1   16.66    1.81
   2  16   1   15.80    1.11
   2  16   1   16.36    1.85
   2  16  -1   19.49    1.99
  -2  17   1  664.21   13.46
  -2 -17  -1  672.44   13.56
  -2 -17  -1  691.09   13.40
  -2  17   1  681.14   14.82
   2  17   1  686.12   13.60
  -2  17  -1  666.34   12.63
  -2  17  -1  673.54   13.70
   2  17  -1  683.71   12.14
  -2  17  -1  684.31   13.77
  -2  17   1  688.67   13.81
  -2  17   1  689.21   13.83
   2  17   1  676.84    9.83
   2  17  -1  695.68   13.95
   2  17   1  699.20   13.69
  -2 -17  -1  683.63   13.66
  -2 -17   1  655.33   12.17
   2  17   1  682.79   13.27
   2 -17  -1  673.23   13.68
   2  17  -1  674.49   13.79
   2  17  -1  687.26   10.34
   2  18  -1   10.82    1.42
   2  18   1   11.89    1.75
   2  18  -1   13.67    1.97
  -2  18   1   13.01    1.89
   2  18  -1   11.63    0.99
  -2  18   1   12.64    2.05
  -2 -18   1   12.74    1.52
   2  18  -1   11.32    1.74
  -2  18  -1   14.31    1.73
   2  18   1   13.30    1.73
   2  18   1   11.42    0.88
  -2  18  -1   12.45    1.75
  -2  18   1   14.55    1.96
  -2  18  -1   10.18    1.65
  -2  18   1   11.11    1.64
   2  18  -1   11.38    0.97
  -2 -18  -1    9.16    1.45
   2  18   1   13.68    1.83
   2  19   1    1.48    0.87
  -2  19  -1    2.50    0.94
  -2  19   1    0.81    0.88
   2  19  -1    2.37    1.06
   2  19  -1    4.98    1.40
  -2  19  -1    0.67    0.82
  -2  19   1   -0.08    0.81
  -2  19  -1    2.58    1.10
   2  19   1    1.00    0.83
   2  19   1    1.00    0.74
  -2  19   1    0.08    0.76
  -2 -19   1    1.64    0.67
   2  19  -1    1.60    0.85
  -2  19   1    3.21    1.56
  -2  20   1    0.52    0.93
  -2 -20   1    0.49    0.58
  -2  20  -1    1.87    0.99
   2  20  -1   -0.52    0.69
  -2  20   1    0.47    0.76
   2  20   1    0.85    0.79
  -2  21   1  338.22   11.21
  -2  21  -1  325.72    9.12
   2  21   1  335.35    9.65
   2  21  -1  331.25    8.70
  -2  22   1    0.90    1.28
  -2  22  -1    2.40    1.02
   2  22  -1    0.41    0.73
   3   0   1    0.80    0.49
   3   0  -1    0.64    0.49
   3   0  -1    0.63    0.43
  -3   0  -1    0.71    0.38
  -3   0   1    1.41    0.65
   3   0  -1    0.88    0.55
   3   0  -1    0.15    0.47
   3   0   1    0.91    0.39
  -3   0   1    0.02    0.49
   3   0  -1    0.66    0.52
  -3   0  -1    0.95    0.47
   3   0   1    1.94    0.84
   3   0   1    0.55    0.45
  -3   0   1    0.78    0.64
  -3   0  -1    0.82    0.27
  -3  -1   1  583.49    8.84
   3   1   1  596.16    9.28
   3   1  -1  608.52    8.99
   3  -1   1  595.74    9.01
   3  -1   1  566.41    8.38
   3  -1  -1  631.98    8.91
  -3  -1  -1  592.60    8.40
  -3   1   1  592.73    8.79
   3   1  -1  618.97    9.03
   3  -1  -1  615.98    8.96
  -3  -1  -1  597.83    6.23
   3  -1   1  578.50    8.42
  -3   1  -1  597.89    7.55
  -3  -1  -1  598.78    8.42
  -3  -1   1  595.22    8.86
  -3  -1   1  582.03    8.41
   3   1   1  593.52    7.83
   3   1   1  572.41    8.36
  -3   1   1  590.71    8.88
  -3  -1  -1  602.35    7.84
   3  -1  -1  589.61    8.92
   3  -1  -1  615.76    9.00
   3   1  -1  620.86    8.61
  -3   1   1  583.68    8.65
   3   1  -1  607.23    8.92
  -3   1  -1  604.68    7.13
   3  -1   1  583.33    7.49
  -3  -1   1  582.13    8.80
   3   1   1  577.55    8.38
  -3  -1   1  594.60    8.84
   3   1  -1  622.33    8.97
   3  -1   1  586.03    7.79
  -3   1  -1  619.30    8.04
   3  -1  -1  593.21    8.94
  -3  -1  -1  615.26    7.93
   3   2   1  124.45    3.70
  -3   2   1  113.36    3.34
  -3  -2  -1   93.69    2.82
  -3  -2   1  108.20    3.27
   3  -2   1  118.47    3.35
  -3   2  -1   98.75    2.71
  -3   2  -1  101.52    2.43
   3   2   1  109.70    3.04
  -3  -2   1  112.22    3.28
  -3   2  -1  101.83    2.44
  -3  -2   1  111.95    3.33
  -3  -2  -1   96.80    2.64
   3  -2  -1  100.78    3.21
   3   2  -1  100.48    3.19
   3   2   1  114.57    2.81
   3   2  -1  100.69    3.18
   3   2  -1  100.52    3.16
   3  -2   1  119.65    2.57
  -3   2   1  119.12    3.38
   3  -2  -1  101.13    3.16
  -3   2   1  109.97    3.36
   3   2  -1   97.95    2.90
   3  -2  -1  100.03    3.15
   3   2  -1  101.89    3.19
  -3  -2  -1   97.25    2.87
  -3  -2   1  110.97    3.26
   3  -2   1  117.19    2.86
   3   2   1  112.82    3.08
   3   3   1   38.06    2.10
   3  -3   1   36.29    1.59
   3  -3   1   36.15    1.76
  -3   3  -1   37.03    1.43
  -3  -3  -1   35.33    1.57
   3   3  -1   35.84    1.86
  -3  -3   1   35.50    1.91
   3   3   1   36.09    1.71
   3  -3  -1   33.71    1.90
  -3  -3   1   34.67    1.86
  -3   3   1   35.32    1.85
   3   3  -1   36.40    1.86
  -3   3  -1   35.90    1.49
   3   3   1   35.83    1.70
   3   3  -1   36.76    1.73
   3  -3   1   35.90    1.72
  -3   3   1   38.67    1.98
  -3  -3   1   33.48    1.83
  -3   3   1   36.76    1.96
   3   3   1   37.05    0.99
  -3   3  -1   35.26    1.57
   3   3  -1   37.31    1.92
   3  -3   1   34.82    1.70
  -3  -3   1   32.83    1.81
   3  -3   1   37.38    1.78
   3  -3  -1   37.34    1.92
   3  -3  -1   34.70    1.83
   3  -3   1   37.66    1.40
  -3  -3  -1   35.94    1.73
  -3  -3  -1   33.58    1.68
   3  -4   1   95.47    2.78
  -3  -4  -1   80.88    2.68
   3  -4   1   93.14    2.69
   3   4   1   91.35    2.83
   3   4  -1   86.04    3.01
  -3   4   1   91.97    3.02
   3  -4  -1   84.22    2.97
   3  -4   1   86.79    2.83
   3  -4  -1   85.49    3.04
   3  -4   1   91.20    2.35
  -3  -4  -1   84.83    2.59
   3   4  -1   87.20    3.02
  -3   4   1   93.94    3.09
   3  -4  -1   85.27    3.18
  -3  -4   1   93.38    3.14
  -3   4   1   96.12    3.28
   3  -4   1   87.97    2.85
   3   4  -1   85.03    2.74
  -3  -4   1   92.50    3.09
  -3  -4  -1   83.20    2.71
   3   4  -1   90.50    3.09
  -3   4   1   89.88    3.12
   3  -4  -1   82.47    2.95
  -3  -4   1   89.20    3.06
   3   4   1   89.39    3.25
   3  -4   1   89.03    2.71
   3  -4  -1   84.97    2.92
   3   4   1   92.12    2.84
  -3  -4   1   90.46    3.05
   3   5   1 2146.15   26.78
  -3   5   1 2093.20   26.31
  -3  -5   1 2148.48   26.46
  -3   5   1 2183.55   26.40
   3  -5  -1 2135.30   26.34
  -3  -5   1 2088.18   26.30
  -3  -5  -1 2151.16   25.89
  -3   5   1 2134.82   26.56
   3  -5  -1 2180.34   26.62
  -3  -5  -1 2131.05   25.55
   3  -5   1 2058.86   25.41
   3  -5  -1 2154.51   26.38
   3  -5   1 2141.41   24.71
  -3   5   1 2140.86   26.93
  -3  -5  -1 2172.17   26.25
   3  -5   1 2119.81   25.24
  -3  -5   1 2173.30   26.47
   3  -5  -1 2103.37   27.02
   3   5  -1 2144.77   26.39
  -3  -5  -1 2157.93   25.90
   3   5  -1 2149.20   26.46
   3  -5   1 2136.40   25.94
   3  -5   1 2132.94   25.26
   3   5  -1 2141.86   26.40
  -3  -5   1 2143.37   26.68
   3   5   1 2150.51   25.79
   3   5   1 2154.56   25.79
   3  -5  -1 2147.83   26.31
   3  -5   1 2139.68   25.94
  -3  -6  -1    9.85    1.08
   3  -6  -1    9.63    1.11
  -3  -6  -1   10.58    1.06
  -3   6   1    6.27    0.97
   3   6  -1    9.04    1.02
   3  -6   1    6.49    0.74
   3  -6  -1    9.78    1.07
  -3  -6   1    5.41    0.88
   3   6   1    5.64    0.82
  -3   6  -1    8.49    0.97
   3   6  -1    8.27    1.04
   3  -6  -1    9.53    1.12
   3   6   1    6.03    0.85
   3  -6   1    6.58    0.86
   3   6   1    7.08    1.02
  -3  -6  -1    8.36    0.97
   3  -6  -1    9.97    1.26
   3  -6   1    6.63    0.67
   3  -6   1    6.65    0.89
  -3   6  -1   10.05    1.03
   3  -6   1    6.87    0.78
  -3  -6   1    5.88    0.95
  -3  -6   1    5.84    0.69
  -3  -6  -1   10.60    1.08
   3  -6  -1    9.60    1.14
  -3   6   1    7.84    1.06
   3  -6   1    7.56    0.87
  -3  -6   1    5.31    0.82
  -3   7   1    3.14    0.91
   3   7   1    3.13    0.73
   3   7   1    3.87    0.96
   3  -7   1    4.88    0.80
  -3   7   1    3.61    0.87
   3  -7   1    3.52    0.53
   3   7   1    2.50    0.62
  -3  -7  -1    4.87    0.82
  -3  -7   1    4.14    0.79
   3  -7   1    5.17    0.87
   3  -7   1    3.69    0.57
  -3  -7   1    6.66    0.75
   3  -7   1    4.25    0.59
  -3   7  -1    4.84    0.86
  -3  -7   1    4.33    0.93
   3  -7  -1    5.15    0.87
   3   7  -1    5.31    0.85
   3  -7  -1    4.40    0.82
  -3  -7   1    3.12    0.76
   3   7  -1    3.91    0.84
   3  -7   1    4.16    0.73
  -3  -7  -1    5.10    0.83
  -3   7  -1    5.20    0.80
   3  -7  -1    6.38    0.97
  -3  -7  -1    4.96    0.85
   3  -7  -1    4.64    0.87
  -3  -7  -1    4.80    0.78
  -3   8  -1   31.43    1.92
  -3   8   1   28.11    1.86
   3  -8   1   29.98    1.59
   3   8  -1   32.57    2.04
  -3  -8   1   27.17    1.46
  -3   8   1   30.07    1.93
   3   8  -1   32.68    2.05
   3  -8   1   28.13    1.82
   3  -8   1   28.04    1.31
   3   8   1   27.62    1.78
  -3  -8   1   29.05    2.00
  -3   8   1   28.32    1.93
   3  -8  -1   31.01    1.99
  -3  -8  -1   32.87    1.94
  -3  -8   1   26.88    1.85
   3  -8  -1   33.53    2.06
   3  -8  -1   34.20    2.00
  -3   8  -1   31.26    1.92
  -3  -8  -1   30.28    1.87
   3  -8   1   27.34    1.70
   3  -8  -1   31.62    2.00
   3   8   1   29.63    1.92
  -3   8   1   26.71    2.05
   3  -8   1   27.77    1.30
  -3  -8   1   26.81    1.84
  -3   8  -1   30.69    1.94
  -3  -8  -1   32.52    1.95
   3   8   1   26.77    1.73
   3  -8   1   27.55    1.81
  -3   9  -1 1077.73   16.01
   3   9   1 1082.96   15.87
  -3  -9   1 1123.66   14.77
   3   9  -1 1081.24   16.30
   3   9   1 1086.50   15.70
   3  -9  -1 1093.03   16.18
  -3   9   1 1099.55   16.30
  -3  -9   1 1099.69   16.35
   3  -9  -1 1092.33   16.23
   3  -9   1 1091.64   16.07
  -3  -9   1 1069.51   16.21
  -3   9  -1 1072.05   15.90
   3  -9   1 1104.51   16.12
  -3  -9  -1 1104.37   15.99
   3  -9  -1 1096.77   16.24
  -3   9   1 1122.92   16.36
   3  -9   1 1119.37   15.83
   3  -9   1 1119.28   13.55
  -3  -9   1 1085.10   16.28
  -3   9   1 1083.13   16.32
   3   9   1 1091.50   15.79
  -3  -9  -1 1080.66   15.88
  -3   9   1 1119.03   17.17
  -3  -9  -1 1077.28   15.86
  -3   9  -1 1092.13   16.06
   3   9   1 1087.73   15.89
   3  -9  -1 1082.03   16.37
   3  -9   1 1108.65   15.00
   3  -9   1 1136.29   13.57
   3   9  -1 1074.21   16.26
   3  10   1    2.41    0.73
  -3 -10   1    2.82    0.89
   3  10  -1    0.65    0.68
  -3 -10   1    0.98    0.66
  -3  10  -1    1.13    0.69
  -3  10   1    0.67    0.71
  -3  10   1    2.47    0.78
  -3  10  -1    1.24    0.62
   3 -10   1    1.88    0.38
  -3 -10   1    0.63    0.37
   3  10   1    2.49    0.76
   3 -10  -1    0.92    0.69
   3  10   1    1.25    0.59
  -3 -10  -1    0.20    0.69
   3 -10   1    1.92    0.74
   3  10  -1    1.82    0.84
   3  10   1    2.68    0.88
  -3 -10   1    2.04    0.66
   3 -10  -1    1.54    0.80
  -3  10   1    1.43    0.91
  -3  10   1    1.16    0.62
   3 -10  -1    1.05    0.59
   3 -10   1    1.68    0.64
   3 -10  -1    1.84    0.73
  -3 -10  -1    0.80    0.58
  -3  10  -1    1.12    0.69
  -3 -10  -1    1.28    0.59
  -3  11   1  328.41    7.65
  -3  11   1  331.75    8.26
   3 -11  -1  306.42    7.48
   3  11   1  329.15    6.87
   3 -11   1  323.58    7.47
   3 -11   1  325.91    7.51
  -3  11   1  332.46    7.71
   3  11   1  330.86    7.44
  -3 -11  -1  318.52    7.37
  -3 -11   1  332.08    7.70
  -3 -11  -1  311.45    7.30
  -3 -11   1  340.80    6.58
  -3 -11   1  316.99    7.62
  -3  11  -1  317.42    7.43
  -3  11  -1  315.26    7.42
   3  11  -1  314.04    7.52
   3 -11  -1  320.48    7.68
  -3  11   1  341.49    7.77
  -3 -11  -1  315.46    7.26
   3 -11  -1  324.18    7.52
  -3 -11   1  332.36    7.70
   3  11   1  341.39    6.96
   3 -11  -1  316.72    7.56
  -3  11  -1  324.05    7.34
   3  11   1  328.65    7.41
   3  11  -1  324.68    7.62
  -3 -12  -1   39.60    2.46
  -3  12  -1   35.53    2.38
  -3  12  -1   35.82    2.40
   3  12   1   32.02    2.22
  -3 -12   1   31.79    1.87
  -3 -12   1   33.52    2.35
  -3  12  -1   39.30    2.44
   3  12   1   35.55    2.08
  -3  12   1   33.08    2.35
  -3 -12  -1   39.75    2.45
   3 -12  -1   39.13    2.54
   3  12  -1   37.51    2.48
   3 -12  -1   38.54    2.50
  -3 -12  -1   38.84    2.37
  -3 -12   1   31.00    2.28
   3 -12  -1   36.10    2.46
   3  12   1   32.37    2.22
  -3  12   1   37.95    2.77
   3 -12  -1   39.97    2.59
  -3 -12   1   28.76    2.23
   3 -12   1   32.05    2.28
   3  12   1   33.37    2.05
  -3  12   1   31.11    2.28
   3 -12   1   31.44    2.28
  -3  12   1   31.19    2.29
   3  12  -1   32.20    2.33
  -3 -13   1  401.30    9.17
   3 -13  -1  395.77    9.13
  -3  13   1  411.45    9.20
  -3 -13  -1  391.99    8.82
   3 -13  -1  392.03    9.09
   3 -13  -1  408.03    9.06
  -3  13  -1  392.75    8.61
   3  13  -1  400.91    9.17
   3  13   1  401.88    8.92
  -3  13   1  400.97    9.13
  -3 -13   1  396.87    9.14
  -3  13   1  408.72    9.18
  -3 -13  -1  400.24    8.90
   3  13   1  396.10    7.78
  -3  13  -1  406.92    9.04
   3  13   1  395.85    8.85
  -3 -13   1  392.37    7.80
  -3  13  -1  412.64    9.11
  -3 -13   1  389.93    9.14
   3  13   1  411.74    7.91
   3  13  -1  398.04    9.14
  -3 -13  -1  402.66    8.83
   3 -13   1  387.10    8.99
   3 -13   1  385.56    8.97
  -3  13   1  400.73    9.83
   3 -14   1    6.78    1.27
   3  14   1    8.03    1.04
  -3  14   1    7.20    1.30
  -3 -14  -1    6.48    1.19
  -3 -14  -1    7.57    1.27
   3  14  -1    6.45    1.19
  -3  14   1    6.80    1.27
  -3 -14   1    6.27    1.21
   3 -14  -1    6.67    1.23
  -3 -14  -1    5.75    1.12
   3  14   1    6.62    1.23
  -3  14  -1    7.21    1.28
  -3 -14   1    5.71    1.29
  -3  14   1    7.51    1.22
  -3  14   1    9.69    1.80
  -3  14  -1    7.00    1.22
   3  14  -1    4.92    1.09
  -3 -14   1    8.08    1.37
   3  14   1    8.00    1.28
   3  14   1    7.22    1.01
   3 -14  -1    6.32    1.22
  -3  14  -1    5.96    1.14
  -3 -14   1    6.45    0.99
   3 -14   1    6.76    1.24
   3 -14  -1    7.36    1.31
   3  14   1    8.14    1.33
   3 -15   1  633.06   12.74
  -3 -15   1  651.62   11.40
  -3  15   1  645.25   12.92
  -3 -15   1  632.63   12.87
  -3  15  -1  658.40   12.84
  -3 -15  -1  630.25   12.56
   3 -15   1  636.44   12.77
   3  15   1  658.54   10.71
  -3  15   1  647.11   12.95
   3  15   1  637.56   12.28
  -3 -15  -1  640.56   12.64
  -3 -15   1  625.00   12.82
   3  15   1  647.15   12.69
   3  15   1  662.00   12.78
   3  15  -1  653.27   12.98
  -3  15  -1  667.49   12.90
  -3  15   1  651.92   13.87
   3 -15  -1  633.11   12.81
   3 -15  -1  633.11   12.81
   3 -15  -1  664.92   12.92
  -3  15  -1  650.62   12.32
  -3  15   1  639.83   12.82
  -3 -15  -1  645.78   12.44
   3  15  -1  663.34   13.07
   3  16  -1   26.46    2.45
  -3  16   1   26.76    2.42
   3  16   1   25.07    2.29
  -3 -16  -1   31.27    2.53
   3  16  -1   26.41    2.40
   3  16   1   24.44    1.68
  -3  16  -1   29.09    2.34
  -3  16   1   28.99    2.85
   3 -16  -1   29.56    2.54
   3 -16   1   25.60    2.37
  -3  16  -1   31.59    2.58
  -3  16   1   25.53    2.35
  -3  16   1   24.72    2.35
  -3 -16  -1   30.43    2.50
  -3 -16   1   23.25    2.26
   3 -16   1   22.71    2.25
  -3 -16   1   25.81    1.96
   3  16   1   25.11    2.30
   3  16   1   27.81    2.31
   3  16   1   24.84    1.69
  -3 -16  -1   28.96    2.38
  -3 -16   1   23.74    2.30
   3 -16  -1   29.99    2.56
  -3  16  -1   29.39    2.49
  -3 -17   1   47.98    2.80
   3  17  -1   49.16    3.37
   3  17   1   47.97    3.25
  -3  17   1   57.79    3.64
  -3  17   1   53.15    3.49
  -3 -17  -1   48.75    3.16
   3  17   1   46.80    2.33
   3  17   1   50.34    2.39
  -3  17  -1   50.56    3.13
  -3  17  -1   49.70    3.34
   3  17  -1   49.61    3.42
   3  17   1   51.62    3.22
  -3  17  -1   48.58    3.31
  -3  17   1   53.13    3.45
  -3  17   1   51.48    3.83
   3  17   1   45.59    3.17
  -3 -18   1    5.17    1.01
  -3  18   1    6.57    1.43
  -3  18   1    5.29    1.37
   3  18  -1    7.69    1.15
  -3  18  -1    7.35    1.37
   3  18  -1    4.57    1.17
  -3  18  -1    6.22    1.41
  -3  18   1    5.79    1.66
   3  18   1    3.90    0.74
  -3  18  -1    3.15    1.18
  -3  18   1    5.57    1.37
   3  18   1    4.13    1.16
   3  18   1    3.94    1.16
   3  18  -1    4.47    1.28
   3  18   1    4.26    1.20
   3  18   1    3.93    0.72
   3  19   1  456.33   10.96
  -3  19   1  453.37   11.57
   3  19   1  440.63   11.26
  -3  19   1  452.47   11.39
  -3  19  -1  442.00   11.42
   3  19   1  460.12   11.47
  -3  19  -1  424.96   10.55
  -3  19  -1  445.23   11.45
  -3  19   1  456.10   11.61
  -3 -19   1  431.23    9.96
  -3  19   1  439.22   12.41
  -3  20  -1    6.93    1.43
  -3 -20   1    8.21    1.36
  -3  20   1   11.03    2.21
  -3 -21   1   19.07    2.61
  -3  21  -1   19.19    2.21
  -3  21   1   23.54    3.07
  -4   0   1  110.61    3.63
   4   0   1  110.55    3.45
  -4   0   1  111.95    3.67
  -4   0   1  114.98    3.36
   4   0  -1   95.10    3.42
   4   0   1  111.95    3.12
   4   0   1  116.56    4.15
   4   0  -1   94.81    3.35
   4   0  -1   98.42    3.49
   4   0   1  112.20    3.45
  -4   0  -1   99.74    2.21
   4   0  -1   96.89    3.39
  -4   0  -1   98.50    2.86
   4   0  -1   96.76    3.22
  -4   0  -1   96.08    2.95
   4   1   1  553.73    7.33
   4  -1   1  541.58   10.13
   4  -1  -1  566.66    9.77
  -4   1   1  550.91    9.25
   4   1  -1  562.38    9.66
   4  -1  -1  570.56    9.85
   4  -1  -1  578.06    9.89
  -4   1  -1  572.80    8.92
  -4  -1   1  553.06    9.62
   4   1   1  551.19    9.25
  -4  -1  -1  558.44    8.69
   4   1  -1  568.79    9.18
   4   1   1  531.17   10.36
   4   1   1  553.32    9.26
  -4   1   1  531.84    9.63
   4   1  -1  578.37    9.86
  -4   1  -1  581.28    7.82
   4  -1   1  537.39    8.40
  -4  -1  -1  576.62    7.13
  -4  -1   1  529.85    9.58
  -4  -1   1  542.54    9.64
   4   1  -1  572.62    9.82
   4  -1   1  541.70    9.26
   4   1  -1  578.39    9.75
   4  -1   1  535.89    8.65
   4   1   1  541.78    8.68
  -4  -1   1  543.60    8.97
  -4  -1  -1  566.26    8.82
   4  -1  -1  575.14    9.69
   4  -1  -1  564.68    9.47
  -4   1  -1  580.25    8.56
  -4   1   1  531.17    9.45
  -4  -1   1  539.49    9.58
   4  -1   1  544.59    9.27
   4  -2   1   13.29    1.00
   4  -2  -1   10.94    1.15
   4   2  -1   12.21    1.29
   4  -2  -1   14.43    1.33
  -4  -2   1   13.26    1.33
  -4  -2  -1   12.40    1.19
  -4  -2   1   15.71    1.40
   4   2  -1   10.35    1.16
   4   2  -1   12.89    1.28
   4   2   1   14.65    1.30
  -4   2  -1   12.30    1.10
  -4  -2  -1   11.57    1.03
  -4  -2  -1   13.69    1.27
  -4   2  -1   10.45    0.91
   4   2  -1   12.03    1.07
   4  -2   1   16.03    1.62
  -4   2   1   12.45    1.34
  -4  -2   1   13.97    1.33
  -4   2  -1   11.86    0.92
   4   2   1   12.93    1.19
   4  -2  -1   10.58    1.16
  -4   2   1   12.92    1.25
  -4   2   1   11.42    1.22
   4   2   1   13.74    0.70
  -4  -2   1   13.02    1.18
  -4  -2   1   12.71    1.39
  -4  -2  -1   11.61    1.06
   4  -2  -1   12.14    1.27
   4   2   1   14.31    1.11
   4   2  -1   11.91    1.22
   4  -2   1   13.04    1.09
   4  -2  -1   13.46    1.33
  -4  -3  -1 1301.63   17.00
   4  -3   1 1262.47   18.06
   4   3  -1 1292.43   18.04
   4   3   1 1302.49   16.94
  -4   3   1 1265.65   18.07
  -4  -3  -1 1275.44   17.49
   4   3   1 1293.34   17.48
   4   3   1 1306.52   17.50
  -4  -3  -1 1251.10   17.42
  -4  -3   1 1314.78   18.07
  -4   3  -1 1287.05   16.30
   4  -3  -1 1322.48   17.94
  -4   3   1 1299.12   17.86
   4  -3   1 1292.61   16.96
   4   3   1 1292.69   14.84
  -4  -3  -1 1262.45   16.98
   4  -3  -1 1297.88   18.14
  -4  -3   1 1318.36   18.07
  -4  -3   1 1281.67   17.96
   4  -3  -1 1307.51   18.05
  -4   3  -1 1278.81   16.33
   4   3  -1 1257.19   17.06
   4   3  -1 1303.68   17.98
  -4  -3   1 1291.82   18.01
   4   3  -1 1298.30   18.05
   4  -3   1 1281.50   16.33
  -4   3   1 1276.46   17.81
  -4   3  -1 1309.13   17.03
   4   4   1   13.65    0.75
   4  -4  -1   14.84    1.41
   4  -4   1   14.02    1.31
  -4   4  -1   17.70    1.16
   4   4   1   15.10    1.34
   4   4  -1   16.74    1.46
   4   4  -1   18.02    1.56
   4   4  -1   16.18    1.24
  -4  -4   1   14.46    1.36
  -4  -4   1   13.56    1.34
  -4  -4  -1   15.08    1.33
   4   4   1   14.52    1.60
   4  -4   1   14.02    1.05
  -4  -4  -1   15.11    1.35
   4   4   1   12.26    1.22
   4  -4   1   14.39    1.44
  -4  -4  -1   16.42    1.30
  -4   4  -1   16.17    1.22
   4  -4   1   14.58    1.37
   4  -4  -1   16.82    1.51
  -4   4   1   12.02    1.34
  -4   4   1   15.48    1.49
  -4   4   1   11.95    1.30
  -4   4  -1   15.32    1.26
  -4  -4   1   13.90    1.43
   4  -4   1   13.91    1.18
   4  -4  -1   14.34    1.34
   4   4  -1   16.95    1.49
  -4  -4   1   11.94    1.31
   4  -5   1    7.12    0.79
  -4   5   1    8.01    1.15
  -4  -5  -1    8.55    1.04
   4  -5   1    8.12    1.07
   4  -5  -1   11.25    1.28
  -4  -5  -1    8.00    1.01
   4   5   1   10.73    1.61
   4  -5  -1   10.32    1.24
   4  -5  -1    7.75    0.99
  -4   5   1    6.07    1.02
   4  -5  -1   10.15    1.20
  -4   5  -1    8.01    0.96
   4  -5   1    5.78    0.85
   4   5  -1    8.52    1.10
   4   5  -1    9.60    1.03
   4   5   1    5.81    0.56
  -4  -5  -1    8.48    1.02
  -4   5   1    8.18    1.08
  -4  -5   1    5.31    0.90
   4  -5  -1    9.99    1.26
  -4  -5   1    5.43    0.90
   4   5  -1    7.20    1.01
   4   5  -1   10.51    1.21
  -4  -5   1    7.52    1.09
  -4   5   1    6.20    1.03
   4  -5   1    6.79    1.00
   4  -5   1    8.50    1.10
   4   5   1    7.91    1.01
   4   5   1    8.19    1.06
   4  -5   1    7.59    1.02
  -4  -5   1    7.31    1.12
  -4   6   1   19.78    1.63
   4  -6   1   16.74    1.53
  -4  -6  -1   22.69    1.64
  -4   6   1   17.92    1.60
   4  -6  -1   21.65    1.65
  -4  -6   1   18.32    1.58
  -4  -6   1   17.65    1.60
   4  -6  -1   19.12    1.66
   4   6   1   19.12    1.92
  -4  -6  -1   22.73    1.66
  -4  -6   1   16.79    1.49
  -4   6   1   17.18    1.62
   4  -6   1   19.12    1.35
   4   6  -1   19.54    1.68
  -4   6   1   18.29    1.67
   4  -6   1   18.28    1.59
   4  -6   1   16.86    1.39
   4   6  -1   19.56    1.45
  -4  -6   1   16.85    1.61
   4  -6  -1   21.30    1.71
   4  -6  -1   20.54    1.69
  -4   6  -1   21.87    1.55
   4   6  -1   19.77    1.69
   4  -6  -1   22.30    1.83
   4  -6   1   17.81    1.48
  -4  -6  -1   21.57    1.66
   4   6   1   18.89    1.55
   4   6   1   14.65    1.36
   4  -6   1   17.11    1.48
  -4  -6  -1   20.43    1.52
   4   7  -1 1214.83   17.72
  -4   7   1 1201.59   18.08
   4  -7  -1 1224.69   17.47
   4  -7  -1 1183.78   17.61
   4  -7  -1 1181.96   17.60
  -4  -7   1 1169.71   17.59
  -4  -7   1 1206.90   17.70
  -4  -7  -1 1196.06   16.88
  -4  -7  -1 1208.78   17.27
   4  -7   1 1180.97   16.00
   4  -7   1 1198.33   16.21
  -4   7   1 1194.10   17.67
  -4  -7   1 1192.54   17.86
   4   7   1 1192.75   17.14
   4   7  -1 1210.40   17.71
   4  -7  -1 1195.35   17.77
  -4  -7  -1 1239.35   17.48
   4  -7   1 1222.90   16.25
  -4  -7   1 1211.22   16.26
  -4  -7  -1 1210.73   17.29
  -4  -7   1 1191.29   17.61
  -4   7  -1 1212.07   17.02
   4  -7   1 1201.74   17.33
   4  -7   1 1238.87   16.99
   4   7   1 1180.34   18.27
   4   7   1 1199.10   17.16
   4  -7   1 1197.33   17.31
   4  -8  -1    5.32    0.97
   4  -8  -1    5.91    1.03
   4   8   1    3.83    0.84
   4   8  -1    6.52    1.05
   4  -8  -1    6.44    1.07
   4   8  -1    6.04    1.09
   4  -8   1    3.81    0.82
  -4  -8  -1    5.65    0.97
   4   8   1    4.87    0.94
   4  -8   1    2.73    0.63
  -4  -8  -1    6.47    1.04
  -4  -8   1    3.68    0.95
  -4   8  -1    5.38    0.96
  -4  -8   1    3.26    0.64
  -4  -8  -1    6.77    1.04
  -4  -8   1    3.64    0.87
  -4  -8   1    4.94    1.03
   4  -8  -1    5.77    1.01
   4  -8   1    3.12    0.76
   4  -8   1    3.52    0.68
  -4   8   1    3.28    0.99
  -4  -8   1    3.63    0.94
   4   8   1    5.20    1.31
  -4   8   1    3.96    0.99
   4  -8   1    3.56    0.72
   4  -8   1    4.23    0.90
  -4  -8  -1    7.30    1.08
   4  -9   1  177.65    4.17
  -4  -9   1  178.45    4.60
   4   9  -1  176.40    5.41
   4   9   1  180.23    5.58
  -4  -9   1  175.43    5.40
  -4   9  -1  178.81    5.28
   4  -9  -1  179.44    5.43
   4  -9   1  176.37    5.29
   4   9   1  172.36    5.14
   4  -9  -1  178.39    5.25
  -4   9   1  179.07    5.50
  -4  -9  -1  176.77    5.12
   4   9  -1  178.90    5.45
  -4  -9   1  177.95    5.42
   4  -9   1  178.98    5.06
   4  -9   1  180.77    4.20
  -4   9   1  178.10    5.70
   4  -9   1  185.20    4.66
  -4   9  -1  180.57    5.30
   4  -9  -1  181.04    5.46
   4  -9  -1  179.98    5.50
  -4  -9   1  171.59    5.34
   4   9   1  173.76    5.17
  -4  -9  -1  170.97    5.13
   4  -9   1  179.05    5.33
  -4   9  -1  183.29    5.30
  -4  -9  -1  178.25    5.24
  -4   9  -1  178.22    5.37
  -4  -9  -1  174.95    5.18
   4  10  -1   31.67    2.28
  -4 -10   1   29.84    2.27
  -4 -10  -1   29.60    2.11
  -4  10   1   34.44    2.56
   4 -10  -1   30.44    2.29
   4 -10   1   29.34    2.17
   4  10  -1   33.51    2.34
  -4  10   1   29.80    2.28
   4 -10  -1   28.67    2.10
   4  10   1   27.55    2.08
  -4  10  -1   29.55    2.15
  -4 -10   1   29.56    2.23
  -4 -10  -1   30.89    2.16
   4 -10  -1   29.29    2.24
  -4  10  -1   27.61    2.09
  -4 -10   1   31.38    2.30
   4 -10   1   29.46    2.05
   4 -10  -1   29.59    2.23
   4 -10   1   28.12    1.48
   4 -10   1   30.67    2.18
   4 -10   1   29.15    1.47
  -4 -10  -1   30.55    2.16
  -4 -10   1   28.53    1.77
  -4 -10  -1   29.71    2.12
   4  10   1   27.63    2.24
   4 -10   1   29.14    1.82
   4  10   1   27.00    2.04
  -4  10  -1   30.74    2.23
   4  11  -1  475.23   10.15
   4 -11   1  493.72    9.84
   4 -11   1  482.61   10.13
   4 -11   1  494.11    7.49
  -4  11  -1  491.27   10.13
  -4 -11   1  485.17   10.21
  -4  11  -1  476.01   10.00
  -4 -11   1  490.34   10.24
  -4 -11  -1  487.37    9.95
   4 -11   1  487.62    9.07
   4 -11  -1  466.75   10.14
  -4 -11   1  493.25    8.91
   4 -11   1  479.52   10.10
  -4 -11  -1  470.25    9.72
   4 -11  -1  491.34   10.38
   4 -11  -1  469.33   10.15
   4  11   1  483.28    9.78
   4 -11   1  484.75    7.46
  -4  11   1  466.73   10.59
  -4 -11  -1  491.56    9.86
   4  11   1  505.07   10.03
   4 -11  -1  478.87    9.96
  -4 -11   1  484.95   10.22
   4  11  -1  488.08   10.26
   4  11   1  496.94    9.96
   4  11   1  489.86    9.89
  -4  11   1  493.47   10.31
  -4 -11  -1  479.86    9.91
  -4  11  -1  463.49    9.85
   4 -12   1    4.09    1.07
   4 -12   1    4.72    0.88
   4  12  -1    4.12    1.10
  -4 -12   1    4.32    1.17
  -4  12  -1    3.54    1.08
  -4  12   1    5.57    1.26
   4  12   1    4.87    1.19
  -4 -12   1    3.48    1.07
  -4 -12  -1    6.49    1.21
   4 -12  -1    3.73    1.03
   4 -12   1    3.00    0.94
  -4  12   1    6.23    1.35
  -4 -12  -1    5.14    1.22
   4  12  -1    4.43    1.14
  -4 -12   1    5.15    1.13
  -4  12   1    5.64    1.17
   4  12   1    5.79    1.21
   4 -12  -1    3.63    1.04
   4 -12   1    5.25    0.62
   4 -12  -1    3.16    0.93
  -4 -12  -1    5.52    1.17
  -4 -12   1    4.74    0.82
   4  12   1    4.80    1.13
  -4 -12  -1    4.81    1.02
  -4  12  -1    4.77    0.97
   4  12   1    4.51    1.09
  -4  12  -1    5.59    1.04
   4 -12   1    4.12    1.02
  -4  12   1    4.93    1.25
   4  13   1  495.27   10.54
   4 -13   1  502.89   10.54
   4 -13   1  496.12    9.67
   4  13   1  486.51    9.96
  -4  13   1  497.51   11.49
  -4 -13  -1  501.54   10.39
   4 -13   1  470.50   10.61
  -4 -13   1  491.65   10.89
  -4  13   1  490.80   10.90
   4  13   1  505.37   10.63
   4  13  -1  500.49   10.89
   4 -13   1  480.28   10.72
  -4 -13   1  495.74    9.42
  -4 -13   1  495.44   10.94
  -4 -13  -1  499.54   10.65
  -4  13   1  511.16   11.00
  -4  13   1  508.92   10.97
   4 -13  -1  492.51   10.89
   4 -13  -1  508.27   10.72
  -4  13  -1  514.80   10.85
   4  13  -1  513.16   11.01
  -4  13  -1  498.40   10.62
   4  13   1  491.19    9.96
  -4  13  -1  508.81   10.78
  -4 -13  -1  497.32   10.50
   4 -13  -1  505.14   11.00
  -4 -13   1  492.23   10.93
  -4 -13  -1  506.43   10.69
   4 -14  -1   25.99    1.03
  -4  14  -1   25.23    2.27
  -4  14   1   27.98    2.43
  -4 -14   1   22.13    2.25
  -4 -14  -1   27.29    2.37
   4  14  -1   24.31    2.29
   4 -14  -1   27.28    2.46
   4 -14   1   22.49    2.18
   4  14   1   27.72    2.34
   4 -14   1   24.29    1.94
  -4  14   1   24.68    2.32
  -4 -14   1   22.58    2.21
   4 -14  -1   25.16    2.26
  -4 -14  -1   26.70    2.32
   4  14   1   24.73    1.97
  -4 -14  -1   31.61    2.47
   4 -14  -1   25.70    1.04
   4  14  -1   24.14    2.28
  -4  14  -1   28.27    2.31
  -4 -14   1   22.63    1.83
   4  14   1   24.02    2.17
   4  14   1   24.50    1.98
   4 -14  -1   27.69    2.43
  -4  14   1   26.58    2.39
  -4  14  -1   26.27    2.30
   4 -14   1   22.69    2.18
  -4  14   1   28.09    2.70
  -4 -14   1   25.49    2.35
  -4 -14  -1   25.67    2.20
  -4  15  -1  254.80    7.67
  -4 -15   1  258.02    7.85
  -4  15  -1  264.47    7.80
   4 -15  -1  265.46    7.91
  -4 -15  -1  257.29    7.63
   4  15   1  257.84    6.70
  -4 -15   1  257.11    7.84
   4 -15   1  262.40    7.86
   4  15   1  263.38    7.70
   4 -15   1  255.94    6.94
  -4 -15  -1  257.60    7.63
  -4  15  -1  268.65    7.63
   4  15  -1  261.29    7.84
  -4 -15   1  273.04    8.07
  -4  15   1  254.01    8.33
  -4 -15  -1  263.47    7.51
  -4  15   1  255.36    7.80
   4  15   1  261.71    7.69
  -4  15   1  263.55    7.93
   4 -15  -1  265.48    7.68
  -4 -15   1  258.30    6.65
   4 -15  -1  259.80    7.85
   4  15  -1  267.21    7.91
  -4  15   1  267.50    7.95
   4 -15   1  256.45    7.77
   4  15   1  255.75    6.69
  -4 -15  -1  261.90    7.65
   4  16  -1    6.56    1.34
  -4  16   1    1.36    0.80
  -4  16  -1    4.06    1.12
  -4  16   1    2.65    0.99
  -4  16   1    3.41    1.37
  -4 -16   1    3.82    1.10
   4  16   1    4.84    1.25
  -4  16   1    4.18    1.30
   4  16   1    3.38    0.88
  -4 -16   1    2.97    0.84
  -4  16  -1    2.99    1.05
   4  16   1    5.42    1.00
   4  16   1    3.60    0.97
  -4 -16  -1    5.97    1.25
  -4  16  -1    5.81    1.48
  -4  16  -1    3.46    1.02
   4 -16   1    3.04    0.80
   4  16  -1    3.58    1.05
   4 -16  -1    4.46    1.08
  -4  17  -1  386.61   10.83
   4 -17   1  391.16    9.46
   4  17   1  385.84    8.53
  -4 -17   1  404.22    9.16
  -4  17  -1  388.60   10.31
   4  17   1  406.53    8.67
  -4  17   1  402.85   11.27
   4  17   1  400.59   10.32
  -4  17   1  404.41   10.56
  -4  17  -1  392.78    9.97
  -4  17   1  406.61   10.69
   4  17  -1  379.39   10.34
   4  17  -1  387.81   10.43
  -4 -17   1  400.92   10.67
   4  17   1  396.69   10.29
  -4  17   1  403.17   10.63
  -4  17  -1  402.29   10.47
   4  18   1    7.06    1.47
  -4  18  -1    2.91    1.01
  -4 -18   1    6.37    1.59
  -4  18   1    4.03    1.31
   4  18   1    6.36    1.06
   4 -18   1    5.84    1.14
  -4  18   1    7.26    1.62
  -4 -18   1    5.42    1.07
   4  18   1    7.21    1.10
  -4  18   1    4.06    1.33
  -4  18  -1    4.46    1.57
  -4  18   1    7.88    1.67
   4  18   1    6.36    1.42
  -4  18  -1    2.72    1.11
   4  18  -1    3.88    1.32
   4  18  -1    1.82    0.80
  -4  18  -1    4.75    1.32
  -4 -19   1   -0.08    0.56
  -4  19  -1    2.70    1.35
  -4  19   1    2.35    1.35
  -4  19  -1    0.67    0.82
  -4 -19   1    2.10    1.33
  -4 -20  -1   10.56    1.85
  -4  20  -1   11.16    1.85
  -4  20  -1   11.95    2.15
  -4 -20   1    9.31    1.80
  -4  20   1   12.53    2.23
  -4 -21   1  343.89   10.87
  -4 -21  -1  332.98   10.47
  -4  21   1  355.61   11.76
  -4  21  -1  329.70   11.13
   5   0  -1   -0.26    0.67
   5   0  -1   -0.04    0.64
   5   0   1    0.48    0.63
   5   0   1    0.33    0.61
   5   0  -1    0.04    0.57
  -5   0  -1   -0.03    0.30
   5   0  -1   -0.40    0.53
  -5   0   1   -0.46    0.82
   5   0   1   -0.49    0.42
  -5   0  -1   -0.76    0.62
  -5   0   1    0.68    0.61
  -5   0   1    0.28    0.56
  -5   0  -1   -0.21    0.48
   5   0   1    0.28    0.39
   5   0  -1   -0.21    0.55
   5  -1  -1  615.44   10.64
  -5   1  -1  602.13   10.24
   5  -1   1  646.04   10.97
   5  -1  -1  591.76   10.94
  -5   1   1  632.75   11.31
  -5   1   1  635.50   10.55
   5   1   1  643.32    8.68
   5   1   1  610.83   10.79
  -5  -1  -1  596.34   10.16
   5  -1   1  640.20    9.97
   5   1  -1  592.34   10.29
  -5  -1  -1  606.85   10.02
   5  -1   1  589.08   11.95
   5   1  -1  589.71   10.88
   5  -1   1  637.28   10.24
  -5   1  -1  604.48    9.78
  -5  -1   1  634.88   11.11
  -5  -1   1  641.46   10.37
   5   1   1  631.90   10.92
   5  -1  -1  578.54   11.04
  -5  -1  -1  596.00    8.23
   5   1  -1  604.30   10.98
  -5  -1   1  640.24   11.26
   5   1   1  633.73   10.26
   5   1  -1  615.04   11.26
  -5   1  -1  594.93    8.78
  -5   1   1  617.55   10.96
   5   1  -1  596.35   11.15
   5  -1  -1  580.12   11.05
   5  -1   1  629.51   10.89
   5  -1  -1  606.69   10.85
  -5  -2  -1   28.06    1.97
   5   2   1   26.85    1.72
   5   2  -1   28.03    2.01
  -5   2   1   23.76    1.75
  -5   2   1   23.63    1.98
  -5   2   1   24.37    1.88
   5   2  -1   27.61    2.06
   5  -2   1   25.68    1.68
   5   2   1   24.48    1.82
  -5  -2  -1   26.21    1.72
   5   2   1   23.22    1.78
  -5   2  -1   26.79    1.75
   5  -2  -1   27.27    1.96
   5   2   1   24.78    1.16
   5  -2  -1   27.51    1.98
   5   2  -1   29.78    2.11
   5   2  -1   26.75    2.03
  -5  -2   1   23.33    1.89
   5  -2   1   26.29    1.90
  -5   2  -1   28.32    1.49
  -5  -2   1   25.99    2.01
  -5  -2   1   26.40    1.95
   5  -2  -1   32.21    2.24
   5  -2  -1   28.24    1.92
   5   2  -1   26.20    1.72
   5  -2   1   25.77    2.25
   5  -2   1   23.51    1.80
  -5  -2   1   23.68    1.69
   5  -2   1   26.64    1.62
  -5  -2  -1   27.62    1.74
   5  -2  -1   24.64    1.98
  -5  -2   1   25.63    1.94
  -5   2  -1   27.87    1.64
  -5  -3  -1  181.97    4.88
  -5   3   1  188.25    5.21
  -5   3   1  182.89    5.48
   5  -3  -1  183.88    5.48
   5  -3   1  188.77    4.54
  -5  -3   1  190.93    5.51
  -5   3  -1  182.52    4.89
   5   3   1  186.01    4.86
   5   3  -1  182.08    5.38
   5   3   1  191.61    5.27
   5  -3   1  188.45    4.89
   5  -3   1  183.37    5.77
   5   3   1  187.04    3.52
   5   3  -1  191.82    5.57
   5  -3  -1  186.90    5.28
   5   3  -1  183.15    5.46
  -5  -3   1  189.42    5.49
  -5  -3  -1  184.89    5.21
   5  -3  -1  188.13    5.39
  -5   3  -1  189.51    4.38
   5   3   1  187.65    5.22
  -5  -3  -1  184.40    5.21
   5  -3  -1  186.23    5.42
  -5  -3   1  178.73    5.35
  -5  -3  -1  179.37    4.83
  -5   3  -1  174.68    4.42
  -5  -3   1  176.50    5.31
   5  -3  -1  195.51    5.63
   5   3  -1  179.65    4.74
  -5   3   1  183.47    5.31
  -5   4   1   55.16    2.80
  -5   4   1   52.62    2.74
   5  -4   1   54.53    3.01
  -5  -4   1   55.51    2.88
   5  -4   1   53.20    2.76
   5   4  -1   61.74    3.08
   5  -4   1   52.44    2.52
   5   4  -1   56.56    2.88
  -5   4  -1   57.94    2.65
  -5  -4  -1   59.71    2.86
   5   4   1   52.02    1.70
   5  -4   1   54.33    2.78
  -5  -4   1   50.62    2.79
   5   4   1   50.83    2.67
   5   4  -1   53.57    2.87
   5  -4  -1   58.47    2.98
   5   4  -1   58.91    2.57
  -5  -4   1   52.29    2.83
  -5  -4   1   51.92    2.80
   5   4   1   52.35    2.51
  -5   4  -1   56.85    2.37
   5  -4   1   51.39    2.26
  -5  -4  -1   58.20    2.61
  -5   4   1   53.20    2.88
  -5  -4  -1   60.88    2.87
  -5  -4  -1   56.49    2.65
   5  -4  -1   55.80    2.80
   5  -4  -1   56.33    2.93
  -5   4  -1   59.34    2.41
   5   4   1   53.73    2.73
   5   5   1 1125.45   14.05
  -5  -5   1 1113.49   17.29
  -5   5  -1 1118.34   15.61
   5  -5  -1 1161.30   17.56
   5  -5   1 1160.23   15.75
   5  -5  -1 1144.86   17.62
  -5   5   1 1124.52   17.14
  -5   5   1 1165.17   17.39
   5  -5  -1 1146.56   17.57
  -5   5  -1 1141.98   15.95
   5   5   1 1142.07   17.01
  -5  -5  -1 1155.20   17.07
  -5   5  -1 1133.93   16.56
   5  -5   1 1116.99   17.28
  -5  -5   1 1123.78   17.41
   5  -5   1 1167.93   16.57
  -5  -5  -1 1145.48   17.02
   5   5  -1 1162.32   17.49
   5   5  -1 1133.52   17.52
   5  -5   1 1144.31   17.14
   5  -5  -1 1178.07   17.23
   5   5  -1 1124.10   16.10
  -5  -5   1 1116.97   17.37
   5   5   1 1141.52   16.99
  -5  -5   1 1121.02   17.40
  -5   5   1 1134.07   17.47
  -5  -5  -1 1116.16   16.52
  -5  -5  -1 1150.84   16.53
   5  -5   1 1135.02   17.10
   5   5  -1 1135.87   17.53
   5  -5  -1 1164.21   17.60
  -5   6   1   57.32    2.91
   5   6   1   53.39    2.76
  -5  -6   1   53.48    2.89
   5   6  -1   46.21    2.70
   5   6  -1   48.71    2.82
  -5  -6  -1   41.30    2.50
  -5  -6   1   54.10    2.96
  -5  -6  -1   43.51    2.56
   5  -6   1   53.97    2.63
   5   6   1   51.98    2.74
  -5   6   1   50.72    2.91
  -5  -6   1   52.96    2.95
   5  -6  -1   47.93    2.88
   5   6  -1   48.23    2.42
   5  -6  -1   47.01    2.80
  -5   6  -1   47.97    2.41
   5   6  -1   44.19    2.69
  -5   6   1   58.77    3.06
   5  -6  -1   48.14    2.83
   5  -6   1   53.11    2.86
   5  -6  -1   45.14    2.59
   5  -6   1   54.15    2.39
   5  -6  -1   44.51    2.67
   5   6   1   53.87    3.40
  -5  -6  -1   45.26    2.46
   5  -6   1   55.40    2.92
   5  -6   1   54.00    2.82
   5   6   1   51.35    1.80
   5  -6   1   51.19    2.78
  -5   6   1   52.03    2.91
  -5  -6   1   52.04    2.91
  -5  -7   1   69.39    3.43
   5  -7   1   72.99    3.18
  -5  -7  -1   71.99    3.32
   5   7  -1   74.58    3.05
   5   7   1   74.75    3.33
   5  -7  -1   71.00    3.29
   5  -7   1   69.90    3.34
  -5   7   1   75.60    3.59
   5  -7   1   76.60    3.26
   5   7   1   76.96    4.06
   5   7   1   73.03    2.31
   5  -7   1   75.15    2.87
  -5  -7  -1   72.56    3.37
   5   7  -1   74.51    3.52
   5   7  -1   77.23    3.60
  -5  -7  -1   70.25    3.15
  -5   7   1   70.85    3.50
  -5  -7   1   71.56    3.47
   5  -7  -1   67.65    3.38
   5  -7  -1   70.07    3.43
  -5  -7  -1   68.79    3.25
   5   7   1   68.14    3.20
  -5   7   1   72.93    3.51
  -5  -7   1   72.84    3.47
   5  -7   1   71.89    3.17
  -5   7  -1   74.96    3.16
  -5  -7   1   71.25    3.51
   5  -7   1   73.54    3.42
   5  -7  -1   66.80    3.38
   5   8  -1   17.83    1.84
   5   8   1   15.69    1.63
   5   8   1   20.09    2.28
   5  -8   1   17.07    1.62
   5  -8   1   19.04    1.86
   5  -8  -1   19.78    1.92
   5  -8   1   19.35    1.82
   5  -8   1   17.44    1.42
  -5  -8  -1   18.31    1.75
  -5   8   1   16.99    1.81
   5  -8   1   16.85    1.58
   5  -8  -1   17.59    1.83
  -5  -8  -1   18.98    1.77
   5   8   1   16.36    1.66
  -5  -8   1   18.89    1.95
  -5  -8  -1   19.52    1.79
  -5  -8   1   17.33    1.77
   5  -8   1   17.41    1.67
  -5  -8  -1   18.05    1.69
  -5  -8   1   20.50    1.60
  -5   8  -1   19.42    1.76
  -5   8   1   17.12    1.86
   5   8  -1   18.52    1.85
   5   8  -1   19.25    1.64
   5  -8  -1   18.91    1.87
  -5  -8   1   15.76    1.71
  -5  -8   1   19.21    1.95
   5  -8  -1   18.02    1.73
   5   9  -1  745.47   13.54
  -5   9   1  714.32   13.45
   5  -9   1  723.18   13.21
   5  -9  -1  766.28   13.70
  -5  -9   1  718.52   13.36
  -5  -9   1  699.87   13.42
  -5   9   1  727.26   13.60
  -5  -9  -1  748.59   12.89
   5  -9   1  717.22   11.73
   5  -9  -1  742.01   13.14
  -5  -9   1  716.07   13.33
  -5  -9  -1  727.98   13.11
  -5   9  -1  726.46   12.89
   5   9  -1  755.63   13.62
   5  -9  -1  744.65   13.56
   5  -9   1  709.45   11.68
  -5  -9  -1  753.33   13.25
  -5   9  -1  769.10   13.59
   5  -9   1  731.36   12.79
   5  -9  -1  740.74   13.57
   5  -9   1  733.17   11.84
   5  -9   1  715.58   13.17
   5   9   1  726.05   13.01
  -5  -9  -1  735.05   13.15
   5   9   1  705.92   13.96
   5   9   1  730.11   13.04
  -5  -9   1  737.18   12.13
  -5  -9   1  707.82   13.29
  -5 -10  -1    1.48    0.87
  -5 -10   1    1.95    0.94
  -5 -10   1    3.19    1.05
   5 -10  -1    0.57    0.64
   5 -10  -1    0.33    0.63
  -5  10  -1    1.85    1.08
  -5 -10   1    2.43    0.66
  -5 -10  -1    1.18    0.80
   5 -10  -1    0.54    0.78
   5 -10   1    2.40    0.64
  -5  10   1    3.51    1.17
  -5 -10   1    2.31    0.88
   5 -10  -1    1.23    0.72
   5  10   1    1.81    0.99
  -5 -10  -1    1.70    0.82
   5  10  -1    0.49    0.76
   5  10   1    2.88    0.91
  -5 -10   1    2.18    0.87
  -5  10   1    1.40    0.92
   5  10  -1    1.22    0.88
  -5 -10  -1    2.50    0.94
   5 -10   1    2.53    0.72
   5 -10   1    1.99    0.82
   5 -10   1    3.53    0.91
  -5  10  -1    0.68    0.84
   5 -10   1    2.86    0.75
   5 -10   1    2.30    0.84
   5  10   1    2.75    0.86
  -5  11  -1  248.37    7.10
   5  11  -1  253.98    7.37
   5 -11   1  239.92    6.79
   5  11   1  252.34    7.04
   5 -11   1  242.55    7.16
   5 -11  -1  252.89    7.36
  -5 -11   1  240.26    7.19
  -5 -11  -1  246.20    6.92
   5  11   1  246.46    7.35
   5  11   1  251.32    7.04
   5 -11   1  240.97    7.13
   5 -11  -1  247.49    7.29
   5 -11   1  250.52    5.50
  -5 -11   1  246.99    7.34
  -5  11   1  240.15    7.23
   5 -11   1  244.46    6.18
  -5 -11   1  248.04    7.30
  -5  11   1  255.12    7.54
   5 -11  -1  247.41    7.00
  -5 -11  -1  238.21    6.96
  -5 -11   1  248.80    7.27
  -5  11  -1  228.45    6.97
  -5 -11   1  247.89    6.23
  -5 -11  -1  249.44    6.97
  -5 -11  -1  238.56    6.98
   5  11  -1  248.95    7.32
   5 -11   1  249.14    5.45
   5 -12   1   31.69    2.17
   5  12  -1   36.23    2.76
   5 -12   1   33.93    1.77
   5 -12   1   31.10    1.73
  -5 -12   1   32.38    2.59
  -5 -12  -1   36.75    2.66
   5 -12  -1   35.42    2.75
   5 -12   1   32.20    2.56
   5  12  -1   36.06    2.76
  -5  12   1   30.48    2.65
  -5  12  -1   38.18    2.75
  -5  12   1   32.91    2.69
  -5  12  -1   37.86    2.76
   5 -12  -1   36.02    2.67
  -5 -12  -1   35.64    2.64
   5 -12  -1   32.95    2.66
  -5 -12   1   30.42    2.59
   5 -12   1   32.99    2.53
   5 -12   1   36.20    2.73
  -5 -12  -1   40.89    2.78
  -5 -12  -1   36.13    2.60
   5  12   1   30.98    2.56
  -5 -12   1   35.13    2.26
   5  12   1   32.15    2.48
   5  12   1   28.58    2.38
  -5 -12   1   31.62    2.60
   5  12   1   35.48    2.73
   5 -13  -1  428.75   10.11
  -5 -13   1  433.72    9.09
  -5 -13  -1  423.74   10.18
  -5  13  -1  410.86   10.10
   5  13   1  442.92   10.28
  -5 -13  -1  437.97   10.08
   5  13   1  418.46   10.04
  -5 -13  -1  425.88   10.24
  -5 -13   1  431.26   10.51
   5 -13   1  438.88    9.30
   5  13   1  427.49   10.06
   5 -13  -1  422.78   10.51
  -5  13  -1  432.59   10.50
   5  13  -1  429.64   10.46
   5  13   1  454.16   10.39
  -5  13   1  435.55   10.91
   5 -13   1  451.92    7.37
  -5  13   1  440.25   10.60
   5 -13   1  435.44   10.44
  -5 -13   1  438.30   10.56
   5 -13  -1  430.77   10.58
  -5 -13  -1  427.57   10.03
  -5 -13   1  433.39   10.52
   5 -13   1  452.15    7.33
   5 -13   1  432.58   10.43
   5  13  -1  433.22   10.50
   5 -14  -1    1.22    0.58
   5  14   1    0.35    0.69
   5 -14  -1   -0.14    0.71
  -5  14  -1    0.58    0.77
   5 -14   1    0.79    0.93
   5  14   1    1.26    1.10
  -5  14   1    0.28    0.79
   5  14  -1    0.18    0.82
  -5 -14   1    0.03    0.46
   5 -14   1    0.75    0.62
  -5 -14  -1    0.83    0.66
  -5 -14   1    0.43    0.76
  -5 -14  -1    1.82    0.80
  -5  14   1    2.46    1.41
  -5 -14  -1    1.25    1.06
   5  14  -1    0.82    0.79
   5  14   1    0.49    0.80
   5 -14   1    1.15    0.85
   5 -14   1    0.11    0.27
  -5 -14  -1   -0.75    0.80
   5  14   1    0.35    0.70
  -5  14  -1    0.39    0.96
   5  15  -1  381.86   10.24
  -5  15   1  399.01   10.44
  -5 -15  -1  383.30    9.88
   5  15   1  397.12   10.09
  -5 -15   1  386.06   10.27
   5  15   1  382.38    9.36
   5 -15   1  389.44    9.09
   5 -15  -1  380.03    6.07
   5  15   1  393.86    9.45
   5 -15  -1  377.81    6.04
  -5  15   1  388.68   10.69
  -5  15  -1  380.03    9.90
   5 -15  -1  380.98    9.82
  -5 -15   1  388.18    8.86
  -5  15  -1  376.85   10.26
   5  15   1  394.78   10.06
  -5 -15  -1  384.55    9.74
  -5  15  -1  380.98   10.09
   5  15  -1  385.87   10.31
  -5  15  -1  384.24   10.14
  -5  16  -1   16.27    2.10
  -5  16  -1   14.57    1.96
  -5  16   1   15.55    2.29
   5  16  -1   13.63    1.96
   5  16   1   13.00    1.65
   5  16  -1   16.44    2.11
   5  16   1   16.49    2.09
   5  16   1   15.62    1.97
  -5  16   1   14.75    2.09
  -5  16  -1   15.46    2.05
  -5 -16   1   17.63    2.21
  -5  16  -1   15.06    2.07
  -5 -16  -1   15.40    2.08
   5  16   1   19.15    1.96
   5 -16   1   17.90    1.90
  -5 -16   1   16.36    1.73
  -5  17  -1   25.92    2.57
  -5  17   1   27.99    2.76
   5  17  -1   24.87    2.65
   5  17   1   26.36    2.31
  -5 -17   1   25.19    2.69
  -5  17   1   23.53    2.73
   5  17   1   26.23    2.27
   5  17   1   27.41    2.63
   5  17  -1   24.67    2.61
  -5 -17  -1   28.15    2.70
  -5  17  -1   25.38    2.63
  -5 -17   1   23.58    2.10
   5  17   1   27.28    2.65
  -5  17  -1   31.18    3.08
   5 -17   1   23.23    2.26
  -5  17  -1   26.62    2.66
  -5  18  -1    8.61    1.57
  -5  18   1   14.18    2.31
  -5 -18   1   11.92    1.49
   5  18   1   13.54    1.72
  -5 -18  -1    8.45    1.72
  -5 -18   1   10.11    1.85
  -5  18  -1   10.32    1.99
  -5  19  -1  369.33   10.48
  -5 -19   1  353.89   10.89
  -5  19  -1  356.39   11.18
  -5  19   1  350.14   11.33
  -5 -19  -1  368.07   10.72
  -5 -20  -1    2.84    1.19
  -5 -20   1    3.22    1.32
  -5  20  -1    3.21    1.44
  -5  20   1    0.85    1.22
  -6   0  -1    8.25    1.12
   6   0  -1    6.77    1.11
   6   0   1    5.46    1.06
   6   0  -1    7.24    1.23
  -6   0   1    4.19    0.87
  -6   0  -1    7.43    1.13
  -6   0  -1    7.28    0.77
   6   0   1    4.66    0.92
   6   0   1    3.27    0.81
   6   0  -1    8.03    1.21
   6   0  -1    7.42    1.22
  -6   0   1    5.09    1.08
   6   0  -1    6.00    1.14
  -6   0   1    3.85    1.02
   6   1  -1  409.28    9.01
  -6  -1  -1  396.65    8.30
   6   1   1  383.87    8.69
   6   1   1  380.57    8.67
   6  -1   1  381.35    8.11
  -6  -1   1  392.37    8.06
  -6   1  -1  406.41    6.84
   6  -1  -1  397.27    9.17
   6  -1   1  377.70    8.65
   6  -1  -1  402.53    9.22
  -6   1  -1  409.19    8.46
  -6  -1  -1  410.92    6.40
   6  -1   1  391.89    8.78
   6  -1  -1  398.31    8.86
   6   1   1  391.89    6.64
  -6   1  -1  403.80    8.01
  -6  -1   1  382.50    8.86
  -6   1   1  374.40    8.60
   6  -1  -1  408.10    9.09
  -6  -1   1  382.41    8.91
  -6  -1  -1  399.61    8.10
   6   1  -1  397.22    9.19
   6   1  -1  408.02    8.36
  -6   1   1  380.85    8.11
   6   1  -1  400.16    9.21
   6   1  -1  395.42    8.97
   6  -1  -1  402.17    8.52
  -6   1   1  385.09    8.97
   6  -1   1  389.59    7.89
   6   1   1  378.61    8.09
   6   2  -1   37.99    2.61
  -6   2   1   33.09    2.47
   6  -2   1   39.41    3.05
   6  -2   1   36.92    2.46
   6   2   1   33.86    1.55
  -6   2   1   33.68    2.25
   6   2  -1   35.91    2.53
   6  -2   1   36.63    2.48
   6  -2  -1   36.60    2.62
   6  -2  -1   33.89    2.44
   6  -2   1   35.30    2.09
   6   2   1   33.07    2.31
  -6   2  -1   39.08    2.42
   6   2   1   39.17    2.52
  -6   2   1   34.61    2.40
  -6  -2  -1   37.39    2.29
   6  -2  -1   37.44    2.49
   6   2   1   38.72    2.30
  -6   2  -1   38.18    2.16
   6   2  -1   35.25    2.54
  -6   2  -1   36.42    1.84
   6  -2  -1   40.82    2.72
   6  -2   1   34.04    2.17
   6   2  -1   39.63    2.32
   6  -2  -1   40.08    2.48
   6   2  -1   42.81    2.73
  -6  -2  -1   38.61    2.29
  -6  -2   1   35.15    2.45
  -6  -2   1   35.49    2.51
   6   3   1  644.20   11.35
  -6   3  -1  635.31   10.20
  -6   3   1  634.16   11.94
  -6   3  -1  634.73   10.75
   6   3   1  649.21    9.10
  -6  -3  -1  634.01   11.21
   6  -3  -1  650.80   12.50
   6  -3   1  638.21   12.04
   6   3   1  641.31   11.91
  -6  -3  -1  630.10   11.93
   6   3  -1  644.54   12.38
   6  -3  -1  640.21   11.99
   6  -3   1  655.31   10.88
   6  -3   1  654.16   12.13
   6  -3   1  643.57   11.35
  -6   3   1  640.78   11.62
  -6   3   1  632.13   12.31
  -6  -3  -1  621.49   11.32
   6  -3  -1  637.85   11.96
   6   3  -1  648.41   12.40
  -6  -3   1  634.44   12.34
  -6  -3  -1  641.31   12.02
   6   3   1  644.11   11.93
  -6  -3   1  637.48   12.20
   6  -3  -1  656.30   12.55
  -6   3  -1  630.07   11.40
   6   3  -1  634.34   12.12
   6   3  -1  646.23   11.07
   6  -3   1  654.84   13.19
  -6  -3   1  622.72   12.24
   6  -3  -1  640.90   12.24
  -6  -3   1  625.54   12.12
  -6  -4   1   47.01    2.90
   6  -4   1   50.94    3.34
   6  -4  -1   46.16    2.93
  -6  -4  -1   47.37    2.65
   6  -4   1   49.17    2.44
  -6   4   1   46.97    2.75
   6   4   1   49.50    2.80
   6   4   1   47.63    1.80
   6   4  -1   43.30    2.79
   6  -4   1   52.36    3.01
  -6   4   1   47.71    2.95
   6   4  -1   46.55    2.47
   6  -4  -1   45.26    2.87
  -6   4  -1   42.11    2.50
  -6  -4  -1   48.95    2.88
   6   4   1   50.19    2.87
   6  -4   1   44.76    2.53
  -6  -4   1   47.68    2.92
   6  -4  -1   46.11    2.85
   6  -4  -1   46.29    2.75
   6   4   1   52.40    2.72
  -6   4  -1   45.05    2.36
   6   4  -1   44.76    2.88
  -6  -4   1   49.28    3.04
  -6   4   1   50.91    2.91
  -6  -4  -1   45.51    2.80
   6  -4  -1   46.49    2.88
  -6   4  -1   43.23    2.22
   6  -4   1   48.44    2.87
  -6  -4  -1   44.67    2.51
   6  -4   1   51.96    2.96
   6   4  -1   41.17    2.79
  -6  -4   1   48.08    2.91
  -6   5  -1   52.93    2.55
   6  -5  -1   51.38    3.08
   6  -5   1   45.39    2.37
   6   5   1   46.32    2.81
   6  -5   1   47.47    3.13
   6   5  -1   50.34    3.07
   6   5   1   45.98    1.81
   6  -5   1   42.99    2.73
   6  -5  -1   58.34    3.23
   6   5  -1   53.49    3.09
   6  -5   1   47.29    2.63
   6  -5   1   48.77    2.92
  -6  -5  -1   53.67    3.06
   6  -5  -1   53.02    3.10
   6   5   1   45.33    2.78
   6   5  -1   55.62    3.22
  -6  -5   1   49.56    3.07
  -6  -5  -1   52.94    3.03
   6   5  -1   57.62    2.74
  -6  -5   1   43.61    2.82
  -6  -5  -1   53.32    2.85
  -6   5  -1   56.43    2.96
  -6   5  -1   52.79    2.54
  -6  -5   1   46.79    2.92
  -6   5   1   44.94    2.91
  -6  -5   1   42.91    2.82
  -6   5   1   44.15    2.74
  -6   5   1   45.54    2.78
   6  -5  -1   51.60    3.07
  -6  -5  -1   54.21    2.81
   6  -5  -1   52.57    2.97
  -6   6  -1   26.17    1.92
  -6   6   1   16.76    1.77
   6   6   1   18.65    1.18
   6  -6   1   16.11    1.79
  -6  -6   1   20.16    2.02
   6   6   1   21.25    1.97
  -6  -6   1   18.66    1.94
  -6  -6   1   20.21    1.99
   6   6  -1   22.17    2.07
  -6   6  -1   23.45    1.98
   6  -6   1   16.95    1.83
   6   6  -1   22.04    1.74
   6   6  -1   21.93    2.03
  -6   6   1   20.79    2.01
   6  -6   1   14.50    1.79
   6   6  -1   23.24    2.12
   6  -6  -1   22.21    2.07
   6   6   1   19.04    1.86
   6  -6  -1   19.95    2.02
   6  -6  -1   23.40    2.14
  -6   6  -1   22.57    1.70
  -6  -6   1   19.20    1.95
  -6  -6  -1   23.85    1.92
  -6   6   1   18.40    1.95
  -6   6   1   20.11    2.06
   6  -6  -1   20.76    1.97
   6  -6   1   18.05    1.71
  -6  -6  -1   20.63    1.87
   6  -6  -1   24.30    2.06
   6  -6   1   16.01    1.43
  -6  -6  -1   22.96    2.07
  -6  -6  -1   23.95    2.06
   6  -7   1  721.28   13.56
  -6  -7  -1  698.94   13.23
   6   7   1  753.93   15.36
   6  -7   1  738.84   13.38
   6   7  -1  705.25   13.65
   6  -7   1  741.38   13.67
   6  -7   1  739.69   12.99
  -6  -7   1  746.04   13.72
  -6  -7  -1  697.31   13.22
   6  -7   1  723.03   13.21
  -6  -7   1  742.15   13.84
   6   7   1  762.61   13.50
   6   7  -1  714.44   13.72
   6  -7  -1  718.98   13.65
  -6  -7  -1  720.76   12.87
  -6   7   1  731.78   13.38
   6   7  -1  713.88   12.21
  -6   7   1  741.13   13.87
  -6   7   1  726.74   13.79
   6  -7   1  739.20   12.08
   6   7   1  751.20   13.44
  -6   7  -1  708.56   12.40
  -6  -7   1  739.25   13.82
  -6  -7   1  731.69   13.74
   6  -7  -1  714.24   13.73
   6  -7  -1  718.36   13.76
  -6   7   1  745.71   13.64
   6  -7  -1  722.42   13.27
  -6  -7  -1  699.12   12.96
   6   7   1  747.92   10.46
   6   8   1   18.32    1.91
   6   8   1   18.06    1.24
   6  -8  -1   16.06    1.66
   6   8   1   20.71    2.01
  -6   8   1   18.24    1.97
   6  -8  -1   16.56    1.86
  -6  -8   1   16.80    1.89
   6   8  -1   15.01    1.78
   6   8   1   25.63    2.77
   6  -8   1   20.21    2.04
   6   8  -1   15.40    1.52
  -6  -8  -1   14.53    1.67
  -6   8   1   19.10    2.02
  -6  -8   1   16.01    1.78
  -6  -8   1   17.20    1.94
  -6  -8  -1   18.14    1.90
   6  -8   1   16.67    1.71
   6  -8   1   19.76    1.94
  -6  -8  -1   16.51    1.73
   6  -8  -1   15.66    1.84
   6  -8   1   19.40    1.86
   6   8  -1   16.27    1.82
   6  -8   1   16.73    1.84
  -6  -8  -1   15.17    1.75
  -6  -8   1   18.76    2.02
  -6  -8  -1   16.14    1.79
  -6   8  -1   15.59    1.66
   6  -8   1   19.68    1.64
  -6  -9   1  131.86    5.34
  -6   9   1  124.04    5.16
   6   9   1  132.92    5.09
   6  -9   1  133.64    4.67
   6   9  -1  136.90    5.36
  -6  -9   1  128.43    5.15
  -6  -9   1  127.19    5.24
   6  -9   1  128.96    4.89
  -6  -9  -1  125.69    5.02
   6  -9   1  128.15    4.60
   6  -9  -1  128.36    5.25
   6   9  -1  132.63    4.54
   6   9   1  131.91    5.07
   6   9  -1  131.68    5.28
  -6   9  -1  129.04    4.82
   6  -9   1  136.44    5.26
   6  -9  -1  130.01    5.28
   6   9   1  129.81    3.67
  -6  -9  -1  134.86    4.94
   6  -9  -1  127.52    4.99
  -6  -9   1  123.98    5.17
   6  -9   1  130.87    4.38
  -6  -9   1  131.89    4.59
   6  -9   1  130.40    5.14
  -6  -9  -1  129.32    5.08
  -6  -9  -1  131.43    5.12
   6   9   1  129.78    5.80
  -6   9   1  137.97    5.37
   6  10   1   36.80    3.15
   6  10   1   32.59    2.56
  -6  10   1   33.07    2.68
  -6 -10  -1   33.65    2.58
  -6 -10   1   26.38    2.46
  -6 -10   1   31.95    2.59
  -6 -10  -1   29.19    2.44
   6  10   1   29.39    2.44
  -6 -10   1   34.51    2.76
  -6  10  -1   32.94    2.49
   6 -10  -1   35.25    2.80
   6 -10   1   30.18    2.12
  -6 -10   1   35.29    2.36
  -6  10  -1   31.76    2.65
   6  10   1   29.01    1.76
   6 -10  -1   30.77    2.64
   6 -10   1   34.30    2.56
   6  10  -1   35.19    2.76
  -6 -10   1   30.21    2.62
   6 -10   1   33.83    2.67
   6 -10  -1   32.21    2.48
  -6 -10  -1   30.14    2.51
   6 -10   1   29.27    2.46
  -6 -10  -1   33.31    2.53
   6  10  -1   33.23    2.67
   6 -10   1   30.07    2.13
   6  10  -1   31.14    2.24
  -6  10   1   32.83    2.75
   6 -10   1   33.08    2.22
  -6 -11   1  621.72   11.69
   6  11  -1  628.33   13.20
   6  11   1  637.69   12.88
   6 -11  -1  607.05   13.12
  -6 -11  -1  601.21   12.37
   6 -11   1  623.46   10.98
  -6 -11   1  601.98   13.06
   6  11   1  620.03   12.76
   6  11  -1  614.52   13.10
   6 -11   1  600.15   12.88
   6  11  -1  608.75   11.68
  -6 -11  -1  597.42   12.66
  -6  11   1  633.31   13.23
  -6 -11   1  614.25   12.96
  -6  11   1  621.47   13.22
  -6 -11  -1  599.88   12.49
  -6  11  -1  603.69   12.45
   6 -11  -1  609.35   12.56
   6 -11   1  593.25   12.84
  -6 -11  -1  610.64   12.75
  -6  11  -1  623.87   13.05
   6 -11   1  607.08   11.35
  -6 -11   1  612.27   13.19
  -6 -11   1  602.05   13.04
   6 -11   1  625.24   11.03
   6 -11  -1  603.33   13.08
   6  11   1  651.29   13.92
   6  12   1   -0.61    0.83
   6 -12   1   -0.01    0.55
  -6  12  -1    0.51    0.92
   6  12  -1   -0.04    0.83
  -6  12   1    0.46    0.85
   6 -12   1    0.05    0.51
  -6 -12  -1   -0.17    0.62
   6 -12   1   -0.15    0.49
   6  12   1    0.65    1.03
  -6 -12  -1    0.01    0.85
   6  12  -1   -1.12    0.88
  -6 -12   1   -0.75    0.74
   6 -12  -1   -0.83    0.88
  -6 -12  -1   -0.89    0.82
   6  12   1    0.16    0.68
  -6  12  -1    0.42    0.86
   6  12  -1    0.67    0.72
  -6 -12   1    0.81    0.93
  -6 -12   1    0.91    0.94
  -6  12   1    1.57    0.98
  -6 -12  -1    0.35    0.75
   6 -12   1    0.51    0.81
   6 -12   1    0.00    0.69
   6  13  -1  268.07    8.48
  -6 -13  -1  279.67    8.20
   6 -13  -1  266.66    8.07
  -6 -13  -1  270.76    8.24
  -6 -13   1  280.92    8.71
   6  13  -1  267.55    8.48
  -6  13   1  277.19    8.68
   6 -13   1  282.33    6.31
  -6  13  -1  258.26    8.18
  -6 -13  -1  272.95    8.05
   6  13   1  280.15    8.37
  -6  13  -1  275.22    8.30
   6 -13   1  273.32    6.17
  -6  13   1  290.37    8.83
  -6 -13   1  281.92    7.45
   6  13   1  278.11    8.48
  -6 -13   1  279.47    8.56
   6  13   1  285.72    8.65
   6 -13   1  285.14    7.46
   6  13   1  280.91    8.37
  -6  14  -1   29.42    2.77
   6 -14   1   34.15    1.88
  -6  14   1   33.66    3.08
   6  14  -1   31.69    2.92
  -6  14   1   31.42    2.91
  -6 -14  -1   31.90    2.75
   6  14   1   34.49    2.92
   6  14   1   32.11    2.82
   6 -14   1   34.67    2.52
   6 -14   1   33.85    1.86
  -6 -14   1   39.46    3.19
  -6  14  -1   28.46    2.73
   6  14   1   39.86    3.14
   6 -14  -1   32.66    2.05
  -6 -14   1   30.88    2.92
   6  14   1   31.20    2.81
   6  14  -1   29.13    2.86
  -6 -14   1   35.02    2.55
  -6  15  -1  109.38    5.37
   6 -15   1  105.00    3.11
  -6 -15   1  101.82    5.24
   6  15   1  100.25    5.11
   6  15  -1  103.39    5.34
   6 -15  -1  109.73    3.36
  -6  15   1  102.89    5.34
   6 -15   1  102.18    4.52
  -6 -15   1   97.80    4.36
   6  15   1  105.89    5.07
   6  15   1  100.49    5.13
  -6 -15  -1  111.87    5.25
   6  15   1   99.22    4.96
  -6  15   1  107.14    5.50
   6  15  -1   99.88    5.21
  -6  15  -1  104.49    5.26
  -6 -15   1  105.13    5.44
  -6 -16  -1    6.84    1.51
   6  16   1   10.28    1.69
  -6  16   1    8.95    1.83
  -6 -16   1    8.00    1.40
   6  16   1    8.43    1.68
  -6 -16   1    7.92    1.66
   6 -16   1    6.96    1.26
   6  16   1    8.42    1.60
  -6  16  -1    7.14    1.67
  -6  16  -1    6.58    1.45
   6  16   1    7.11    1.50
  -6  17  -1  442.15   12.12
   6 -17   1  406.23   10.21
   6  17   1  411.36   10.60
   6  17   1  413.47   10.61
  -6 -17   1  424.54   11.79
  -6 -17   1  408.85   10.06
  -6  17  -1  419.90   11.47
  -6 -17  -1  420.57   11.38
  -6  17   1  432.87   12.27
  -6 -18   1    8.89    1.67
   6  18   1   10.00    1.70
  -6  18   1    9.70    1.99
  -6  18  -1   12.19    2.09
  -6 -18  -1   12.60    2.04
  -6 -19  -1   -0.15    0.96
  -6 -19   1    1.69    1.24
  -6  19  -1    1.47    1.19
  -6  19   1   -0.81    1.14
  -7   0  -1   -0.91    0.76
   7   0  -1   -0.94    0.86
   7   0   1    0.87    1.17
   7   0  -1    0.97    1.04
  -7   0  -1    0.08    0.43
   7   0  -1    0.39    0.84
  -7   0   1   -0.27    0.89
   7   0  -1   -0.39    0.77
   7   0   1    0.73    0.79
   7   0   1    0.15    0.57
   7   0  -1    1.52    0.85
  -7   0   1   -0.21    0.67
   7   0   1   -0.20    0.86
  -7   0  -1   -0.41    0.71
  -7   0   1   -1.05    0.79
  -7   1  -1  401.57    7.22
  -7  -1  -1  396.19    8.98
   7   1  -1  411.41    9.99
   7   1  -1  418.16   10.07
   7  -1   1  390.94    9.42
   7  -1   1  388.28    9.40
  -7   1  -1  405.89    9.13
   7   1   1  384.85    8.77
  -7  -1   1  395.74    8.53
   7   1   1  387.01    9.34
   7  -1  -1  404.08    9.95
   7  -1  -1  408.10    9.09
   7  -1   1  387.47    8.80
   7  -1  -1  410.81   10.02
   7   1  -1  405.10    8.84
  -7   1   1  393.72    8.61
   7   1  -1  416.26    9.72
   7  -1  -1  404.20    9.74
   7   1  -1  410.16    9.80
  -7   1   1  388.99    9.41
   7   1   1  387.56    7.13
   7   1   1  395.95    9.44
   7  -1  -1  415.72    9.63
  -7  -1   1  384.64    9.61
  -7   1   1  387.65    9.69
  -7  -1   1  390.79    9.46
   7  -1   1  393.62   10.85
  -7  -1  -1  401.84    8.75
  -7   1  -1  394.19    8.51
   7  -2   1   35.34    3.19
   7   2  -1   23.44    2.32
   7  -2   1   32.19    2.32
   7  -2  -1   24.00    2.22
  -7   2   1   33.82    2.66
   7  -2  -1   26.49    2.39
  -7   2  -1   25.50    2.10
   7   2   1   33.67    2.58
  -7  -2  -1   23.51    2.06
   7   2  -1   24.94    2.01
   7  -2   1   34.80    2.66
  -7  -2   1   38.03    2.84
   7   2   1   33.58    2.40
   7  -2   1   32.03    2.55
   7  -2  -1   27.06    2.44
   7   2   1   32.16    1.67
  -7   2   1   31.74    2.27
   7  -2  -1   26.80    2.36
  -7  -2   1   29.64    2.48
  -7   2  -1   23.68    1.60
   7   2  -1   27.09    2.39
   7  -2  -1   25.89    2.22
   7   2  -1   24.44    2.36
  -7   2   1   32.21    2.52
   7   2   1   33.06    2.55
   7  -2   1   33.37    2.27
  -7  -2  -1   24.14    2.03
  -7   2  -1   24.84    1.93
   7  -3   1  124.53    5.68
   7   3   1  119.97    4.85
   7   3   1  118.66    3.22
  -7  -3   1  119.36    5.01
  -7   3   1  127.68    5.18
   7  -3  -1  112.55    4.99
   7   3   1  129.45    5.03
   7   3   1  120.23    4.57
   7   3  -1  112.03    4.94
   7  -3   1  129.41    5.12
  -7  -3   1  123.25    5.02
  -7   3  -1  111.75    3.67
   7  -3  -1  112.84    4.98
   7  -3   1  126.01    5.03
   7   3  -1  109.36    4.90
   7  -3  -1  111.20    4.63
  -7   3   1  124.62    4.67
   7  -3   1  118.23    4.29
  -7  -3  -1  112.14    4.46
   7   3  -1  110.92    4.18
   7  -3   1  115.89    4.48
   7  -3  -1  115.77    4.73
  -7   3  -1  108.99    4.44
  -7  -3  -1  110.14    4.36
  -7   3  -1  105.70    4.03
  -7   3   1  125.24    4.98
   7  -4   1   21.44    2.10
   7  -4  -1   21.52    2.21
   7  -4  -1   18.86    1.92
   7  -4   1   21.74    2.10
  -7  -4  -1   17.70    1.77
   7   4   1   19.90    1.28
   7   4   1   19.97    2.04
   7  -4   1   21.78    1.85
   7   4  -1   18.45    2.04
   7   4   1   19.83    1.88
  -7  -4  -1   20.46    1.98
   7   4   1   18.39    1.97
  -7  -4   1   22.17    2.22
   7   4  -1   20.04    2.09
  -7  -4   1   17.93    2.01
   7  -4   1   20.24    1.88
  -7  -4   1   19.02    2.07
  -7   4  -1   20.40    1.64
   7  -4   1   20.76    2.09
  -7   4   1   19.01    1.99
   7  -4   1   22.52    2.12
   7   4  -1   21.65    1.78
  -7  -4  -1   20.20    2.04
  -7   4  -1   19.29    1.73
   7  -4  -1   20.88    2.25
   7  -4   1   26.02    2.68
  -7  -4   1   18.69    2.05
  -7   4  -1   20.67    1.96
   7  -4  -1   19.49    1.99
  -7   4   1   20.71    1.98
  -7   4   1   19.02    2.08
   7  -5   1  691.81   13.44
  -7  -5  -1  660.56   12.57
   7  -5   1  655.75   13.26
  -7   5   1  677.93   12.87
   7   5   1  663.47   12.58
   7   5   1  690.85   13.26
   7   5   1  672.90    9.91
   7   5  -1  687.56   13.73
  -7   5  -1  681.38   12.77
   7  -5  -1  665.81   13.67
   7   5   1  685.84   13.23
  -7  -5  -1  659.66   13.25
   7   5  -1  696.72   13.79
  -7  -5   1  674.26   13.65
   7  -5  -1  684.70   13.77
  -7  -5   1  674.43   13.48
  -7   5   1  662.34   13.50
   7  -5   1  674.40   12.67
  -7  -5   1  657.69   13.53
   7  -5   1  694.04   13.47
   7  -5   1  676.57   13.37
   7  -5   1  667.94   11.92
   7  -5  -1  659.89   13.60
  -7   5  -1  665.96   11.55
  -7   5   1  672.95   13.07
  -7   5  -1  670.21   11.86
  -7  -5  -1  667.55   12.69
   7   5  -1  682.49   12.00
   7  -5  -1  690.82   13.83
   7  -5  -1  678.69   13.35
  -7  -5  -1  670.47   13.32
   7  -5   1  625.88   13.75
  -7  -5   1  665.38   13.42
   7   5   1  682.21   15.46
   7  -5  -1  687.02   13.20
  -7   6  -1   32.05    2.20
   7   6   1   38.71    3.51
   7  -6   1   31.45    2.36
   7  -6  -1   31.96    2.70
   7  -6   1   30.31    2.51
  -7   6   1   31.40    2.61
   7  -6   1   33.10    2.82
  -7  -6   1   32.22    2.66
   7   6  -1   32.72    2.20
   7  -6  -1   30.00    2.44
  -7   6  -1   33.71    2.48
   7  -6  -1   32.07    2.73
   7  -6  -1   34.27    2.66
   7   6   1   30.81    2.46
  -7  -6   1   32.72    2.68
   7   6   1   32.57    2.55
  -7  -6  -1   34.65    2.70
   7   6  -1   35.73    2.78
   7  -6  -1   35.62    2.81
  -7  -6  -1   33.15    2.45
  -7  -6  -1   33.36    2.63
  -7  -6  -1   30.09    2.37
   7   6  -1   35.67    2.80
  -7  -6   1   29.83    2.64
  -7   6   1   34.77    2.59
  -7   6  -1   31.05    2.13
  -7  -6   1   33.66    2.72
  -7   6   1   33.97    2.61
   7  -6   1   34.05    2.67
   7   6   1   33.80    1.66
   7  -6   1   32.62    2.21
  -7  -7   1   19.76    2.24
   7   7   1   19.06    1.27
   7   7   1   18.84    2.03
   7  -7   1   18.61    2.03
  -7   7   1   19.09    2.13
  -7   7   1   17.05    1.87
  -7   7   1   15.66    1.99
   7  -7  -1   13.47    1.84
   7   7  -1   18.48    2.08
  -7   7   1   21.40    2.04
   7  -7   1   18.51    2.07
  -7  -7  -1   21.47    2.06
   7  -7   1   18.24    2.03
  -7  -7   1   17.99    2.05
  -7  -7  -1   16.32    1.89
   7   7   1   19.53    2.03
  -7  -7  -1   18.69    2.03
  -7  -7   1   17.99    2.07
   7  -7   1   21.32    2.16
   7   7  -1   18.61    2.10
   7  -7   1   17.48    1.81
   7  -7   1   17.06    1.65
  -7  -7  -1   15.81    1.79
  -7   7  -1   20.09    1.83
   7   7  -1   20.97    1.76
  -7  -7   1   16.81    1.97
   7   7   1   22.37    2.72
   7  -7  -1   19.91    2.02
   7  -7  -1   21.19    2.27
  -7  -8  -1   24.79    2.33
   7  -8  -1   26.39    2.56
   7  -8   1   31.05    2.68
  -7   8   1   26.55    2.53
   7  -8  -1   29.78    2.73
   7  -8   1   25.01    2.40
   7  -8   1   35.18    2.73
   7   8   1   23.92    2.86
  -7  -8  -1   25.56    2.25
  -7  -8   1   26.81    2.54
  -7  -8  -1   29.05    2.53
   7   8   1   26.55    2.38
   7  -8   1   27.00    2.28
   7   8   1   29.02    2.48
  -7   8  -1   27.67    2.19
  -7  -8  -1   26.85    2.47
   7   8   1   28.69    1.61
  -7   8   1   30.66    2.73
   7  -8   1   28.33    2.08
   7   8  -1   25.06    2.43
  -7   8   1   27.71    2.48
  -7  -8   1   28.42    2.55
   7   8  -1   27.09    2.11
  -7  -8   1   27.13    2.53
   7  -8   1   27.85    2.44
  -7  -8   1   29.43    2.56
  -7  -8  -1   27.55    2.35
   7   8  -1   30.03    2.64
   7  -8  -1   26.26    2.34
  -7  -9   1  639.16   13.87
   7   9   1  663.04   10.43
  -7  -9  -1  687.02   13.75
   7   9   1  670.75   13.72
   7  -9  -1  669.28   14.11
   7  -9   1  663.32   13.92
   7  -9   1  688.72   13.14
  -7  -9   1  667.30   13.85
  -7  -9  -1  672.43   13.26
   7   9   1  695.76   15.55
  -7  -9  -1  673.62   13.73
  -7  -9   1  663.37   14.06
   7   9   1  669.94   13.73
  -7   9   1  698.22   13.90
   7  -9   1  666.49   12.21
   7  -9  -1  666.83   13.52
  -7  -9   1  671.95   14.03
  -7   9  -1  679.88   12.84
  -7  -9  -1  661.12   13.62
   7  -9   1  654.83   13.86
   7   9  -1  684.54   14.18
   7  -9  -1  660.46   14.01
   7   9  -1  650.46   12.13
   7   9  -1  662.35   14.02
  -7   9   1  658.51   14.12
   7  -9   1  678.91   13.19
  -7  -9  -1  660.02   13.44
  -7  -9   1  675.28   12.83
  -7 -10  -1   18.24    2.10
  -7  10   1   11.87    1.76
  -7 -10   1   13.53    1.92
   7  10   1   14.62    1.87
   7 -10  -1   15.47    1.83
   7  10  -1   14.73    1.58
  -7 -10   1   15.24    1.72
  -7 -10  -1   15.85    1.97
  -7 -10  -1   16.34    1.91
   7 -10   1   14.03    1.54
   7  10   1   12.08    1.72
   7  10  -1   14.84    1.97
  -7 -10  -1   15.07    1.98
   7 -10   1   12.35    1.79
   7 -10   1   13.09    1.61
   7  10   1   12.98    1.19
  -7 -10   1   13.08    1.93
   7  10   1   15.43    2.28
  -7  10  -1   16.99    2.12
  -7  10   1   10.69    1.71
  -7  10  -1   17.34    1.88
   7 -10   1   11.10    1.71
  -7 -10  -1   13.72    1.83
   7 -10   1   12.72    1.62
   7  10  -1   17.66    2.15
   7 -11   1  134.69    4.94
  -7  11   1  141.90    5.95
  -7  11  -1  135.75    5.43
  -7  11   1  133.71    5.93
   7 -11   1  149.81    5.17
   7  11  -1  135.96    5.92
   7  11   1  136.57    5.75
  -7 -11  -1  130.55    5.48
  -7 -11   1  139.72    5.25
  -7 -11   1  137.49    5.86
   7  11  -1  124.78    5.69
   7 -11   1  138.66    5.00
  -7  11  -1  131.53    5.81
  -7 -11  -1  131.85    5.58
  -7 -11   1  136.45    5.97
  -7 -11  -1  131.99    5.56
   7  11   1  135.61    5.72
   7  11   1  135.54    4.05
   7  11  -1  124.09    4.82
   7 -11  -1  127.96    5.43
   7  11   1  140.59    6.45
   7  12   1   30.48    2.80
   7  12  -1   38.06    3.14
   7 -12   1   32.67    2.34
  -7  12  -1   37.88    3.00
  -7 -12  -1   39.22    3.03
  -7  12   1   33.71    3.09
  -7  12  -1   37.59    3.20
  -7 -12   1   36.05    3.09
   7  12  -1   36.95    3.13
   7 -12   1   34.29    2.36
  -7 -12  -1   36.98    3.06
   7  12   1   32.61    2.04
   7 -12   1   36.94    2.65
  -7  12   1   34.34    2.98
  -7 -12   1   36.21    3.17
   7  12   1   35.73    3.02
  -7 -12   1   32.66    2.53
   7  13  -1  214.58    7.84
   7  13   1  219.23    7.69
  -7  13  -1  207.46    7.32
  -7  13   1  209.18    7.82
  -7 -13   1  212.90    6.81
  -7 -13   1  216.74    7.82
   7 -13   1  211.86    6.01
  -7  13  -1  210.44    7.72
   7  13  -1  220.01    7.96
  -7 -13   1  218.22    7.92
  -7 -13  -1  208.34    7.33
  -7  13   1  213.57    7.77
   7 -13   1  219.54    6.04
  -7 -13  -1  221.16    7.76
   7  13   1  231.45    8.26
   7  13   1  225.62    7.77
   7 -13   1  212.69    6.61
   7 -14   1    0.99    0.81
  -7  14  -1    1.49    1.05
   7  14   1    0.39    0.88
   7  14   1    1.96    1.13
  -7 -14   1    1.04    0.60
  -7  14   1    1.88    0.95
   7  14   1    2.54    1.48
  -7 -14   1    1.20    1.19
  -7  14  -1    1.94    1.10
  -7 -14  -1    1.50    0.97
   7 -14   1    2.28    0.67
  -7 -15  -1  328.45    9.87
  -7 -15   1  321.56    8.86
  -7  15  -1  329.08    9.96
  -7 -15   1  344.09   10.42
   7  15   1  335.76   10.18
   7 -15   1  330.42    8.86
  -7  15   1  344.06   10.53
  -7 -16  -1   19.99    2.49
  -7 -16   1   17.63    2.40
  -7  16   1   21.20    2.66
   7  16   1   21.99    2.60
  -7  16  -1   21.32    2.62
  -7 -17   1   14.65    2.19
  -7  17  -1   13.14    2.16
  -7  17   1   15.36    2.44
  -7 -17  -1   13.64    2.17
   7  17   1   15.68    2.19
  -7 -18  -1    9.22    1.83
   7  18   1   11.66    2.00
  -7  18  -1   10.27    1.99
   8   0  -1   92.69    4.79
   8   0  -1   85.78    4.03
   8   0  -1   89.40    4.68
  -8   0   1   84.90    4.54
  -8   0  -1   85.31    2.95
   8   0   1   85.42    5.13
  -8   0  -1   91.99    4.32
  -8   0   1   76.49    3.65
  -8   0  -1   75.58    3.74
   8   0   1   77.00    4.26
   8   0   1   75.99    3.88
  -8   0   1   70.79    4.04
   8   0  -1   86.95    4.42
   8   0   1   76.65    4.26
   8   1   1  234.23    7.50
   8  -1  -1  244.65    7.63
   8  -1   1  232.18    7.53
   8   1   1  224.61    7.36
   8  -1   1  219.59    6.87
   8  -1   1  257.25    8.89
  -8  -1   1  213.44    7.25
   8  -1   1  226.83    7.46
   8  -1  -1  246.36    8.01
  -8  -1   1  222.23    6.41
   8   1   1  245.53    8.96
  -8   1   1  230.14    7.65
  -8   1   1  230.87    6.65
   8   1   1  222.45    6.86
  -8  -1  -1  245.75    7.32
   8   1  -1  238.53    6.84
   8   1  -1  238.49    7.91
   8   1  -1  238.77    7.90
   8  -1  -1  245.87    7.15
  -8   1  -1  236.70    7.21
  -8   1  -1  240.46    6.85
  -8  -1   1  225.39    7.59
   8  -1  -1  239.06    7.92
  -8   1   1  225.50    7.35
  -8  -1  -1  244.39    7.01
  -8   1  -1  230.72    5.40
   8  -2  -1    7.33    1.37
   8   2  -1    3.44    1.22
  -8  -2  -1    7.13    1.32
  -8  -2   1    3.90    1.24
   8   2   1    3.63    0.96
  -8   2  -1    6.79    0.97
   8  -2  -1    6.50    1.27
   8   2   1    3.32    1.14
   8   2  -1    6.60    1.48
   8  -2   1    4.17    1.57
   8  -2   1    5.06    1.31
   8  -2  -1    6.18    1.44
   8   2   1    2.50    1.03
  -8  -2  -1    6.59    1.33
  -8  -2   1    3.05    1.14
   8   2   1    4.66    0.75
  -8   2  -1    4.10    1.12
   8   2   1    5.79    1.86
  -8   2   1    4.30    1.20
  -8   2   1    3.63    1.20
   8  -2   1    5.17    1.25
   8  -2   1    4.01    0.95
   8   2  -1    5.12    1.14
  -8   2  -1    4.67    1.06
  -8   2   1    3.23    0.91
   8  -2  -1    4.22    1.22
  -8   3   1  509.74   12.10
   8  -3   1  524.89   13.12
  -8   3  -1  525.09    9.52
   8   3   1  553.88   14.03
  -8  -3  -1  523.75   11.35
   8   3   1  500.82   11.72
  -8  -3   1  516.57   12.08
   8  -3  -1  519.06   12.35
   8  -3  -1  518.71   12.34
   8  -3   1  514.89   11.92
   8  -3   1  494.76   10.55
   8   3   1  505.74    8.48
   8   3  -1  516.73   12.29
   8   3   1  501.83   11.71
  -8   3   1  505.51   10.79
   8  -3   1  507.37   11.87
  -8   3  -1  512.26   10.61
   8   3  -1  510.46   12.22
  -8   3  -1  513.11   11.28
  -8   3   1  502.14   11.62
  -8  -3  -1  523.49   11.14
   8  -3  -1  515.84   11.46
   8  -3   1  511.49   11.22
   8   3  -1  523.21   10.69
   8  -3  -1  516.33   11.71
  -8  -3   1  493.44   11.73
  -8   4  -1   36.02    2.52
  -8   4   1   55.83    3.27
   8  -4   1   49.89    3.40
   8  -4  -1   37.37    2.90
   8   4   1   52.54    3.45
   8   4   1   52.94    3.47
   8  -4   1   45.22    3.28
   8   4  -1   34.40    2.98
   8  -4  -1   36.79    3.04
  -8  -4  -1   35.46    2.77
   8  -4  -1   37.39    3.12
   8  -4   1   48.33    3.42
  -8  -4   1   52.26    3.50
   8   4  -1   36.03    3.04
  -8   4  -1   34.46    2.67
   8  -4   1   53.59    3.07
  -8   4   1   50.50    3.52
   8   4  -1   35.19    2.45
   8   4   1   50.25    2.11
  -8   4   1   53.05    3.43
   8  -4   1   48.98    3.81
   8  -4   1   48.67    3.36
  -8   4  -1   36.69    2.27
   8  -4  -1   36.36    2.84
  -8  -4  -1   32.75    2.57
  -8  -4   1   54.64    3.56
   8   4   1   52.50    4.20
  -8   5  -1    2.08    0.88
  -8  -5   1    1.85    0.91
  -8   5   1    0.69    0.79
  -8   5  -1    2.39    0.82
  -8  -5   1    3.67    1.25
   8  -5   1    2.14    1.07
   8  -5  -1    3.01    1.08
   8  -5   1    1.96    0.91
   8   5  -1    2.79    0.98
   8  -5   1    3.94    1.43
  -8   5   1    1.91    0.94
   8  -5   1    2.16    0.96
   8  -5  -1    2.29    1.08
   8   5   1    0.67    0.81
   8   5  -1    2.56    1.09
  -8   5   1    2.91    1.25
  -8  -5  -1   -0.19    0.92
   8  -5  -1    1.78    0.81
   8  -5   1    1.29    0.84
  -8  -5  -1    1.79    0.85
  -8   5  -1    2.99    0.85
   8   5   1    1.49    0.47
   8  -5   1    2.34    0.80
   8   5  -1    2.33    0.75
   8  -5  -1    3.62    1.17
   8   5   1    1.42    1.07
  -8   6   1   49.99    3.33
   8   6  -1   39.43    3.19
  -8  -6  -1   37.15    2.95
  -8   6   1   50.40    3.26
  -8  -6   1   46.57    3.39
  -8  -6   1   46.40    3.39
  -8   6  -1   43.05    3.05
   8   6   1   45.33    3.24
  -8  -6  -1   46.08    3.14
   8   6  -1   46.21    3.46
  -8  -6  -1   41.64    2.96
   8  -6  -1   43.22    3.37
  -8   6   1   54.03    3.67
   8  -6   1   52.97    3.60
   8  -6   1   49.94    3.51
   8   6  -1   39.97    2.60
   8  -6  -1   39.93    3.08
  -8  -6  -1   41.39    3.13
  -8   6  -1   42.81    2.62
   8   6   1   47.36    2.07
  -8   6  -1   39.46    2.64
   8  -6   1   45.18    3.30
   8  -6  -1   45.04    3.40
   8   6   1   50.43    3.44
   8  -6   1   47.03    2.85
   8  -6   1   47.43    3.41
   8  -6   1   52.58    3.74
   8  -7  -1  619.17   13.08
   8   7  -1  627.70   13.90
   8  -7  -1  597.00   13.68
  -8   7   1  609.37   12.87
   8  -7   1  611.64   11.90
  -8  -7  -1  591.01   13.28
   8   7  -1  603.73   13.70
   8  -7   1  623.36   13.61
   8   7  -1  586.12   11.59
  -8  -7  -1  577.00   13.18
   8   7   1  599.12   13.24
   8  -7   1  622.78   13.67
  -8   7  -1  612.46   11.76
   8  -7  -1  597.43   13.68
   8   7   1  627.13    9.67
  -8   7   1  620.69   13.66
  -8  -7  -1  598.22   12.69
  -8  -7  -1  602.56   12.81
  -8  -7   1  593.88   13.34
   8  -7   1  616.62   13.75
  -8   7   1  615.84   13.08
   8  -7   1  607.00   13.52
   8   7   1  612.60   13.37
  -8  -7   1  604.86   13.52
  -8   7   1  605.81   13.72
   8  -8   1   16.08    1.71
  -8   8   1   20.28    2.46
   8   8  -1   22.98    2.53
  -8  -8  -1   28.15    2.54
   8  -8   1   18.69    2.24
   8   8   1   18.83    2.19
  -8  -8   1   18.48    2.28
   8  -8   1   14.76    2.01
   8   8  -1   21.36    2.42
   8   8   1   18.57    2.17
   8   8  -1   22.30    2.03
  -8   8   1   19.25    2.30
  -8  -8   1   19.06    2.31
   8  -8  -1   24.06    2.34
  -8   8   1   21.54    2.33
  -8  -8  -1   24.80    2.41
  -8   8  -1   27.61    2.25
   8   8   1   18.66    1.35
   8  -8  -1   27.40    2.74
   8   9   1   38.06    3.04
   8  -9  -1   36.48    2.93
  -8   9   1   40.49    3.36
   8   9   1   37.94    3.03
   8   9  -1   39.39    3.27
  -8  -9   1   38.52    3.18
   8   9  -1   33.33    2.46
  -8  -9   1   39.79    3.22
   8  -9   1   39.77    3.14
   8   9  -1   36.04    3.16
   8  -9   1   38.97    2.69
   8  -9   1   39.65    3.07
  -8   9  -1   33.89    2.63
  -8   9   1   36.84    2.99
  -8  -9  -1   36.48    2.93
  -8  -9  -1   36.03    2.93
  -8 -10   1   53.41    3.86
  -8  10  -1   64.73    3.76
   8 -10   1   52.65    3.42
  -8 -10   1   49.67    3.28
   8 -10   1   50.74    3.35
   8  10   1   48.62    3.58
   8  10  -1   69.22    4.34
  -8  10  -1   64.44    4.27
  -8  10   1   50.88    3.79
  -8 -10   1   48.54    3.66
   8  10   1   48.57    3.57
  -8 -10  -1   67.61    3.98
   8 -10   1   50.75    3.10
   8  10  -1   65.98    3.49
   8  10  -1   70.52    4.36
  -8  10   1   51.53    3.63
  -8 -10  -1   65.33    3.97
  -8 -11   1  284.85    8.23
   8  11  -1  251.86    8.72
  -8  11  -1  256.62    7.91
  -8 -11  -1  249.63    8.14
  -8  11  -1  262.02    8.92
   8  11  -1  264.38    8.93
  -8  11   1  265.25    9.04
  -8 -11   1  272.72    9.01
  -8 -11   1  265.41    8.77
   8  11   1  275.88    8.81
  -8  11   1  265.19    8.64
   8 -11   1  275.10    7.94
   8  11   1  278.53    8.84
  -8 -11  -1  259.81    8.48
   8 -11   1  279.81    8.01
   8 -11   1  268.71    7.60
  -8  12   1    3.28    1.30
  -8 -12  -1    5.73    1.72
   8 -12   1    4.55    1.10
  -8 -12  -1    3.44    1.18
   8  12   1    3.69    1.24
   8  12   1    0.98    0.90
   8 -12   1    3.51    0.90
  -8 -12   1    3.61    1.41
  -8  12  -1    3.44    1.22
   8 -12   1    3.33    1.10
  -8 -12   1    2.65    0.99
  -8 -13   1  218.37    8.20
   8 -13   1  202.73    6.76
  -8 -13  -1  203.19    7.60
  -8  13  -1  210.40    7.54
   8 -13   1  216.11    6.58
   8  13   1  213.86    8.49
  -8  13   1  214.28    8.05
  -8 -14   1   32.81    3.22
  -8  14   1   37.21    3.43
  -8 -14  -1   36.09    3.19
  -8  14  -1   32.65    3.04
   8  14   1   34.56    3.46
  -8  15   1   61.86    4.54
  -8  15  -1   64.51    4.37
  -8 -15   1   64.30    4.60
  -8 -15  -1   59.97    4.23
  -8  16  -1    4.31    1.42
  -8  16   1    5.74    1.61
  -8 -16  -1    4.82    1.53
  -8 -17  -1  259.35    9.45
  -8  17  -1  265.97    9.55
  -9   0   1   -1.83    1.11
  -9   0  -1    0.56    0.73
   9   0  -1   -1.91    0.99
   9   0   1   -0.68    0.98
   9   0  -1   -0.38    0.93
   9   0   1   -1.28    1.03
  -9   0   1   -1.25    1.12
   9   0  -1    0.85    0.78
  -9   0   1   -0.26    0.68
  -9   0  -1   -0.59    0.93
   9  -1   1  338.02    9.96
   9  -1  -1  324.75    8.82
  -9   1   1  331.96    9.70
  -9   1   1  327.59    8.51
   9  -1  -1  314.71    9.98
   9   1  -1  326.45   10.09
   9  -1   1  337.34    9.94
  -9  -1  -1  328.49    9.30
   9   1  -1  323.42   10.03
   9   1   1  335.57    9.87
  -9  -1   1  324.91    9.85
  -9   1  -1  327.46    6.96
  -9   1   1  329.38    9.94
   9  -1  -1  321.30   10.07
   9   1  -1  329.59    8.64
  -9   1  -1  326.28    8.79
   9   1   1  327.95    9.76
  -9   1  -1  321.27    9.14
  -9  -1  -1  325.96    8.86
  -9  -1   1  321.10    9.54
  -9   2   1   69.55    4.38
  -9  -2  -1   67.01    4.00
   9   2   1   67.39    4.29
   9  -2   1   70.37    4.38
  -9  -2  -1   66.82    3.88
  -9   2   1   65.48    4.11
   9  -2  -1   67.36    4.45
   9   2  -1   65.64    4.33
   9  -2   1   67.56    4.31
  -9   2  -1   71.86    4.18
   9  -2  -1   72.37    4.60
  -9   2  -1   67.38    3.00
   9   2  -1   68.02    3.66
   9   2   1   69.09    4.33
  -9   2   1   69.25    3.71
  -9  -2   1   66.94    4.30
  -9  -2   1   67.30    4.20
   9   2  -1   66.90    4.36
  -9   2  -1   65.18    3.67
  -9   3   1   39.63    3.19
  -9   3  -1   49.60    3.18
   9   3  -1   48.48    3.05
  -9   3  -1   51.09    3.43
  -9   3   1   49.65    3.77
  -9  -3  -1   50.46    3.37
   9   3   1   43.18    3.40
   9   3  -1   49.06    3.72
  -9   3   1   46.96    3.11
   9  -3  -1   45.94    3.63
   9  -3  -1   56.02    4.00
  -9  -3  -1   49.38    3.43
   9   3   1   45.78    3.48
  -9  -3   1   46.33    3.58
   9  -3   1   46.92    3.60
  -9   3  -1   43.52    2.47
  -9  -3   1   44.59    3.45
   9   3  -1   47.02    3.67
   9  -3   1   47.69    3.62
   9   4   1    7.72    1.49
   9  -4   1    8.14    1.39
  -9   4  -1   11.07    1.71
  -9  -4  -1   11.88    1.76
   9   4  -1   11.63    2.04
  -9   4  -1    9.98    1.51
   9  -4  -1    6.00    1.44
   9  -4   1    6.85    1.52
   9   4  -1   12.47    2.11
   9   4   1    5.43    1.42
  -9   4  -1   10.63    1.29
  -9   4   1    7.23    1.39
   9   4  -1    9.19    1.41
  -9  -4   1    5.12    1.33
  -9  -4  -1   11.04    1.76
   9  -4   1    6.84    1.64
  -9   4   1    8.13    1.72
   9  -4  -1    9.23    1.68
  -9  -4   1    6.96    1.54
  -9   4   1    4.95    1.32
   9   5  -1  438.10   11.87
  -9   5  -1  439.82    9.35
   9  -5   1  433.87   11.64
   9  -5  -1  434.61   11.94
   9  -5   1  438.61   11.67
  -9  -5   1  447.08   11.80
   9   5   1  442.83   11.60
   9   5  -1  457.00   12.08
  -9  -5   1  446.08   11.67
   9  -5   1  433.14   10.22
  -9  -5  -1  443.94   11.06
   9  -5  -1  428.86   11.87
  -9   5  -1  433.84   10.93
  -9   5  -1  436.37   10.20
   9   5  -1  434.95    9.93
  -9   5   1  443.41   11.30
   9   5   1  451.90   11.66
  -9   5   1  427.99   11.60
  -9   5   1  446.85   10.69
  -9  -5  -1  442.32   10.95
  -9  -6  -1    7.78    1.40
  -9  -6   1   12.94    1.97
   9  -6   1   11.02    1.57
   9  -6   1   11.24    2.05
   9   6   1    9.33    1.70
   9   6  -1   10.20    1.95
   9   6   1   12.15    1.91
  -9   6  -1    9.38    1.72
   9  -6  -1    7.21    1.64
  -9  -6   1   10.05    1.84
   9   6  -1    9.42    1.82
   9  -6   1    8.94    1.68
   9  -6  -1    9.28    1.77
  -9  -6  -1    9.97    1.66
  -9   6   1    9.48    1.76
   9  -6   1   12.50    2.10
  -9   6  -1    9.24    1.44
  -9   6   1    8.44    1.53
  -9   6  -1   11.85    1.57
   9   6  -1    9.73    1.37
  -9   6   1   11.39    1.80
  -9  -7   1    2.63    1.17
   9  -7  -1    0.68    1.14
   9  -7   1    2.35    1.08
   9   7  -1    3.06    1.14
  -9  -7  -1    1.92    0.86
   9   7  -1    3.27    1.13
   9  -7  -1    2.38    1.19
   9  -7   1    5.76    1.48
   9  -7   1    4.21    1.01
   9   7   1    2.65    1.02
  -9   7   1    2.27    1.09
  -9  -7  -1    2.44    1.01
  -9  -7   1    3.29    1.25
  -9   7   1    1.84    1.05
  -9   7  -1    1.53    0.73
   9  -7   1    2.86    1.20
   9   7   1    2.87    1.25
  -9   7   1    1.24    0.87
  -9   7   1    3.16    1.03
   9  -8   1   45.20    3.58
   9   8   1   48.61    3.68
   9  -8   1   44.64    3.61
  -9  -8  -1   46.48    3.42
  -9   8  -1   50.44    3.17
  -9   8   1   49.34    3.52
   9   8   1   42.65    3.46
   9  -8   1   46.41    3.09
  -9  -8   1   47.14    3.67
  -9  -8   1   51.46    3.88
   9  -8   1   49.88    3.72
  -9  -8  -1   50.14    3.57
  -9   8   1   43.66    3.59
  -9  -9  -1  322.82    9.50
  -9  -9   1  316.81    9.95
   9  -9   1  317.39    8.59
   9   9   1  300.32    9.59
  -9   9   1  319.89    9.44
  -9  -9  -1  320.81    9.63
  -9   9  -1  319.15    8.65
   9   9   1  316.84    9.82
   9  -9   1  318.95    9.62
  -9 -10  -1    3.25    1.06
  -9 -10   1    3.76    1.41
   9 -10   1    4.62    1.34
   9 -10   1    5.58    1.44
  -9  10   1    5.77    1.47
   9 -10   1    1.82    0.71
  -9  10  -1    4.70    1.16
  -9 -10  -1    4.23    1.38
  -9 -11   1  112.55    5.94
  -9  11   1  119.97    5.82
  -9 -11  -1  118.30    5.76
   9 -11   1  117.90    5.45
  -9  11  -1  110.75    5.23
  -9 -12   1   36.18    3.46
  -9  12   1   35.18    3.25
  -9  12  -1   33.18    2.91
  -9 -12  -1   31.67    3.05
  -9  13  -1  124.74    5.95
  -9 -13   1  135.16    6.74
  -9  13   1  135.96    6.55
  -9 -13  -1  122.94    6.14
  -9  14   1    1.72    1.21
  -9 -14  -1   -0.32    0.97
  -9  14  -1    0.17    0.97
  -9 -15  -1  197.39    8.10
  -9  15  -1  189.28    7.77
  -9  16  -1   14.66    2.32
 -10   0  -1   43.91    3.49
 -10   0   1   46.29    3.89
 -10   0  -1   44.80    3.33
 -10   0   1   48.63    3.79
 -10  -1   1  111.50    5.94
 -10   1   1  122.56    6.02
 -10   1  -1  114.90    5.62
 -10   1   1  113.34    4.98
 -10  -1  -1  114.77    5.62
 -10  -1   1  118.10    5.88
 -10   1  -1  108.73    5.17
 -10  -1  -1  108.98    5.26
 -10   1   1  115.66    6.04
 -10   2   1    1.47    1.10
 -10  -2  -1    2.15    0.95
 -10  -2   1    2.35    1.22
 -10   2  -1    2.43    0.92
 -10  -2   1    2.07    1.24
 -10  -2  -1    1.40    0.80
 -10   2   1    2.11    1.30
 -10   2  -1    0.45    1.05
 -10   2   1    1.81    0.88
 -10   3  -1  294.26    8.73
 -10   3   1  312.11    8.76
 -10   3   1  314.10   10.19
 -10  -3  -1  306.13    9.52
 -10   3   1  310.13    9.80
 -10  -3   1  306.57   10.09
 -10   3  -1  310.27    9.50
 -10  -3   1  282.93    9.53
 -10  -3  -1  300.10    9.15
 -10   4   1   35.50    3.21
 -10  -4  -1   36.69    3.11
 -10   4   1   38.11    3.49
 -10  -4  -1   38.46    3.28
 -10   4  -1   37.16    3.19
 -10   4   1   35.87    2.87
 -10   4  -1   40.73    3.14
 -10  -4   1   34.61    3.32
 -10  -5  -1   16.07    2.19
 -10   5   1   15.28    2.12
 -10   5  -1   18.09    2.28
 -10  -5   1   12.83    2.14
  10  -5   1   16.45    2.66
 -10  -5  -1   17.04    2.21
 -10   5   1   10.95    1.93
 -10   5   1   11.98    1.77
 -10   5  -1   16.23    1.96
 -10   6   1   20.12    2.41
 -10  -6   1   17.62    2.53
 -10   6  -1   25.45    2.72
 -10   6  -1   23.38    2.33
 -10   6   1   18.79    2.23
 -10  -6  -1   25.28    2.65
  10  -6   1   21.46    2.97
 -10   6   1   19.02    2.60
 -10   6  -1   23.00    2.09
 -10  -6  -1   25.01    2.69
 -10   7   1  278.14    9.24
 -10  -7   1  283.09    9.73
 -10   7   1  287.66    9.83
 -10   7  -1  276.39    7.75
 -10  -7  -1  268.52    8.99
 -10   7   1  287.84    8.88
 -10  -7  -1  274.03    9.02
  10  -7   1  289.64    9.83
  10  -8   1   16.98    2.50
 -10   8   1   16.56    2.41
 -10  -8  -1   10.49    1.90
 -10  -8   1   17.61    2.52
 -10   8  -1   10.51    1.59
 -10   8   1   14.95    2.12
 -10  -9  -1   40.22    3.46
  10  -9   1   39.63    3.62
 -10   9   1   40.37    3.35
 -10  -9   1   40.74    3.73
 -10   9  -1   32.84    2.75
  10 -10   1   47.33    3.75
 -10  10   1   47.72    3.76
 -10 -10  -1   47.75    3.89
 -10  10  -1   51.80    3.50
 -10 -10   1   47.85    4.06
 -10 -11  -1  212.20    8.28
 -10  11   1  209.52    8.08
 -10  11  -1  215.86    7.59
 -10  12  -1    2.74    1.23
 -10 -12  -1    4.31    1.53
 -10  12   1    2.65    1.29
 -10  13   1  139.61    6.79
 -11   0   1   -0.05    1.18
 -11   0  -1   -2.53    1.38
 -11   0  -1    0.79    0.89
 -11  -1  -1  177.95    7.19
 -11  -1   1  172.27    7.89
 -11  -1  -1  177.91    7.52
 -11   1   1  176.01    8.00
 -11   1  -1  178.85    7.51
 -11   1  -1  167.07    6.86
 -11   2  -1   24.50    2.78
 -11   2   1   32.07    2.77
 -11  -2  -1   30.89    3.15
 -11  -2   1   34.13    3.53
 -11   2   1   30.07    3.27
 -11   2  -1   30.30    2.91
 -11  -2  -1   25.12    2.77
 -11   3   1   48.29    4.17
 -11  -3  -1   43.51    3.66
 -11   3   1   43.98    3.27
 -11   3  -1   42.77    3.59
 -11  -3  -1   41.36    3.47
 -11  -3   1   42.58    3.91
 -11   4   1   12.01    2.18
 -11  -4   1   15.17    2.56
 -11   4   1   14.53    1.99
 -11  -4  -1   10.32    1.96
 -11   4  -1   10.64    1.94
 -11   5  -1  225.41    8.54
 -11  -5   1  228.66    9.15
 -11  -5  -1  232.37    8.70
 -11   5   1  225.12    9.14
 -11   5   1  225.88    7.79
 -11   6   1   34.32    3.04
 -11   6  -1   29.33    3.03
 -11  -6  -1   29.54    3.11
 -11  -7  -1   -1.32    1.23
 -11   7   1    0.20    0.91
 -11  -8  -1   24.48    2.90
 -11   8   1   22.17    2.60
 -11  -9  -1  193.48    8.12
 -11   9   1  201.04    7.85
 -11  10   1    3.95    1.42
 -12   0  -1   33.69    3.42
 -12   1  -1   72.94    5.00
 -12  -1  -1   72.18    5.01
 -12  -2  -1    1.39    1.16
 -12   2  -1    0.85    1.08
 -12   3  -1  169.09    7.73
 -12  -3  -1  164.86    7.67
   0   0   2 1293.48   15.45
   0   0   2 1304.73   16.29
   0   0   2 1308.96   15.61
   0   0  -2 1438.82   15.33
   0   0  -2 1430.32   15.46
   0   0   2 1326.32   15.27
   0   0  -2 1400.23   16.42
   0   0  -2 1400.31   15.84
   0  -1  -2    0.59    0.30
   0   1   2    0.16    0.27
   0   1  -2    0.26    0.29
   0   1  -2    0.17    0.19
   0  -1   2    0.25    0.28
   0  -1  -2    0.08    0.34
   0  -1  -2    0.40    0.31
   0   1  -2    0.22    0.17
   0   1  -2   -0.06    0.21
   0   1   2    0.11    0.38
   0  -1   2    0.10    0.24
   0   1   2    0.53    0.31
   0  -1   2    0.08    0.15
   0   1  -2    0.39    0.28
   0  -1   2    0.03    0.15
   0   1  -2    0.10    0.45
   0  -1  -2   -0.06    0.44
   0  -2   2  213.60    3.17
   0  -2  -2  204.47    2.92
   0   2   2  216.09    3.04
   0  -2  -2  203.16    2.92
   0  -2  -2  208.51    3.81
   0   2   2  214.73    3.86
   0   2  -2  196.53    3.09
   0   2   2  214.48    3.04
   0   2   2  213.94    4.10
   0  -2  -2  204.74    4.07
   0  -2  -2  202.65    3.95
   0  -2   2  214.44    3.18
   0  -2  -2  202.63    3.52
   0  -2  -2  202.38    3.77
   0   2  -2  204.68    3.46
   0   2  -2  201.51    2.85
   0   2  -2  199.81    3.11
   0  -2   2  212.17    3.48
   0  -2   2  214.18    3.50
   0  -3  -2   -0.54    0.46
   0  -3   2    0.45    0.30
   0  -3   2    0.15    0.24
   0   3   2    0.20    0.24
   0  -3  -2    0.30    0.27
   0  -3  -2    0.13    0.40
   0   3   2    0.15    0.33
   0  -3   2    0.19    0.25
   0   3  -2    0.63    0.28
   0   3   2    0.09    0.22
   0  -3  -2    0.43    0.34
   0  -3  -2    0.12    0.44
   0   3   2    0.45    0.48
   0   3  -2    0.53    0.29
   0  -3  -2    0.07    0.24
   0  -3   2    0.91    0.35
   0  -4   2 1719.47   20.18
   0  -4  -2 1774.96   19.87
   0   4   2 1737.64   19.93
   0   4   2 1746.59   21.00
   0  -4  -2 1676.08   21.26
   0   4  -2 1784.98   18.89
   0  -4  -2 1773.36   19.87
   0  -4   2 1718.46   20.17
   0   4   2 1751.00   19.93
   0   4   2 1723.99   21.38
   0   4  -2 1767.02   20.16
   0  -4  -2 1755.26   20.62
   0  -4  -2 1824.21   21.04
   0  -4   2 1714.08   20.27
   0   4  -2 1770.81   20.17
   0  -5  -2    0.44    0.34
   0   5  -2    0.15    0.35
   0   5  -2    0.44    0.18
   0   5   2    0.95    0.69
   0   5   2    0.59    0.35
   0  -5  -2    1.26    0.54
   0   5   2    0.59    0.55
   0  -5   2    0.83    0.40
   0  -5   2    0.48    0.36
   0   5  -2    0.60    0.39
   0  -5  -2    0.17    0.36
   0   5   2    0.78    0.35
   0  -5  -2    0.59    0.58
   0  -5  -2    0.21    0.34
   0   6   2 1591.17   19.09
   0  -6  -2 1627.88   20.03
   0   6  -2 1587.54   19.30
   0  -6  -2 1589.11   19.04
   0  -6   2 1589.16   19.36
   0  -6   2 1599.69   19.36
   0   6  -2 1601.21   19.32
   0   6   2 1596.59   19.10
   0   6  -2 1637.78   17.72
   0   6   2 1488.75   20.43
   0  -6  -2 1582.85   19.01
   0  -6  -2 1580.53   18.98
   0  -6  -2 1593.32   19.05
   0   6   2 1566.34   19.96
   0   7  -2    0.11    0.40
   0  -7  -2    0.13    0.34
   0  -7  -2    0.08    0.37
   0  -7  -2    0.48    0.50
   0   7   2    0.57    0.55
   0  -7  -2    0.42    0.39
   0  -7   2    0.63    0.48
   0   7  -2    0.38    0.43
   0  -7  -2    0.11    0.34
   0   7   2    0.67    0.42
   0   7  -2    0.44    0.27
   0   7   2    0.42    0.61
   0   7   2   -0.21    0.41
   0  -7   2    0.31    0.44
   0   8   2  260.63    5.25
   0  -8  -2  242.83    4.55
   0   8   2  259.94    5.25
   0   8  -2  237.00    5.20
   0   8  -2  249.99    5.32
   0  -8  -2  248.24    4.61
   0  -8   2  256.94    5.37
   0  -8  -2  245.97    5.61
   0   8   2  254.19    6.19
   0   8  -2  243.84    4.10
   0   8   2  244.96    5.57
   0  -8  -2  246.11    5.11
   0  -8  -2  237.78    5.05
   0  -8   2  252.36    5.33
   0  -9  -2    0.28    0.49
   0  -9   2    0.36    0.50
   0  -9  -2    0.37    0.47
   0   9  -2   -0.07    0.31
   0   9  -2   -0.02    0.41
   0   9   2   -0.09    0.48
   0  -9   2    0.60    0.56
   0   9  -2    0.59    0.53
   0   9   2   -0.40    0.39
   0  -9  -2    0.02    0.32
   0   9   2   -0.19    0.73
   0  -9  -2   -0.14    0.36
   0   9   2    0.31    0.42
   0  -9  -2    0.00    0.43
   0  10   2 1294.33   18.61
   0  10   2 1365.21   18.24
   0 -10  -2 1313.98   18.04
   0 -10  -2 1311.22   18.02
   0 -10   2 1349.08   18.42
   0  10  -2 1351.49   16.48
   0 -10  -2 1351.94   16.57
   0 -10   2 1336.62   18.39
   0 -10  -2 1311.26   18.71
   0  10   2 1357.43   18.22
   0  10   2 1335.57   19.74
   0  10  -2 1332.85   18.34
   0 -10  -2 1346.49   16.55
   0  10  -2 1322.79   18.32
   0 -11   2    0.69    0.60
   0  11   2    0.72    0.59
   0  11  -2   -0.09    0.49
   0 -11  -2    0.12    0.57
   0 -11  -2    0.63    0.47
   0  11  -2    1.09    0.63
   0  11   2   -0.74    0.56
   0 -11   2    0.41    0.53
   0 -11  -2    0.19    0.56
   0 -11  -2   -0.38    0.59
   0  11   2    1.18    0.65
   0  11  -2   -0.08    0.32
   0  11   2    0.20    0.70
   0 -11  -2    0.79    0.50
   0  12   2  151.31    5.40
   0 -12  -2  137.14    4.46
   0 -12  -2  150.28    3.58
   0  12   2  156.27    4.70
   0  12  -2  147.85    4.67
   0 -12   2  150.91    4.75
   0  12  -2  146.96    4.67
   0  12  -2  142.05    3.68
   0 -12  -2  148.01    4.84
   0  12   2  155.10    4.68
   0 -12   2  154.29    4.80
   0  12   2  155.07    4.94
   0 -12  -2  142.99    4.52
   0 -13  -2    0.43    0.66
   0  13  -2   -0.26    0.35
   0 -13   2    0.18    0.56
   0  13   2    3.02    1.25
   0  13   2    0.30    0.74
   0  13  -2    0.01    0.65
   0  13  -2    0.09    0.45
   0  13   2   -0.13    0.69
   0 -13   2   -0.14    0.62
   0 -13  -2   -0.38    0.62
   0  13   2   -0.16    0.67
   0 -13  -2    0.48    0.65
   0  13  -2   -0.73    0.74
   0  14  -2 1182.52   18.30
   0  14   2 1152.18   19.44
   0 -14  -2 1178.11   18.01
   0 -14   2 1139.15   18.19
   0 -14  -2 1191.86   18.53
   0  14   2 1118.93   18.17
   0  14  -2 1176.99   14.25
   0  14  -2 1176.54   18.28
   0  14   2 1163.46   17.98
   0 -14   2 1147.54   18.21
   0 -14  -2 1157.19   17.93
   0  14   2 1167.47   18.00
   0  14  -2 1172.96   16.06
   0 -15   2    1.62    0.92
   0 -15  -2    0.99    0.85
   0  15   2    0.67    0.75
   0  15  -2   -0.15    0.80
   0  15  -2   -0.19    0.25
   0 -15  -2    0.06    0.60
   0  15  -2    0.32    0.51
   0 -15  -2    0.32    0.63
   0  15  -2    0.20    0.66
   0 -15   2    0.74    0.63
   0  15   2    0.93    0.97
   0  15   2    1.41    0.97
   0  15   2    0.15    0.70
   0 -16   2   95.44    4.35
   0 -16  -2   90.23    4.18
   0 -16  -2   89.69    4.26
   0  16   2   93.72    4.22
   0  16  -2   90.17    4.22
   0  16   2   91.63    4.27
   0 -16  -2   89.77    4.16
   0 -16   2   94.14    4.33
   0  16  -2   94.20    4.31
   0  16  -2   87.92    2.06
   0  16  -2   88.34    3.38
   0  16   2   93.29    4.21
   0  16  -2   89.26    2.06
   0  16   2  101.34    5.05
   0 -17   2    0.10    0.66
   0 -17   2    1.12    0.95
   0  17  -2    0.14    0.13
   0  17  -2   -0.20    0.56
   0  17   2   -0.65    0.91
   0  17   2    1.53    0.92
   0 -17  -2    0.53    0.79
   0  17   2    1.64    1.27
   0 -17  -2    1.36    0.93
   0  17   2    0.44    0.74
   0  17  -2   -0.33    0.76
   0  17  -2   -0.04    0.62
   0  18   2  283.75    8.34
   0  18   2  291.00    8.40
   0  18  -2  276.78    8.36
   0  18   2  289.12    8.44
   0  18   2  305.00    9.60
   0  18  -2  280.07    8.38
   0  18  -2  273.04    6.83
   0  19   2   -0.07    0.83
   0  19  -2   -0.18    0.64
   0  19   2    0.32    0.76
   0  19   2    0.45    0.77
   0  19  -2    1.17    0.95
   0  19  -2    1.74    1.00
   0  19   2    0.12    1.09
   0  20   2  221.95    7.71
   0  20   2  213.48    7.60
   0  20   2  213.28    7.59
   0  20  -2  216.25    6.40
   0  20   2  232.92    8.90
   0  21  -2   -0.96    0.73
   0  21   2   -0.42    1.11
   0  22   2   78.27    5.53
   0  23   2    0.17    1.51
   1   0   2   -0.29    0.39
  -1   0  -2    0.74    0.36
  -1   0   2    0.72    0.43
   1   0  -2    1.66    0.37
   1   0  -2    3.79    0.45
  -1   0   2    0.59    0.38
   1   0  -2    0.21    0.39
  -1   0   2    0.63    0.26
  -1   0  -2    0.29    0.35
  -1   0   2    0.75    0.45
   1   0  -2    0.93    0.43
  -1   0  -2    2.01    0.41
   1   0  -2    0.80    0.54
  -1   0  -2    0.15    0.38
  -1   0  -2    2.80    0.31
   1   0  -2    0.61    0.33
  -1  -1   2   14.54    1.10
   1  -1  -2   13.21    0.99
  -1  -1  -2   13.81    0.90
  -1   1  -2   16.09    1.05
  -1  -1   2   12.30    0.85
   1  -1   2   13.36    0.49
   1  -1  -2   14.57    1.09
   1   1   2   13.87    0.77
  -1   1   2   14.73    0.98
   1  -1   2   13.80    0.97
  -1  -1   2   13.97    0.82
   1   1   2   14.36    1.00
   1   1  -2   14.23    0.83
   1   1  -2   13.76    1.04
  -1  -1  -2   15.86    0.83
  -1  -1   2   12.10    0.91
  -1  -1   2   12.90    0.81
   1   1  -2   14.12    0.60
  -1  -1  -2   14.73    1.04
   1   1  -2   15.25    0.85
   1  -1  -2   15.45    0.84
   1   1  -2   14.37    0.93
   1  -1  -2   13.81    0.80
   1  -1  -2   13.78    0.82
  -1   1   2   14.40    1.15
  -1  -1  -2   15.15    1.06
  -1   1   2   14.55    0.82
   1  -1   2   13.65    0.50
   1   1  -2   14.09    0.98
  -1   1  -2   15.30    1.03
  -1   1   2   13.72    1.00
   1  -1  -2   13.90    0.94
  -1  -1   2   12.60    0.57
  -1   2   2 2172.12   24.72
   1   2   2 2074.46   23.68
   1   2  -2 2086.74   23.77
  -1   2  -2 2116.71   23.03
   1  -2  -2 2072.10   25.13
  -1  -2  -2 2137.12   24.66
  -1   2  -2 2110.67   23.03
   1   2  -2 2096.59   24.29
  -1  -2   2 2092.15   23.91
   1   2   2 2198.11   22.71
   1  -2   2 2203.80   23.01
   1   2  -2 2076.49   23.76
  -1  -2  -2 2130.25   22.78
   1  -2  -2 2090.24   23.70
   1   2  -2 2040.11   24.99
   1  -2   2 2202.77   23.01
   1  -2  -2 2105.16   24.53
  -1  -2  -2 2134.35   22.78
   1  -2  -2 2082.16   23.69
  -1   2   2 2114.60   25.20
   1   2   2 2180.70   24.63
  -1  -2  -2 2037.24   23.69
  -1   2  -2 2071.66   24.39
  -1   2   2 2171.68   24.09
  -1   2   2 2118.17   24.42
  -1  -2   2 2117.66   23.93
  -1   2  -2 2087.95   24.45
  -1  -2  -2 2183.64   24.42
   1   2  -2 2087.49   24.46
   1  -2  -2 2127.24   24.07
  -1  -2   2 2135.40   24.41
   1   2   2 2193.21   22.71
  -1  -2   2 2100.54   24.47
  -1  -2  -2 2059.54   24.61
   1  -2  -2 2130.55   24.78
   1  -3  -2   31.04    1.56
  -1  -3  -2   31.01    1.49
  -1   3  -2   31.02    1.10
  -1  -3   2   29.83    1.31
  -1  -3  -2   29.11    1.45
   1  -3   2   31.90    1.10
   1   3   2   29.58    0.99
   1   3   2   28.83    1.44
   1   3  -2   31.77    1.30
   1  -3  -2   32.44    1.43
   1  -3  -2   33.57    1.54
  -1   3  -2   30.52    1.40
   1   3  -2   31.16    1.29
  -1  -3  -2   31.60    1.02
  -1  -3   2   29.44    1.31
   1   3  -2   31.83    1.42
   1  -3   2   30.61    1.08
  -1   3   2   29.20    1.41
   1   3   2   30.26    1.46
  -1   3   2   31.18    1.69
  -1  -3  -2   31.57    1.01
  -1   3  -2   31.92    1.12
   1   3   2   29.23    1.26
  -1  -3  -2   32.90    1.33
  -1   3   2   31.55    1.43
   1   3   2   29.15    0.98
  -1  -3  -2   33.06    1.49
   1  -3  -2   31.46    1.70
   1  -3   2   30.99    0.84
  -1  -3   2   30.74    1.45
  -1  -3   2   32.28    1.47
   1  -3  -2   30.89    1.25
   1  -3  -2   29.93    1.22
  -1  -4  -2  329.34    5.76
   1   4  -2  343.40    5.53
   1   4   2  315.96    5.83
   1   4   2  334.15    5.57
  -1   4  -2  335.63    5.49
  -1   4   2  328.61    5.39
   1  -4  -2  342.73    6.51
   1  -4  -2  344.15    5.37
  -1   4  -2  336.50    5.15
   1  -4  -2  339.89    6.05
   1   4   2  325.31    4.90
  -1  -4  -2  335.46    5.77
   1  -4  -2  344.27    5.94
   1   4  -2  343.84    5.53
  -1  -4  -2  335.00    4.95
   1  -4   2  317.42    5.05
   1  -4   2  319.58    5.06
  -1  -4   2  312.11    5.45
  -1   4   2  326.54    5.37
  -1   4   2  337.67    6.50
   1   4   2  318.10    4.87
   1  -4  -2  336.80    5.82
  -1  -4   2  309.30    5.44
   1   4   2  322.59    5.64
   1  -4  -2  339.21    5.34
  -1   4  -2  340.21    5.16
  -1  -4  -2  335.52    4.95
  -1   4   2  320.52    5.72
  -1  -4   2  312.57    5.69
  -1  -4   2  313.52    5.76
  -1  -4  -2  326.28    5.42
  -1  -4  -2  328.63    5.87
   1   5   2   72.78    2.51
  -1   5  -2   81.36    2.26
  -1  -5   2   73.97    2.35
  -1   5   2   76.54    2.31
   1   5  -2   78.95    2.41
  -1   5  -2   83.60    2.28
  -1   5  -2   79.41    2.26
   1  -5  -2   72.53    2.24
   1   5   2   73.97    2.04
   1  -5   2   71.35    2.13
  -1  -5  -2   76.02    2.37
   1   5  -2   77.75    2.40
  -1  -5  -2   79.56    2.12
   1   5   2   76.48    2.07
  -1  -5  -2   79.46    2.11
   1  -5  -2   77.04    2.91
  -1  -5   2   74.84    2.55
   1  -5  -2   77.95    2.55
   1  -5  -2   76.41    2.29
   1  -5  -2   77.17    2.55
  -1  -5  -2   76.85    2.40
  -1   5   2   72.79    2.26
  -1  -5   2   72.73    2.34
   1  -5   2   75.30    2.18
   1   5   2   76.46    2.47
  -1   5   2   71.46    2.47
  -1   5   2   77.89    2.95
   1  -5  -2   78.28    2.64
  -1  -5   2   71.26    2.44
  -1  -5  -2   76.35    2.57
   1   5   2   73.60    2.34
  -1  -6  -2  838.31   11.19
  -1   6  -2  833.15   11.02
  -1  -6  -2  832.88   11.51
   1   6   2  838.85   11.19
   1  -6  -2  856.32   11.57
  -1  -6  -2  832.15   11.18
   1   6   2  862.69   12.23
   1   6   2  843.95   11.20
  -1  -6   2  847.08   11.74
   1  -6   2  843.07   11.45
   1   6   2  841.63   12.15
  -1   6  -2  858.74   10.86
  -1  -6   2  846.79   11.75
  -1  -6  -2  832.08   11.53
   1  -6  -2  832.95   12.05
  -1   6   2  857.11   11.60
   1   6   2  846.83   11.49
  -1  -6   2  849.39   11.94
  -1   6  -2  858.59   11.49
  -1  -6   2  823.95    9.58
  -1   6   2  857.59   11.59
   1  -6  -2  838.89   12.12
   1  -6  -2  854.90   12.94
  -1   6   2  838.66   13.04
   1  -6  -2  850.20   11.54
  -1   6   2  841.32   12.13
  -1   6  -2  858.31   11.48
  -1  -6  -2  857.35   12.23
   1   6  -2  849.28   11.76
   1  -6   2  843.14   11.45
   1   6  -2  850.07   11.76
  -1  -7  -2   77.34    2.45
   1  -7  -2   75.57    2.58
   1  -7  -2   76.30    2.77
   1   7  -2   78.39    1.67
  -1  -7   2   74.65    2.63
  -1   7   2   76.77    2.58
  -1   7  -2   79.11    2.58
  -1   7   2   77.00    2.58
   1   7   2   76.58    2.45
   1   7  -2   77.97    2.67
   1  -7  -2   74.79    2.20
   1   7  -2   75.25    2.64
   1   7   2   76.35    2.41
  -1  -7  -2   75.40    2.43
   1  -7  -2   74.91    2.78
   1  -7   2   77.64    2.57
   1  -7  -2   76.99    2.59
  -1   7   2   78.51    2.88
  -1  -7   2   76.39    1.67
  -1  -7  -2   76.67    2.80
   1   7   2   76.11    2.83
  -1   7  -2   77.77    2.21
  -1   7  -2   77.40    2.55
   1   7   2   76.56    2.90
  -1   7   2   80.38    3.28
   1   7   2   77.82    2.47
   1  -7   2   78.59    2.58
  -1  -7   2   78.08    2.69
  -1   7  -2   75.73    2.18
  -1  -7  -2   75.41    2.44
  -1  -7  -2   77.62    2.45
   1   8  -2 1358.39   15.51
  -1   8  -2 1348.13   17.55
  -1   8   2 1324.90   17.60
   1   8   2 1317.51   18.46
   1  -8  -2 1315.43   17.49
   1  -8   2 1335.30   17.53
   1   8  -2 1347.60   17.77
   1   8   2 1359.43   17.32
  -1  -8  -2 1352.16   17.27
  -1  -8   2 1324.41   17.79
   1   8  -2 1353.08   17.78
   1   8   2 1348.27   17.30
  -1  -8   2 1348.55   15.56
  -1   8  -2 1342.65   16.24
   1  -8  -2 1353.13   18.21
  -1   8  -2 1316.52   16.49
  -1   8  -2 1339.42   16.22
  -1   8  -2 1339.62   17.54
  -1   8   2 1321.56   18.16
  -1   8   2 1324.75   17.60
  -1  -8  -2 1340.67   17.01
  -1   8   2 1343.67   19.30
   1   8   2 1326.08   16.82
  -1  -8  -2 1360.91   17.29
   1  -8  -2 1336.10   17.53
  -1  -8  -2 1350.36   18.21
   1  -8  -2 1337.82   16.25
  -1  -8  -2 1339.28   17.03
   1  -8   2 1333.11   17.52
  -1  -8   2 1321.16   17.77
   1   8   2 1328.84   18.13
  -1   9  -2   50.32    2.32
  -1  -9  -2   58.57    2.23
   1  -9  -2   53.72    2.34
  -1  -9   2   56.83    2.53
   1  -9   2   53.65    2.36
   1  -9  -2   54.69    2.37
  -1   9  -2   51.95    2.34
  -1  -9  -2   48.61    2.20
   1   9   2   53.81    2.28
  -1  -9  -2   50.74    2.25
  -1  -9   2   53.97    2.48
   1  -9  -2   56.11    1.84
  -1   9  -2   51.26    1.75
   1   9   2   53.85    2.03
   1   9  -2   50.40    2.39
  -1  -9  -2   52.46    2.52
  -1  -9   2   56.54    1.73
  -1   9   2   58.54    2.48
  -1   9   2   58.16    2.47
   1   9   2   56.10    2.76
   1   9   2   56.97    2.34
  -1   9   2   53.31    2.54
  -1   9   2   56.90    2.99
   1  -9  -2   55.00    2.59
  -1   9  -2   49.47    1.71
   1   9  -2   52.41    2.43
   1  -9   2   52.48    2.33
   1   9   2   52.05    2.53
   1   9  -2   53.20    1.63
  -1   9  -2   53.99    1.98
   1  10   2  212.22    5.09
  -1 -10  -2  213.60    4.69
  -1 -10   2  203.01    4.00
   1 -10  -2  210.81    5.50
  -1  10   2  211.98    6.16
   1 -10  -2  210.88    5.22
   1  10   2  200.04    5.71
  -1 -10  -2  205.91    5.04
  -1 -10   2  197.90    5.21
   1  10  -2  221.63    5.44
   1 -10  -2  201.55    5.13
   1 -10   2  194.72    5.11
  -1  10  -2  215.61    5.26
  -1  10   2  195.11    5.05
   1  10   2  196.00    4.25
  -1  10  -2  207.71    3.87
  -1 -10   2  203.74    5.25
   1 -10  -2  207.05    3.96
  -1  10   2  192.11    5.36
  -1  10  -2  208.59    3.87
  -1 -10  -2  205.70    5.42
  -1  10  -2  204.35    4.42
   1  10  -2  201.52    3.93
  -1  10  -2  205.77    5.16
   1  10   2  200.35    4.97
   1  10  -2  209.57    5.33
  -1  10   2  201.81    5.12
   1 -10  -2  209.87    3.97
   1 -10   2  191.71    5.07
   1  10   2  205.18    5.41
  -1 -10  -2  206.83    5.04
  -1 -11   2   18.27    1.60
  -1  11   2   21.44    2.08
  -1  11   2   22.67    1.72
  -1  11  -2   19.38    1.61
   1  11   2   18.76    1.56
   1 -11  -2   17.36    1.53
   1  11  -2   17.99    1.58
  -1 -11  -2   18.53    1.64
  -1 -11  -2   19.12    1.55
  -1  11  -2   18.37    1.01
   1  11  -2   16.08    1.52
  -1 -11   2   19.44    1.65
   1 -11   2   20.77    1.66
   1  11   2   15.58    1.56
  -1 -11   2   20.21    1.19
   1 -11  -2   19.23    1.61
   1 -11  -2   18.76    1.69
  -1  11  -2   19.05    1.01
  -1  11  -2   19.89    1.62
   1  11   2   21.94    2.00
  -1  11   2   19.36    1.60
  -1  11  -2   17.47    1.25
   1  11   2   18.47    1.53
  -1  11   2   19.21    1.69
   1 -11  -2   18.82    1.04
   1  11   2   18.34    1.20
   1 -11   2   19.92    1.60
   1 -11  -2   17.77    1.01
   1  11  -2   18.93    1.15
  -1 -11  -2   18.22    1.51
  -1 -12  -2 1081.78   16.05
   1  12  -2 1078.24   16.45
  -1  12  -2 1078.70   16.33
  -1  12   2 1079.24   16.26
   1  12   2 1071.17   16.03
  -1  12   2 1092.83   16.31
   1  12  -2 1071.28   16.43
  -1  12  -2 1070.82   16.28
  -1 -12  -2 1070.38   16.01
  -1 -12   2 1061.25   16.40
   1  12   2 1087.82   16.10
   1  12   2 1026.56   16.42
   1  12   2 1075.76   17.41
  -1 -12  -2 1074.00   16.65
  -1 -12   2 1058.29   14.27
   1 -12  -2 1094.68   13.40
   1 -12   2 1047.79   16.24
  -1  12  -2 1074.47   13.20
   1  12   2 1055.83   14.03
   1 -12  -2 1062.86   16.71
  -1  12  -2 1082.02   13.18
  -1  12  -2 1065.47   14.82
   1 -12  -2 1096.20   13.39
  -1  12   2 1093.84   18.00
  -1  12   2 1056.70   16.63
   1 -12  -2 1066.09   16.20
   1 -12   2 1046.20   16.27
   1 -12  -2 1057.49   16.17
   1  12  -2 1064.18   14.15
  -1 -12   2 1050.61   16.34
   1 -13  -2   10.70    1.35
  -1 -13   2   12.01    1.10
   1 -13   2   12.56    1.49
  -1 -13  -2    8.99    1.21
   1 -13  -2   10.60    1.47
  -1 -13   2    7.06    1.23
  -1  13  -2    9.38    1.35
  -1 -13  -2   10.23    1.39
   1  13   2   10.87    1.37
   1  13  -2    8.96    1.30
   1 -13  -2   11.11    1.39
  -1  13   2    9.89    1.37
   1 -13   2   11.86    1.46
  -1 -13  -2   10.97    1.37
   1  13   2    9.13    1.34
  -1  13   2   12.56    1.94
  -1  13   2   11.24    1.42
  -1  13  -2    9.73    0.69
   1  13   2   10.80    1.65
  -1  13  -2   11.59    1.16
  -1 -13   2   11.65    1.44
  -1  13  -2    9.67    1.32
  -1  13  -2    9.01    0.66
   1 -13  -2   11.45    0.85
  -1  13   2   10.56    1.36
   1  13   2    8.61    1.25
   1 -13  -2   10.62    0.82
   1  13  -2   10.53    1.01
   1  13  -2   10.05    1.31
  -1 -14  -2    3.60    0.88
   1 -14   2    2.54    0.80
  -1 -14   2    2.55    0.64
  -1 -14   2    3.02    0.93
   1  14   2    1.73    0.66
  -1  14   2    3.09    0.91
  -1 -14  -2    3.67    0.91
  -1  14  -2    1.09    0.74
  -1  14  -2    2.97    0.41
  -1  14  -2    3.20    0.70
   1  14  -2    3.08    0.95
   1 -14  -2    3.05    0.95
  -1  14   2    1.75    0.87
   1 -14   2    2.97    0.80
  -1 -14   2    1.42    0.70
   1  14  -2    1.90    0.71
   1  14   2    4.18    0.99
   1  14  -2    2.35    0.58
  -1  14  -2    3.36    0.43
  -1 -14  -2    4.20    0.99
   1 -14  -2    3.96    0.96
   1  14   2    2.37    1.05
  -1  14   2    2.14    0.77
  -1  14   2    4.06    1.47
  -1  14  -2    4.27    1.03
   1  14   2    1.33    0.56
   1 -14  -2    3.22    0.99
  -1 -15  -2    1.30    0.87
   1 -15   2    1.87    0.87
  -1  15  -2    1.88    0.77
   1  15  -2    0.56    0.62
  -1 -15   2    1.46    0.59
  -1  15   2    1.03    1.11
  -1  15   2    0.66    0.76
   1 -15  -2    0.73    0.71
  -1 -15   2    1.16    0.72
  -1  15  -2    0.58    0.73
   1  15   2    0.25    0.59
   1 -15  -2    0.69    0.65
  -1  15   2    1.05    0.74
  -1  15  -2    0.76    0.23
   1  15  -2    1.15    0.54
  -1 -15  -2    0.43    0.67
  -1 -15   2    1.30    0.70
   1  15   2    1.20    0.81
  -1 -15  -2    0.77    0.79
   1 -15  -2    1.38    0.76
  -1  15  -2    0.82    0.66
   1 -15   2    0.17    0.67
   1  15   2    1.93    1.09
   1  15   2    1.18    0.69
  -1  15   2    1.38    0.67
   1  15  -2    0.45    0.72
  -1 -16  -2  629.50   12.78
  -1 -16   2  638.80   12.84
   1  16   2  652.16   12.60
  -1 -16   2  636.71   12.83
  -1  16   2  635.05   12.63
  -1  16  -2  609.20   12.51
   1  16  -2  627.76   12.72
  -1  16   2  648.83   12.71
   1 -16   2  620.87   12.67
  -1  16   2  647.24   14.08
   1 -16  -2  615.18   12.51
  -1 -16   2  626.22   10.81
  -1 -16  -2  609.67   12.38
   1 -16  -2  613.31   12.49
  -1 -16  -2  601.75   12.30
  -1  16   2  612.84   12.61
   1  16   2  645.60   12.57
  -1  16  -2  619.77   11.05
   1 -16  -2  619.92   12.79
   1 -16   2  614.31   12.62
   1  16  -2  622.73   10.55
   1  16   2  615.75   12.56
   1  16   2  667.35   14.04
   1  16  -2  627.46   12.73
  -1  16  -2  629.18   12.66
   1 -17  -2    5.24    1.21
  -1 -17   2    4.62    0.92
   1  17   2    6.51    1.30
  -1  17   2    3.91    1.08
  -1  17  -2    5.67    1.24
  -1 -17  -2    5.59    1.18
   1  17  -2    6.33    1.35
   1 -17  -2    6.24    1.33
  -1  17   2    4.42    1.15
  -1 -17  -2    6.11    1.30
   1  17  -2    4.11    0.88
  -1  17  -2    4.93    1.01
   1  17   2    4.62    1.17
  -1  17   2    5.08    1.16
  -1  17  -2    5.70    1.30
  -1  17   2    5.94    1.67
   1  17   2    5.11    1.12
   1  17   2    5.70    1.60
   1  17  -2    7.12    1.45
  -1  18   2  182.75    6.59
   1  18   2  182.11    6.48
  -1  18  -2  173.11    6.45
  -1  18  -2  172.74    6.44
   1  18  -2  185.82    5.32
   1  18  -2  176.07    6.60
   1  18   2  181.67    6.49
  -1 -18   2  180.10    5.43
  -1  18   2  184.24    7.46
   1  18  -2  175.63    6.61
   1  18   2  194.82    7.52
  -1  18  -2  179.00    5.51
  -1  18   2  178.90    6.56
   1  18   2  188.47    6.64
  -1  18   2  168.36    6.34
  -1 -19   2    9.34    1.27
  -1  19   2   11.11    1.70
  -1  19  -2   13.38    1.88
   1  19   2   11.16    1.65
   1  19  -2    9.86    1.72
  -1  19  -2    8.91    1.32
  -1  19  -2    6.65    1.38
   1  19   2   13.90    2.27
  -1  19   2   12.81    1.90
  -1  19   2   11.67    1.78
   1  19   2   12.29    1.77
   1  19   2    7.54    1.46
  -1  19   2   10.16    1.93
   1  19  -2   10.20    1.34
   1  19  -2   11.37    1.80
   1  20   2  178.10    6.83
   1  20  -2  180.30    5.67
   1  20   2  179.51    6.85
   1  20   2  169.20    6.69
  -1  20   2  175.26    7.77
   1  20   2  192.91    8.07
  -1  20  -2  172.81    5.78
  -1 -20   2  170.18    5.69
  -1  21  -2    0.99    0.65
   1  21   2    2.56    1.29
  -1  21   2    1.75    1.31
   1  22   2  235.90    9.79
  -1  22   2  239.08    9.70
   1  23   2    2.71    1.57
  -2   0   2 1699.66   20.63
  -2   0   2 1693.54   19.29
  -2   0  -2 1682.59   18.54
   2   0  -2 1627.00   20.08
   2   0  -2 1652.42   20.12
   2   0   2 1684.28   18.92
   2   0   2 1685.54   20.46
   2   0  -2 1657.45   20.79
  -2   0   2 1668.69   20.91
  -2   0  -2 1602.67   20.35
  -2   0  -2 1644.96   20.41
   2   0   2 1724.50   18.94
   2   0  -2 1635.27   20.55
   2   0  -2 1627.76   20.86
   2   0   2 1701.97   20.52
  -2   0   2 1653.59   20.75
  -2  -1  -2   28.53    0.82
   2  -1   2   28.08    0.74
   2  -1   2   27.98    1.08
  -2  -1  -2   26.89    1.49
   2   1   2   27.19    1.50
   2   1   2   28.19    1.05
   2   1  -2   27.65    1.45
  -2  -1  -2   28.09    0.85
  -2  -1   2   26.34    1.49
  -2   1  -2   28.44    1.50
   2  -1  -2   28.04    1.51
   2  -1  -2   29.38    1.66
  -2  -1   2   28.25    1.45
   2  -1  -2   27.42    1.42
   2   1   2   29.13    1.06
   2   1  -2   27.46    1.55
  -2   1   2   27.57    1.52
  -2   1   2   27.97    1.27
  -2  -1   2   27.60    1.07
   2   1  -2   27.50    1.44
   2  -1   2   28.09    1.45
  -2  -1  -2   26.47    1.50
   2  -1  -2   26.93    1.43
   2  -1   2   27.71    1.06
  -2   1   2   27.57    1.64
  -2   1  -2   29.54    1.55
  -2  -1   2   27.45    1.41
   2  -1   2   27.34    1.44
   2   1  -2   26.11    1.55
   2   1  -2   27.77    1.51
   2   1   2   27.69    1.52
  -2  -1   2   25.62    1.52
   2  -1  -2   28.48    1.60
  -2  -1   2   28.02    1.64
  -2   1   2   28.71    1.63
   2   2   2  621.73    9.43
  -2  -2  -2  630.94    9.48
   2   2  -2  606.53    9.70
   2  -2   2  631.28    8.24
  -2  -2  -2  636.02    9.40
  -2  -2  -2  627.01    9.47
  -2   2   2  633.90    8.96
   2   2  -2  643.15    9.33
   2  -2  -2  626.17    8.94
  -2  -2   2  632.34    9.68
  -2  -2   2  619.86    9.25
  -2  -2  -2  636.91    8.30
  -2  -2   2  606.62    9.18
  -2   2  -2  620.40    9.24
  -2   2  -2  624.51    9.26
   2   2   2  627.99    8.11
   2  -2   2  625.21    8.23
   2   2  -2  624.83    9.63
  -2  -2  -2  643.63    7.77
   2   2  -2  630.65    9.26
  -2  -2  -2  631.58    8.28
   2  -2   2  627.53    7.63
  -2   2   2  648.99    9.75
   2  -2   2  623.87    9.23
   2  -2  -2  642.06   10.06
   2   2   2  637.97    7.46
  -2  -2  -2  625.28    7.54
  -2   2   2  641.40   10.04
   2  -2  -2  634.48    9.74
   2  -2   2  627.63    9.24
  -2  -2   2  638.82    7.90
   2   2  -2  628.50    9.62
   2   2   2  631.23    8.11
  -2  -2   2  632.52    9.57
   2  -2  -2  630.16    9.79
  -2   2   2  632.47    9.75
   2   2   2  625.94    9.44
  -2  -3   2   12.17    1.13
   2   3   2   11.58    0.72
   2  -3  -2   13.68    1.18
   2  -3   2   11.18    0.64
   2  -3  -2   11.45    1.13
  -2   3   2   10.98    1.07
   2  -3  -2   12.22    1.01
   2   3  -2   13.19    1.04
   2  -3   2   10.64    0.76
   2   3  -2   11.50    1.07
  -2  -3  -2   11.42    0.79
  -2   3   2   11.55    0.96
  -2  -3  -2   12.70    1.11
  -2   3  -2   11.16    0.99
   2   3   2   12.16    0.75
  -2  -3   2   12.77    1.12
   2   3  -2   10.90    0.94
  -2  -3   2    9.94    0.91
   2   3  -2   11.97    1.05
   2  -3  -2   11.81    0.99
  -2  -3   2   13.13    1.04
   2  -3   2   10.25    0.75
  -2  -3  -2   11.79    0.80
   2   3   2    9.85    0.96
   2   3  -2   13.03    1.16
  -2  -3  -2   13.73    1.16
   2  -3   2   10.53    0.93
  -2   3  -2   13.34    1.07
  -2  -3  -2   10.39    0.95
  -2   3   2   10.32    1.12
   2   3   2   10.83    0.58
   2  -3  -2   12.31    0.98
   2   3   2   10.57    0.99
   2  -3  -2   11.80    1.16
  -2   3   2   12.21    1.11
   2  -4  -2 1285.59   17.01
   2   4   2 1278.11   15.33
  -2  -4  -2 1307.63   16.73
   2  -4   2 1264.79   13.99
  -2   4   2 1267.25   16.95
   2   4   2 1278.91   15.33
   2  -4  -2 1275.24   16.29
   2  -4  -2 1289.92   17.61
  -2  -4  -2 1272.98   15.48
   2  -4  -2 1264.10   16.27
  -2  -4   2 1263.38   16.43
  -2   4   2 1260.93   16.79
   2   4   2 1255.77   14.96
  -2   4  -2 1285.66   16.10
   2  -4  -2 1280.92   16.45
  -2   4  -2 1279.60   16.05
  -2  -4   2 1285.46   16.48
  -2  -4   2 1254.89   16.79
   2   4  -2 1268.06   16.35
  -2  -4   2 1260.22   16.88
   2  -4   2 1242.59   15.54
  -2  -4  -2 1264.31   15.46
   2   4  -2 1293.94   16.74
   2  -4  -2 1283.71   17.03
  -2   4  -2 1298.70   15.68
   2   4   2 1216.31   16.41
   2  -4   2 1244.13   15.54
   2   4  -2 1274.28   16.36
  -2   4   2 1282.98   16.43
  -2   4   2 1269.63   17.59
  -2   4  -2 1309.92   15.71
  -2  -4  -2 1281.06   16.58
   2  -4   2 1261.79   15.97
   2   4   2 1258.18   16.49
  -2  -4  -2 1278.29   16.61
   2  -5  -2    8.84    1.00
  -2  -5   2    8.70    1.05
   2   5   2    9.73    0.78
  -2   5  -2   10.56    0.88
   2   5  -2    8.94    0.94
   2  -5   2    9.03    0.83
   2  -5  -2    9.72    0.98
  -2   5  -2   10.78    0.93
  -2  -5  -2    9.60    0.81
  -2  -5   2    7.53    0.86
   2   5   2    9.54    1.02
  -2  -5  -2   10.09    1.02
  -2  -5  -2   10.35    0.84
  -2  -5  -2    9.52    1.00
   2   5  -2    9.09    0.94
  -2  -5  -2    8.89    0.97
  -2   5  -2    9.55    0.86
  -2  -5   2    7.80    0.86
   2  -5   2    8.58    0.80
   2  -5  -2    9.01    0.98
  -2   5  -2    8.17    0.86
  -2  -5   2    9.24    1.03
  -2  -5   2    8.19    0.47
   2   5   2    9.36    1.02
   2  -5  -2    9.43    1.09
  -2   5   2    9.28    1.01
   2   5   2    9.33    0.79
   2  -5   2    7.98    0.78
  -2   5   2   10.04    1.30
   2  -5  -2   10.01    1.28
   2   5   2    9.27    0.76
   2  -5  -2    9.86    0.99
   2   6   2 1038.72   13.97
   2   6  -2 1020.21   14.12
   2   6   2 1029.82   14.49
  -2   6   2 1025.67   14.14
  -2   6  -2 1022.47   13.66
  -2  -6   2 1054.28   14.31
   2  -6  -2 1002.40   14.31
   2  -6   2 1036.44   13.67
  -2   6  -2  995.10   13.24
   2   6   2 1034.54   13.37
  -2   6   2 1036.49   14.17
   2  -6  -2  974.03   13.92
   2  -6  -2  985.59   13.97
   2   6  -2 1012.53   14.13
  -2  -6  -2 1008.94   13.40
   2   6   2  995.36   13.57
  -2  -6   2 1028.29   14.23
  -2  -6   2 1025.13   14.71
   2   6   2 1024.22   13.35
   2   6   2 1041.11   14.02
   2  -6  -2  985.89   14.56
   2  -6   2 1019.94   13.65
   2  -6  -2 1020.71   14.71
  -2  -6   2 1047.86   14.58
  -2   6  -2 1028.72   13.66
  -2   6   2 1021.97   14.41
  -2   6   2 1056.77   15.60
  -2   6  -2  991.59   13.25
   2  -6   2 1044.95   13.27
  -2  -6   2 1028.45   11.81
  -2  -6  -2 1016.51   13.43
  -2  -6  -2 1011.25   14.43
   2  -6  -2 1018.04   15.45
  -2  -6  -2 1015.35   14.15
  -2  -7  -2   10.72    0.96
   2   7  -2   10.19    1.09
  -2  -7  -2   11.94    1.23
  -2   7   2   10.50    1.07
   2  -7  -2   10.66    1.16
  -2   7  -2   10.50    1.02
  -2   7   2   11.17    1.10
  -2  -7   2   11.17    1.13
   2  -7   2   11.60    1.04
   2   7   2    8.80    0.98
  -2  -7  -2    9.88    0.93
   2  -7  -2    9.46    1.01
  -2   7   2   11.14    1.22
   2   7   2   11.76    0.98
   2   7  -2   10.64    1.12
   2   7   2   11.23    1.04
   2   7   2   11.46    0.96
  -2   7  -2   10.29    0.88
  -2  -7  -2    9.12    1.03
  -2  -7   2   11.01    1.11
   2  -7  -2   11.76    1.23
  -2  -7   2   11.20    1.18
   2  -7  -2   12.03    1.23
   2  -7  -2    9.60    1.03
  -2  -7   2   11.31    0.64
   2  -7  -2   11.68    1.44
  -2   7  -2   11.11    1.04
   2   7   2   11.41    1.13
  -2   7  -2   10.46    0.89
  -2   7   2   11.02    1.41
   2   7   2   10.32    1.01
  -2  -7   2   11.96    1.26
   2  -7   2   10.94    1.00
   2  -8   2  508.08    8.65
   2   8   2  529.56    9.28
   2   8   2  522.54    9.00
   2  -8  -2  497.48    9.21
  -2  -8  -2  495.72    8.39
   2  -8  -2  495.10    9.10
  -2   8   2  519.67    8.97
  -2   8  -2  509.07    8.64
   2  -8  -2  498.96    8.81
  -2   8  -2  503.83    7.63
   2   8   2  516.57    8.43
   2   8   2  516.52    8.43
   2   8   2  515.08    8.46
  -2  -8   2  504.82    9.04
  -2  -8   2  505.85    9.19
   2   8  -2  516.59    9.02
   2  -8   2  506.98    8.64
  -2  -8  -2  488.70    8.36
  -2   8   2  511.40    8.92
  -2   8   2  512.49    9.27
  -2   8  -2  500.33    8.33
  -2   8   2  522.99   10.24
   2   8   2  512.06    8.42
  -2   8  -2  503.40    8.60
   2  -8  -2  504.48    9.28
   2  -8  -2  510.33    8.86
  -2  -8   2  516.06    6.97
  -2  -8   2  503.02    9.03
  -2   8  -2  500.39    7.61
  -2  -8  -2  484.12    9.02
   2   8  -2  494.07    8.89
  -2  -9  -2    3.50    0.71
   2   9   2    2.43    0.63
  -2   9   2    3.80    0.83
   2   9   2    2.36    0.62
   2   9  -2    3.97    0.82
   2  -9  -2    3.41    0.86
  -2   9  -2    4.14    0.76
   2  -9  -2    5.38    1.00
  -2   9  -2    3.34    0.75
  -2  -9   2    4.18    0.87
   2  -9  -2    2.59    0.65
  -2   9  -2    3.37    0.57
   2  -9   2    4.84    0.84
   2   9   2    2.47    0.62
  -2  -9  -2    3.65    0.81
   2   9  -2    4.03    0.86
  -2   9  -2    4.14    0.62
  -2  -9  -2    3.72    0.74
  -2  -9   2    3.39    0.47
   2   9   2    2.92    0.73
  -2  -9   2    3.18    0.90
  -2   9   2    2.04    0.73
  -2   9   2    4.35    0.86
   2   9   2    2.54    0.60
  -2   9   2    3.95    1.16
  -2   9  -2    4.49    0.82
  -2  -9   2    3.73    0.80
   2   9   2    4.67    0.91
   2  -9  -2    2.92    0.73
   2  -9  -2    4.56    0.96
   2  -9   2    3.47    0.75
  -2 -10  -2 1091.00   15.72
  -2  10  -2 1100.16   15.98
   2  10   2 1136.51   16.64
   2 -10  -2 1107.76   16.16
  -2 -10   2 1098.85   16.50
   2  10   2 1107.41   15.75
   2 -10  -2 1121.82   16.78
   2  10  -2 1119.54   16.37
  -2 -10  -2 1106.25   15.77
  -2 -10   2 1107.32   16.37
  -2  10   2 1083.42   16.15
  -2  10  -2 1086.46   15.93
   2  10   2 1091.40   15.72
  -2  10   2 1105.80   16.22
   2  10  -2 1094.75   16.28
   2 -10  -2 1105.74   16.74
  -2 -10   2 1087.03   13.87
  -2 -10   2 1099.72   16.34
   2 -10  -2 1111.80   16.58
  -2  10  -2 1074.87   15.21
   2 -10   2 1081.51   15.96
   2  10   2 1092.69   16.50
   2 -10  -2 1112.11   16.17
  -2  10   2 1120.25   17.79
   2  10   2 1111.39   15.09
  -2  10  -2 1101.48   13.91
   2 -10   2 1074.52   15.94
  -2  10  -2 1091.08   13.89
   2  10   2 1095.40   15.02
  -2 -10  -2 1116.35   16.54
  -2  10   2 1111.28   16.59
  -2 -11  -2   15.71    1.43
  -2 -11   2   19.51    1.70
  -2  11   2   19.46    2.02
  -2  11  -2   17.73    1.59
   2 -11  -2   15.20    1.57
  -2 -11   2   17.65    1.12
   2 -11  -2   16.88    1.57
   2 -11   2   16.82    1.55
   2 -11  -2   17.33    1.57
  -2 -11  -2   16.13    1.55
  -2 -11  -2   16.16    1.45
  -2 -11   2   19.05    1.65
   2 -11   2   17.32    1.57
   2 -11  -2   15.83    1.62
   2  11   2   20.08    1.63
   2  11  -2   16.11    1.57
  -2  11  -2   16.13    1.02
  -2  11  -2   15.95    1.02
  -2 -11   2   17.21    1.73
  -2  11  -2   16.32    1.33
   2  11   2   17.74    1.33
  -2  11   2   18.26    1.64
   2 -11  -2   14.95    0.96
   2  11   2   19.72    1.58
  -2  11   2   19.33    1.77
   2  11   2   20.72    1.83
   2  11   2   18.14    1.35
  -2  11   2   19.87    1.71
  -2  11  -2   15.17    1.46
   2  11  -2   15.05    1.54
   2  11   2   16.61    1.65
  -2 -12  -2   28.73    2.01
  -2 -12   2   25.87    2.02
  -2  12  -2   23.90    1.91
   2 -12  -2   29.09    2.08
   2 -12   2   23.24    1.86
   2  12  -2   27.29    2.06
  -2 -12  -2   24.86    1.87
  -2 -12   2   27.22    1.47
  -2 -12   2   24.87    1.97
   2 -12  -2   29.33    2.19
   2 -12  -2   27.94    1.24
   2 -12  -2   24.91    1.93
  -2  12   2   26.11    2.04
   2 -12  -2   26.81    2.14
   2  12   2   24.44    1.57
  -2  12  -2   28.39    1.33
   2  12   2   23.88    1.97
   2  12   2   26.00    1.91
   2  12   2   25.48    1.62
  -2  12  -2   28.39    1.83
  -2  12   2   24.58    2.29
   2 -12  -2   27.44    1.22
   2  12   2   29.37    2.30
  -2  12  -2   27.44    2.03
  -2  12   2   25.15    2.06
  -2 -12  -2   27.10    2.08
   2 -12   2   22.32    1.82
   2  12   2   26.77    1.92
   2  12  -2   25.36    2.00
  -2  12   2   25.09    1.97
   2 -13  -2    1.14    0.31
   2 -13   2    2.68    0.79
   2 -13  -2    1.19    0.37
   2  13   2    2.03    0.62
  -2 -13   2    2.27    0.60
  -2  13   2    1.68    0.85
  -2  13  -2    0.89    0.55
  -2  13  -2    1.70    0.74
  -2 -13   2    1.75    0.77
  -2 -13  -2    0.50    0.55
  -2  13   2    1.38    0.78
   2  13   2    2.12    0.86
   2 -13  -2    0.77    0.66
   2 -13  -2    0.50    0.67
   2  13  -2    0.77    0.69
   2 -13   2    2.40    0.71
   2  13   2    1.56    0.84
  -2 -13  -2    0.83    0.60
  -2 -13   2    1.72    0.68
   2 -13  -2    0.98    0.77
   2 -13  -2    1.01    0.72
  -2  13   2    1.50    0.92
  -2 -13  -2   -0.04    0.65
  -2  13   2    2.72    0.94
  -2  13  -2    1.23    0.70
   2  13  -2    1.51    0.76
   2  13   2    2.47    1.10
   2  13   2    2.00    0.85
   2  14   2  727.95   13.00
  -2 -14  -2  703.24   12.82
  -2 -14   2  699.84   13.28
  -2  14  -2  729.45   13.22
   2 -14  -2  720.87    9.21
   2  14   2  738.07   11.09
   2  14  -2  720.29   13.35
   2 -14   2  707.64   13.10
  -2 -14  -2  725.60   12.96
  -2 -14   2  701.72   13.29
   2  14   2  742.95   14.11
   2 -14  -2  719.77   13.20
   2 -14  -2  735.72   13.64
   2 -14  -2  718.03   13.19
   2 -14   2  706.07   13.09
  -2 -14  -2  729.56   13.40
  -2  14  -2  724.96   13.20
  -2  14   2  739.20   13.63
  -2  14   2  742.09   13.43
  -2  14   2  713.22   13.27
   2 -14  -2  729.41    9.20
  -2  14   2  750.68   14.84
   2  14  -2  721.22   11.08
   2  14   2  719.08   13.35
   2  14   2  706.08   12.93
  -2 -14   2  718.02   11.15
   2  14  -2  720.43   13.36
  -2  14  -2  718.87   12.09
   2  15  -2    4.50    1.06
   2 -15  -2    3.42    0.99
   2  15   2    3.99    1.02
   2 -15   2    3.02    0.93
  -2 -15   2    4.08    0.74
  -2  15   2    3.12    0.95
  -2 -15  -2    5.02    1.05
   2 -15  -2    3.70    1.01
  -2  15  -2    2.99    0.93
  -2 -15   2    4.39    1.14
  -2  15   2    2.28    1.12
  -2  15  -2    3.90    0.87
  -2 -15  -2    4.80    1.10
   2  15   2    5.64    1.11
  -2  15   2    2.35    0.92
  -2 -15   2    1.84    0.83
   2 -15   2    2.71    0.94
  -2 -15  -2    4.28    1.00
   2  15  -2    4.10    1.04
   2  15  -2    4.06    0.76
  -2  15  -2    6.15    1.22
   2 -15  -2    2.63    0.82
  -2  15   2    3.15    0.93
   2  15   2    4.65    0.73
   2  15   2    5.08    1.37
   2  15   2    3.04    0.89
   2  16   2   58.86    3.44
  -2  16  -2   62.23    3.51
   2  16  -2   63.77    2.79
  -2  16   2   64.52    3.65
  -2 -16   2   55.86    3.44
  -2 -16  -2   59.46    3.40
   2  16   2   61.07    3.42
   2  16   2   57.01    2.34
   2  16  -2   60.73    3.60
   2 -16  -2   65.70    3.65
   2 -16   2   58.26    3.47
   2 -16  -2   65.25    3.65
  -2 -16  -2   62.73    3.50
  -2 -16   2   58.36    3.52
   2  16   2   62.76    3.46
  -2  16  -2   67.10    3.19
   2  16   2   63.06    3.91
   2 -16  -2   62.86    3.66
  -2 -16   2   58.46    2.70
  -2  16   2   62.32    3.57
  -2  16  -2   63.42    3.55
   2  16  -2   66.08    3.73
  -2 -16  -2   56.28    3.41
  -2  16   2   68.61    4.24
  -2  16   2   63.57    3.68
   2 -16   2   59.19    3.47
  -2 -17   2    8.07    1.09
   2  17   2    5.94    1.21
  -2  17   2    8.54    1.40
  -2  17  -2    9.29    1.29
   2  17  -2    7.44    1.47
  -2  17   2    5.60    1.27
  -2 -17  -2    6.22    1.24
  -2 -17  -2    6.87    1.31
   2  17   2    7.26    1.38
   2  17  -2    6.90    1.02
  -2  17  -2    7.96    1.48
  -2  17   2    8.33    1.80
   2  17   2    5.89    1.27
  -2  17   2    7.58    1.36
   2  17   2    6.29    1.55
  -2  17  -2    7.67    1.47
   2  17  -2    7.11    1.42
  -2  18  -2  431.46   10.69
   2  18   2  407.12   10.42
  -2  18   2  413.45   10.57
  -2  18  -2  440.64   10.78
   2  18   2  415.20   10.40
   2  18  -2  414.81   10.74
  -2  18   2  423.86   11.81
  -2 -18   2  403.90    8.69
  -2  18   2  406.54   10.50
   2  18  -2  436.23   10.94
   2  18   2  412.70   10.37
   2  18  -2  423.00    8.68
  -2  18  -2  417.51    9.39
   2  18   2  424.27   11.66
  -2  18   2  420.27   10.71
   2  19  -2    2.46    0.91
  -2 -19   2    3.10    0.78
  -2  19   2    4.15    1.41
  -2  19  -2    3.52    1.20
   2  19   2    4.55    1.20
   2  19   2    4.49    1.31
  -2  19  -2    2.92    0.83
  -2  19   2    3.31    1.30
  -2  19   2    2.29    0.90
   2  19  -2    2.45    0.93
   2  19   2    1.44    0.92
   2  19  -2    2.58    0.74
  -2  19  -2    2.61    1.04
  -2  19   2    3.17    1.17
   2  19   2    1.90    1.13
  -2  20   2  185.44    8.06
   2  20   2  192.43    8.07
  -2  20  -2  176.64    6.11
  -2  21   2    0.56    1.21
   2  21   2    3.62    1.75
  -2  21  -2    2.83    0.91
  -2  22   2   65.68    5.14
  -2  22  -2   61.57    3.69
   2  22   2   76.65    5.51
   2  23   2    1.48    1.55
   3   0  -2    0.22    0.54
  -3   0   2    0.86    0.51
  -3   0  -2    0.69    0.27
  -3   0   2    1.02    0.45
   3   0   2    0.36    0.46
  -3   0  -2    0.85    0.58
   3   0  -2    1.91    0.63
   3   0   2    0.81    0.38
   3   0   2    1.11    0.43
   3   0  -2    0.51    0.55
  -3   0   2    0.82    0.64
  -3   0  -2    1.46    0.33
   3   0  -2    1.04    0.63
   3   0  -2    2.34    0.61
   3   0   2    0.88    0.51
  -3   0   2    0.12    0.59
   3   0   2    1.52    0.30
  -3  -1   2   95.19    3.24
  -3  -1  -2   90.66    3.10
  -3  -1   2   96.59    3.11
  -3   1   2   94.04    2.79
   3  -1  -2   85.49    3.02
   3  -1   2   96.92    2.70
   3  -1   2   92.54    3.08
  -3  -1   2   94.78    3.08
  -3   1   2   94.67    3.28
   3   1   2   94.87    3.14
   3   1  -2   89.86    3.11
  -3   1   2   97.89    3.32
   3   1  -2   82.52    2.94
   3  -1  -2   86.97    3.11
   3  -1  -2   84.12    2.97
   3   1   2   90.77    2.10
   3  -1   2   97.49    2.13
   3  -1   2   90.94    2.63
   3   1   2   90.75    2.57
  -3   1  -2   84.44    2.07
   3   1   2   91.71    3.11
   3   1  -2   92.24    3.20
  -3  -1   2   95.48    3.27
   3  -1   2   92.69    3.04
   3  -1  -2   90.84    3.23
  -3   1   2  100.64    3.36
   3   1   2   93.79    2.60
   3   1  -2   85.15    3.08
   3   1  -2   85.23    2.98
   3  -1  -2   86.91    3.16
  -3   1  -2   83.80    1.81
  -3  -1   2  100.27    3.35
  -3  -1  -2   85.12    2.08
  -3   1  -2   82.07    2.95
  -3   2  -2 1352.07   15.26
   3  -2   2 1382.51   16.13
   3  -2  -2 1373.01   18.23
   3  -2  -2 1343.73   18.16
  -3  -2   2 1360.96   18.43
   3   2  -2 1391.09   18.45
   3   2   2 1375.73   16.97
  -3  -2  -2 1350.12   16.27
   3   2  -2 1367.73   18.15
   3   2   2 1383.86   18.26
   3  -2  -2 1386.90   18.65
   3   2   2 1405.83   18.29
   3   2  -2 1368.71   18.36
  -3  -2   2 1392.79   18.20
  -3  -2  -2 1372.85   17.09
  -3  -2  -2 1368.65   17.08
   3   2   2 1356.57   16.92
  -3  -2  -2 1342.48   18.23
   3  -2   2 1374.36   17.91
   3  -2   2 1356.84   17.07
   3  -2  -2 1399.76   18.57
  -3  -2   2 1346.55   18.50
   3  -2   2 1360.53   17.08
  -3  -2   2 1374.74   18.15
  -3   2   2 1401.35   18.79
   3  -2   2 1370.90   17.87
   3  -2  -2 1358.42   18.72
  -3   2   2 1374.69   17.55
  -3   2  -2 1387.23   17.96
  -3   2   2 1397.30   18.62
   3   2  -2 1376.36   18.49
   3   2  -2 1358.58   18.15
  -3   2   2 1371.14   18.56
   3   3  -2   84.47    3.08
  -3  -3  -2   86.26    3.13
   3  -3   2   77.52    2.71
  -3  -3  -2   84.35    2.29
   3  -3   2   77.18    2.47
  -3   3   2   86.03    3.27
  -3   3   2   84.02    3.16
   3   3   2   79.97    2.43
   3   3  -2   81.23    2.94
  -3   3  -2   83.06    2.88
   3   3   2   77.24    2.91
   3  -3  -2   89.01    3.24
  -3  -3   2   72.71    2.83
  -3  -3  -2   83.11    2.56
   3   3   2   80.20    2.43
   3  -3  -2   84.54    3.15
  -3  -3   2   78.72    3.00
   3   3  -2   84.73    2.97
   3  -3   2   79.03    2.74
  -3   3   2   78.51    3.05
   3  -3  -2   91.33    3.35
   3  -3   2   78.31    2.49
  -3  -3  -2   84.46    2.57
  -3  -3   2   78.70    2.93
  -3   3   2   77.03    2.71
   3  -3   2   78.89    2.19
   3   3   2   77.19    2.91
   3  -3   2   79.47    1.61
   3   3  -2   82.84    3.12
  -3  -3   2   73.29    2.98
   3   3  -2   82.84    3.04
  -3  -4  -2  695.19   10.97
   3  -4  -2  701.80   11.39
  -3  -4  -2  691.16    9.57
  -3  -4   2  692.45   11.02
   3   4   2  689.99    9.87
   3  -4   2  680.85   10.08
   3   4  -2  716.20   11.01
  -3   4   2  695.46   11.27
   3  -4   2  682.56    9.48
   3   4   2  683.67   10.92
  -3  -4   2  684.79   10.98
   3  -4  -2  688.94   11.29
   3   4   2  682.60   10.96
  -3   4   2  713.42   11.83
   3   4   2  686.51    9.86
  -3   4   2  677.18   11.21
   3   4  -2  698.88   10.92
   3  -4  -2  686.15   10.84
   3   4  -2  712.05   11.26
  -3   4   2  692.11   10.72
   3   4  -2  688.25   11.09
   3  -4  -2  723.42   11.82
   3  -4   2  686.75   10.38
  -3  -4   2  701.11   11.24
   3  -4   2  678.95   10.07
  -3  -4   2  687.95   11.28
   3   4   2  659.98    8.03
  -3  -4  -2  710.56   10.17
  -3  -4  -2  700.11   10.13
   3  -4   2  692.66    8.41
   3  -4  -2  702.87   10.92
   3  -4   2  690.31   10.37
  -3   4  -2  688.91   10.46
   3  -5  -2   12.95    1.31
  -3  -5  -2   12.10    1.03
  -3  -5   2    9.08    1.16
  -3  -5  -2   12.50    0.99
  -3   5   2    8.48    1.18
   3  -5   2    9.78    0.97
   3   5  -2   12.65    1.25
   3  -5  -2   11.73    1.19
  -3   5   2    9.34    1.03
   3  -5   2   10.58    0.85
   3   5   2    8.68    0.82
   3  -5   2    8.59    0.91
   3   5   2    8.78    1.06
  -3  -5   2    9.66    1.11
   3   5   2   10.44    0.92
  -3   5   2    8.97    1.16
   3   5  -2   12.42    1.24
  -3  -5   2    8.58    1.05
   3  -5   2    7.92    0.87
  -3  -5   2    9.24    1.17
   3   5   2    8.38    1.03
  -3  -5  -2   13.48    1.11
   3   5  -2   14.42    1.34
   3  -5  -2   11.44    1.17
   3   5  -2   14.53    1.33
  -3   5   2   10.04    1.38
   3   5   2    9.99    0.69
  -3  -5  -2   13.19    1.26
   3  -5  -2   14.59    1.47
   3  -5   2    9.46    0.98
   3  -5  -2   13.68    1.36
   3  -5   2    9.99    0.62
  -3   5  -2   16.26    1.28
   3  -6  -2 1046.94   15.35
  -3   6  -2  996.02   13.97
   3  -6   2 1058.45   12.56
  -3  -6  -2 1036.64   15.09
   3   6   2 1034.49   14.02
  -3   6  -2 1028.00   14.30
  -3   6  -2 1027.51   14.28
   3  -6  -2 1012.72   14.83
  -3   6   2 1038.60   15.37
   3   6   2 1025.38   13.12
  -3  -6   2 1010.47   12.77
  -3  -6  -2 1033.80   14.13
  -3  -6   2 1010.87   14.99
  -3  -6   2 1033.17   15.31
   3  -6  -2 1025.55   15.40
   3  -6   2 1008.51   14.21
   3   6   2 1015.04   14.75
  -3  -6  -2 1023.36   14.08
   3   6   2 1042.98   14.04
   3   6  -2 1024.80   14.92
   3   6  -2 1044.85   15.01
   3  -6   2  980.29   13.56
  -3  -6  -2 1014.91   13.77
  -3  -6   2 1022.71   15.03
   3  -6  -2 1016.56   14.86
   3  -6   2 1018.23   13.86
  -3   6   2 1014.11   16.05
   3   6   2 1027.58   14.79
   3  -6  -2 1009.81   16.05
   3  -6   2 1021.77   13.85
   3  -6   2 1022.34   14.24
  -3  -6   2 1022.42   15.41
  -3   6   2 1024.90   14.94
   3  -7  -2   19.39    1.64
   3  -7   2   19.75    1.06
   3  -7  -2   21.04    1.87
   3   7  -2   22.30    1.70
  -3   7  -2   21.30    1.40
  -3  -7   2   20.23    1.62
  -3   7  -2   20.80    1.51
   3  -7  -2   19.56    1.68
   3  -7   2   20.83    1.47
   3   7   2   20.66    1.32
   3  -7  -2   21.13    1.66
   3   7   2   19.98    1.40
  -3  -7   2   19.15    1.60
   3   7  -2   19.89    1.63
  -3  -7   2   22.07    1.68
  -3  -7  -2   20.39    1.44
  -3   7  -2   20.12    1.47
   3  -7   2   21.99    1.50
   3  -7   2   22.34    1.40
   3  -7  -2   20.41    1.62
  -3   7   2   20.16    1.92
  -3   7   2   20.54    1.64
   3  -7   2   20.41    1.32
   3   7   2   18.51    1.51
   3   7   2   19.24    1.51
  -3  -7  -2   20.28    1.43
   3  -7  -2   18.18    1.51
  -3  -7   2   19.45    1.68
  -3  -7  -2   20.62    1.64
   3   7   2   21.58    1.46
  -3  -7   2   20.46    1.07
   3  -8  -2  840.58   13.58
   3  -8   2  827.78   11.14
  -3   8  -2  850.94   11.90
   3   8   2  831.79   12.77
  -3   8  -2  846.91   12.76
   3  -8  -2  825.54   13.09
   3   8  -2  844.73   13.34
  -3  -8  -2  837.82   12.55
  -3  -8   2  800.02   13.35
   3  -8   2  817.46   12.67
  -3  -8   2  807.04   13.17
   3   8   2  815.61   12.69
   3   8   2  832.74   12.41
   3   8  -2  828.45   13.27
  -3   8  -2  859.79   12.81
   3  -8  -2  839.60   13.72
  -3  -8  -2  844.69   12.57
  -3  -8   2  815.36   13.21
  -3  -8  -2  840.99   13.34
   3  -8  -2  830.65   13.37
   3  -8   2  821.77   11.51
   3  -8   2  822.36   12.22
  -3   8   2  826.11   13.37
   3  -8  -2  821.78   13.07
  -3   8   2  831.18   14.39
   3  -8   2  819.97   12.69
   3  -8  -2  849.15   14.46
  -3  -8   2  814.69   13.65
   3   8   2  810.31   12.21
  -3  -8   2  813.13   10.84
   3   8   2  830.04   12.39
   3   9  -2   20.28    1.73
   3  -9  -2   19.91    1.74
  -3   9  -2   19.60    1.60
  -3  -9  -2   19.17    1.69
  -3  -9  -2   19.78    1.54
   3  -9  -2   18.28    1.61
  -3  -9   2   18.42    1.66
   3   9   2   18.43    1.54
   3  -9   2   22.58    1.70
   3   9   2   21.00    1.54
   3   9  -2   18.34    1.67
  -3   9   2   19.74    1.74
  -3  -9  -2   20.80    1.58
  -3  -9   2   19.52    1.69
  -3  -9   2   19.68    1.76
   3  -9   2   19.87    1.25
  -3   9  -2   19.59    1.61
   3  -9  -2   20.51    1.79
   3   9   2   17.95    1.45
   3  -9  -2   20.46    1.75
   3   9   2   19.75    1.57
  -3   9  -2   16.84    1.49
   3  -9  -2   18.88    1.62
  -3   9   2   20.25    2.00
   3  -9   2   20.11    1.57
  -3  -9   2   18.49    1.10
  -3  -9   2   19.86    1.83
   3 -10  -2  104.27    4.13
  -3 -10   2  110.22    4.19
   3 -10  -2  108.63    4.24
   3  10   2  105.81    3.68
  -3  10   2  109.90    4.09
  -3  10  -2  105.82    3.84
  -3 -10  -2  106.29    3.74
   3  10   2  101.50    3.60
  -3 -10   2  106.77    4.08
   3 -10  -2  110.18    4.04
   3 -10   2  106.36    3.83
  -3  10   2  107.65    4.05
   3  10   2  105.72    3.67
   3  10  -2  103.56    4.01
  -3 -10  -2  103.65    3.70
  -3 -10   2  102.22    4.01
  -3  10  -2  101.73    3.68
   3 -10  -2  107.31    4.16
  -3 -10   2  106.71    2.90
  -3  10  -2  100.06    3.74
  -3  10   2  109.15    4.63
  -3  10   2  108.01    4.13
   3 -10  -2  105.09    3.96
   3 -10   2  103.94    3.79
   3  10  -2  109.44    4.11
  -3 -10  -2  103.32    3.97
   3  10   2  108.41    3.71
   3 -11  -2   13.12    1.50
   3 -11  -2   12.97    1.53
   3  11   2   15.34    1.45
  -3  11   2   15.22    1.63
  -3  11  -2   12.38    1.40
  -3  11  -2   14.11    1.51
  -3  11   2   16.21    1.70
  -3 -11  -2   12.15    1.32
   3 -11  -2   14.12    1.57
   3  11   2   16.29    1.53
  -3 -11   2   15.84    1.61
   3 -11  -2   13.96    1.59
  -3 -11   2   16.67    1.68
   3  11  -2   12.26    1.49
   3 -11   2   15.00    1.52
   3 -11   2   14.32    1.47
  -3 -11   2   16.78    1.76
  -3  11   2   14.81    1.58
   3 -11  -2   12.20    1.53
   3  11   2   15.52    1.45
  -3 -11  -2   12.31    1.45
  -3  11  -2   12.39    1.41
  -3 -11   2   15.96    1.12
   3  11   2   16.84    1.54
  -3  11   2   13.58    1.77
   3  11  -2   14.57    1.60
  -3 -11  -2   13.48    1.39
  -3  12  -2  890.54   14.28
   3  12   2  891.84   13.82
  -3  12   2  914.43   15.27
  -3 -12  -2  895.84   14.62
  -3  12  -2  908.82   14.85
   3 -12  -2  897.67   15.39
   3 -12  -2  886.52   15.07
   3  12   2  908.15   14.59
   3  12  -2  908.33   15.27
  -3 -12   2  887.96   12.66
  -3 -12   2  922.56   15.42
  -3 -12   2  924.90   15.58
  -3  12   2  905.70   16.47
   3 -12  -2  891.82   15.52
  -3 -12  -2  884.23   14.57
  -3 -12   2  892.78   15.26
   3 -12  -2  900.18   15.38
  -3  12   2  922.23   15.30
   3 -12   2  890.06   14.76
   3 -12  -2  893.10   15.09
  -3  12  -2  888.21   14.74
   3  12   2  888.20   13.80
  -3 -12  -2  898.04   15.17
   3  12   2  902.73   14.58
  -3  12   2  907.97   15.45
   3 -12   2  895.08   14.79
   3  12  -2  912.08   15.29
   3 -13  -2   34.56    2.59
  -3 -13   2   32.06    2.54
  -3  13   2   31.87    2.43
  -3 -13  -2   35.72    2.44
   3 -13  -2   34.39    1.42
  -3  13   2   33.26    2.48
  -3  13  -2   34.72    2.47
  -3 -13   2   31.30    2.44
   3 -13  -2   33.34    2.51
   3 -13   2   32.71    2.38
   3  13   2   30.36    2.27
   3 -13  -2   36.42    2.63
   3 -13  -2   37.20    2.61
   3  13  -2   38.33    2.65
   3  13  -2   36.49    2.59
  -3 -13  -2   37.10    2.47
  -3 -13   2   32.05    2.48
   3  13   2   34.34    2.10
  -3  13  -2   34.88    2.48
  -3  13  -2   34.87    2.25
  -3 -13   2   30.83    1.73
  -3  13   2   32.58    2.76
  -3 -13  -2   35.25    2.51
   3 -13   2   29.90    2.29
   3  13   2   31.91    2.32
  -3  13   2   35.67    2.63
   3  13   2   31.41    1.99
   3 -14   2    6.37    1.19
   3  14  -2    6.91    1.35
   3 -14  -2    8.65    1.47
   3 -14  -2    7.66    1.33
  -3  14   2    8.77    1.48
  -3  14  -2    7.54    1.32
  -3  14  -2    6.09    1.06
   3  14   2    7.48    1.04
  -3 -14  -2    4.89    1.07
  -3  14   2    9.93    1.49
  -3 -14   2    7.44    1.36
   3 -14  -2    8.02    1.40
  -3 -14  -2    4.30    1.01
   3  14   2    8.12    1.30
   3 -14   2    7.92    1.25
   3  14  -2    6.10    1.29
   3  14   2    6.15    1.20
  -3 -14   2    7.31    1.37
  -3 -14   2    7.54    0.94
  -3 -14   2    8.53    1.51
  -3  14   2   10.59    1.62
   3 -14  -2    6.77    0.64
  -3  14  -2    4.73    1.06
   3 -14  -2    5.68    0.60
  -3  14   2    5.12    1.54
   3  14   2    7.00    1.03
   3  14   2    7.04    1.19
   3 -14  -2    7.91    1.42
  -3 -14  -2    4.73    1.07
   3 -15  -2   28.56    2.46
  -3 -15  -2   30.73    2.45
   3  15   2   27.16    2.38
  -3 -15  -2   26.64    2.26
  -3  15   2   25.06    2.33
  -3  15  -2   27.01    2.29
  -3 -15   2   24.46    2.38
   3 -15  -2   27.94    1.01
   3 -15  -2   28.97    2.46
   3  15   2   23.07    2.09
   3 -15   2   23.25    2.16
   3  15  -2   28.33    2.49
  -3  15   2   24.09    2.23
  -3 -15   2   24.15    1.68
  -3 -15  -2   26.43    2.27
  -3 -15   2   23.74    2.31
   3  15   2   22.12    2.03
   3 -15  -2   26.14    2.34
  -3 -15   2   26.86    2.43
   3  15   2   25.48    1.81
  -3  15   2   22.56    2.46
   3 -15  -2   30.18    2.58
   3 -15   2   25.11    2.26
   3  15   2   23.36    1.74
  -3  15  -2   27.73    2.12
  -3  15   2   23.07    2.30
   3 -15  -2   27.25    0.99
   3  15  -2   26.54    2.39
  -3  15  -2   26.88    2.29
   3  16   2  596.10   12.53
  -3 -16  -2  590.40   12.28
  -3  16  -2  587.52   12.46
   3  16   2  596.26   12.30
   3 -16   2  578.97   12.41
   3  16  -2  587.36   12.73
  -3  16   2  581.83   12.59
  -3 -16   2  596.24   10.39
   3  16  -2  591.30   12.74
  -3  16   2  602.55   12.75
  -3 -16   2  585.68   12.85
   3  16   2  568.69   10.25
  -3  16   2  592.28   13.80
  -3  16  -2  584.45   11.58
   3  16   2  594.24   10.36
  -3 -16  -2  595.54   12.32
  -3  16   2  586.89   12.79
   3  16   2  572.37   12.10
  -3  16  -2  579.66   12.38
   3 -16   2  574.82   12.38
   3  17  -2   10.26    1.68
  -3  17  -2   10.96    1.66
   3  17  -2   10.18    1.61
  -3 -17   2   10.43    1.20
  -3  17   2   10.58    1.68
  -3  17  -2   11.34    1.53
   3  17   2    9.49    1.59
  -3  17   2    9.93    1.70
   3  17   2   10.86    1.25
  -3 -17   2   14.91    2.02
   3  17   2   10.41    1.63
   3  17   2   10.64    1.65
  -3  17   2   11.05    1.69
  -3  17  -2   11.77    1.77
  -3  17   2   10.57    2.00
   3  17   2    9.81    1.76
  -3  18   2  115.59    5.40
  -3  18  -2  114.34    5.31
   3  18   2  111.21    5.17
  -3  18   2  109.00    5.83
   3  18   2  110.48    5.11
   3  18  -2  107.88    5.32
  -3  18   2  110.57    5.29
   3  18   2  109.16    3.75
   3  18   2  106.82    5.02
  -3 -18   2  109.30    4.13
   3  18   2  114.09    5.72
  -3  18  -2  110.26    5.23
   3  18  -2  109.12    5.34
  -3 -18   2  113.43    5.42
  -3  18  -2  110.20    4.69
  -3  18   2  109.69    5.32
   3  19   2    0.41    0.85
  -3  19  -2    0.16    0.63
   3  19   2    1.07    1.00
  -3 -19   2   -0.56    0.90
  -3  19   2    1.45    1.06
   3  19   2    0.07    0.80
   3  19   2    1.33    1.30
  -3  20  -2  165.96    6.13
  -3 -20   2  171.57    7.20
  -3  20   2  165.72    7.67
   3  20   2  169.99    7.61
  -3  21  -2    2.31    1.02
  -3 -21   2    2.80    1.30
  -3  21   2    1.01    1.37
   3  21   2    0.98    1.31
   3  22   2  244.16    9.90
   3  23   2    3.40    1.70
   4   0   2 1150.66   16.77
   4   0  -2 1164.50   16.92
   4   0   2 1155.73   15.65
  -4   0   2 1155.74   16.95
   4   0  -2 1151.68   16.68
   4   0  -2 1172.38   16.76
   4   0   2 1142.72   15.62
   4   0   2 1157.89   16.82
   4   0   2 1141.81   14.57
  -4   0  -2 1164.68   14.72
  -4   0   2 1143.33   16.63
   4   0  -2 1163.67   16.82
   4   0  -2 1160.49   16.95
  -4   0  -2 1155.90   14.44
  -4   0   2 1129.26   16.89
   4  -1  -2   21.01    1.64
  -4   1   2   14.57    1.45
  -4  -1   2   14.23    1.40
   4   1   2   16.58    1.29
   4   1  -2   19.01    1.60
  -4  -1   2   16.56    1.57
  -4   1   2   16.47    1.51
   4  -1  -2   19.31    1.58
   4  -1   2   15.97    1.28
   4  -1   2   16.52    1.50
   4   1   2   20.43    1.71
   4   1  -2   19.31    1.61
  -4  -1  -2   21.15    1.21
   4  -1   2   16.16    1.27
  -4  -1  -2   20.65    1.20
   4   1   2   16.11    1.04
   4   1  -2   18.65    1.60
  -4   1  -2   22.36    1.25
   4   1  -2   18.17    1.54
   4  -1  -2   21.17    1.72
   4   1   2   18.79    1.63
  -4   1  -2   20.11    0.87
   4   1   2   13.37    1.16
   4  -1   2   19.13    1.61
   4   1  -2   20.48    1.64
   4  -1   2   16.96    1.06
   4  -1  -2   18.43    1.56
   4  -1  -2   20.11    1.66
  -4   1  -2   22.07    1.10
  -4  -1   2   15.32    1.53
  -4   1   2   15.60    1.52
   4   2   2  104.98    2.85
   4  -2  -2  104.48    3.86
  -4   2   2  112.95    4.01
  -4   2   2  108.85    3.90
  -4  -2  -2  103.07    2.93
   4   2   2  103.32    3.27
   4   2  -2  108.77    3.82
   4   2  -2  106.19    3.85
   4  -2   2  111.39    3.79
  -4  -2   2  107.79    3.70
  -4  -2   2  107.68    3.88
   4  -2  -2  109.94    3.84
  -4  -2   2  117.80    3.90
  -4   2  -2  105.71    2.88
  -4  -2  -2  112.28    3.41
   4   2   2  109.78    3.95
   4   2  -2  103.62    3.74
   4  -2   2  110.53    2.89
   4   2   2  110.31    3.93
  -4  -2  -2  104.59    3.30
  -4   2   2  110.11    3.57
   4  -2   2  103.61    3.35
   4  -2  -2  100.85    3.69
  -4   2  -2  106.80    2.50
   4  -2   2  106.76    3.40
   4   2   2  106.75    3.31
   4  -2  -2  111.44    4.02
   4   2  -2  107.71    3.72
  -4   2  -2  105.78    2.51
   4  -2   2  106.83    3.70
  -4  -2  -2  113.39    3.00
  -4  -2   2  110.55    3.80
   4   2  -2  106.81    3.88
   4  -2  -2  107.96    3.89
  -4  -2   2  109.28    3.93
  -4   2   2  110.45    3.91
  -4   3   2   31.76    2.10
   4  -3   2   30.88    1.52
   4  -3   2   28.07    1.70
   4   3   2   29.30    1.67
   4   3   2   31.45    2.11
   4  -3   2   31.55    1.98
  -4  -3  -2   24.68    1.62
   4   3   2   33.09    2.16
   4  -3  -2   23.38    1.85
  -4  -3   2   26.99    1.90
   4  -3  -2   24.40    1.87
   4   3  -2   23.97    1.80
   4   3   2   30.63    1.71
   4   3  -2   23.85    1.82
  -4  -3   2   29.22    2.02
  -4  -3  -2   23.27    1.36
   4  -3  -2   25.14    1.95
  -4   3   2   29.88    2.05
  -4   3   2   30.80    1.86
  -4  -3   2   30.50    2.01
   4   3  -2   23.77    1.83
   4   3  -2   23.64    1.74
   4  -3   2   30.71    1.78
  -4   3   2   29.95    2.10
   4  -3   2   27.21    1.83
   4   3  -2   24.24    1.82
  -4   3  -2   23.28    1.08
   4  -3  -2   24.72    1.86
  -4   3  -2   24.11    1.34
  -4  -3  -2   25.79    1.64
   4  -3   2   30.29    1.22
  -4  -3   2   29.76    2.05
  -4   4   2 1052.19   16.03
   4   4  -2 1051.44   15.76
  -4   4   2 1046.00   16.27
  -4  -4   2 1044.32   15.98
   4  -4  -2 1039.11   16.30
   4  -4  -2 1043.58   16.11
   4  -4  -2 1050.93   15.93
   4  -4   2 1047.96   15.22
  -4  -4   2 1045.11   15.76
  -4  -4  -2 1030.91   14.77
   4  -4   2 1058.72   15.25
  -4  -4  -2 1022.19   14.75
   4   4  -2 1054.24   15.77
  -4  -4   2 1056.34   16.11
   4   4   2 1060.46   16.05
   4   4   2 1050.42   16.02
  -4  -4   2 1046.68   15.76
  -4   4   2 1066.09   16.21
   4   4   2 1072.71   14.74
   4  -4   2 1056.12   12.93
  -4   4   2 1058.89   15.42
  -4  -4  -2 1049.15   14.13
   4  -4   2 1045.34   14.86
   4   4  -2 1057.14   15.99
   4   4  -2 1018.04   15.39
   4   4   2 1067.58   14.72
   4  -4   2 1023.97   14.05
   4  -4   2 1035.02   14.84
  -4   5   2   20.07    1.73
  -4  -5  -2   20.56    1.70
   4   5  -2   22.17    1.80
   4   5   2   21.43    1.48
   4  -5  -2   20.70    1.69
   4  -5   2   21.01    1.37
   4  -5   2   19.37    1.46
   4  -5   2   20.61    1.52
   4  -5   2   21.18    1.54
  -4  -5   2   21.15    1.75
  -4  -5  -2   23.04    1.63
  -4  -5   2   21.57    1.74
   4   5   2   20.94    1.47
   4   5  -2   21.53    1.75
   4   5   2   21.19    1.80
  -4  -5   2   20.16    1.72
   4  -5  -2   21.96    1.72
  -4  -5   2   21.43    1.73
   4   5  -2   20.11    1.69
   4  -5   2   21.17    1.10
   4  -5  -2   22.61    1.83
  -4   5   2   20.55    1.65
   4   5   2    1.53    0.23
   4   5   2   25.47    1.96
   4  -5  -2   25.43    2.06
   4   5  -2   22.84    1.74
  -4  -5  -2   24.59    1.51
   4  -5   2   21.20    1.54
  -4   5   2   21.19    1.89
  -4  -5  -2   22.87    1.60
   4   5   2   18.97    0.67
   4  -5  -2   21.25    1.78
  -4   5   2   20.42    1.77
  -4   6   2  560.03   10.66
  -4  -6  -2  615.61   10.80
   4  -6   2  565.34    9.60
   4   6   2  557.57    9.61
   4  -6  -2  585.86   10.64
   4  -6   2  566.46    9.89
   4  -6  -2  588.31   11.03
  -4   6   2  549.33   10.35
  -4  -6  -2  577.93    9.88
   4  -6   2  562.74    9.26
  -4  -6   2  574.52   10.59
   4  -6   2  557.25    9.82
  -4  -6  -2  575.53    9.42
   4   6   2  568.07    9.67
   4   6  -2  604.47   10.80
  -4  -6   2  575.87   10.72
  -4  -6  -2  579.97    9.89
   4   6  -2  596.00   10.87
   4   6   2  564.37   10.61
  -4  -6   2  572.49   10.56
  -4   6   2  566.35   10.78
   4   6   2  562.68   10.63
   4   6  -2  590.75   10.52
   4  -6  -2  575.61   10.57
   4   6  -2  589.32   10.71
  -4   6   2  579.54   11.23
   4  -6  -2  608.50   11.62
   4   6   2  569.06    7.83
   4  -6   2  566.36    9.62
  -4  -6   2  564.00   10.86
   4  -6   2  573.64    8.28
   4  -6  -2  593.52   10.84
  -4  -7  -2   35.76    2.29
   4   7  -2   32.48    2.19
   4  -7   2   38.52    2.18
  -4  -7   2   35.52    1.69
   4  -7  -2   35.36    2.25
   4  -7  -2   32.74    2.16
   4  -7   2   36.12    2.09
   4  -7   2   35.24    1.93
  -4  -7  -2   34.97    1.96
  -4  -7  -2   32.06    1.96
  -4  -7   2   32.61    2.22
   4   7   2   34.89    2.03
   4   7   2   34.75    2.02
   4   7  -2   37.52    2.35
  -4  -7   2   33.65    2.25
   4  -7  -2   35.48    2.40
   4  -7   2   34.78    1.93
  -4  -7   2   35.33    2.36
   4   7  -2   34.95    2.19
  -4   7   2   37.44    2.63
  -4   7   2   35.01    2.28
   4   7   2   36.96    2.38
   4  -7  -2   40.52    2.72
  -4  -7  -2   34.72    2.04
   4   7   2   36.31    2.34
  -4  -7   2   34.12    2.38
   4  -7   2   34.22    1.91
   4  -7   2   36.26    1.57
   4  -7  -2   34.79    2.32
  -4  -8  -2  505.22   10.03
   4   8   2  512.41    9.32
   4  -8  -2  509.53   10.36
   4  -8   2  496.65    9.48
   4  -8   2  503.94    9.53
  -4  -8  -2  518.18    9.48
  -4  -8   2  511.07   10.13
   4  -8  -2  515.83   10.99
   4   8   2  507.63    9.30
  -4   8   2  516.10   10.87
   4   8  -2  510.87   10.13
   4  -8  -2  500.74    9.97
   4   8   2  492.24    9.86
  -4  -8   2  518.84    8.19
   4  -8   2  502.05    9.01
   4  -8   2  512.20    8.70
  -4  -8  -2  500.73    9.37
   4  -8   2  497.67    7.99
  -4   8   2  500.16   10.07
  -4  -8  -2  510.94    9.14
   4   8  -2  506.44   10.09
   4   8   2  506.16    9.93
  -4  -8   2  499.62   10.15
  -4  -8   2  522.43   10.46
   4  -8   2  505.54    8.66
  -4  -8   2  494.10   10.03
   4  -8  -2  500.07    9.97
   4  -8  -2  523.57   10.28
  -4  -9   2    2.61    0.98
   4  -9  -2    4.33    1.06
   4  -9   2    2.47    0.55
  -4  -9  -2    3.05    0.83
  -4   9  -2    2.45    0.88
   4   9   2    3.13    0.78
   4   9   2    2.96    0.96
   4   9  -2    2.31    0.81
  -4   9   2    3.14    0.94
   4  -9  -2    1.59    0.66
   4  -9   2    3.11    0.76
   4   9   2    2.56    0.96
  -4  -9   2    2.35    0.55
  -4  -9  -2    3.24    0.88
  -4  -9   2    2.29    0.85
   4   9   2    3.05    0.80
   4   9  -2    1.33    0.65
   4  -9   2    3.35    0.71
   4  -9  -2    1.70    0.70
  -4  -9  -2    2.74    0.88
  -4  -9   2    3.50    1.02
   4  -9   2    1.88    0.52
  -4   9  -2    2.94    0.87
   4  -9  -2    2.10    0.77
   4  -9   2    2.25    0.65
  -4  -9   2    3.11    1.04
  -4  -9  -2    2.33    0.72
  -4   9   2    2.31    1.15
   4  -9   2    2.74    0.80
   4 -10  -2  843.98   14.76
   4 -10   2  843.89   12.41
  -4  10   2  881.66   15.75
  -4 -10   2  830.11   14.61
  -4  10  -2  862.23   14.23
   4 -10   2  854.27   14.26
  -4  10  -2  852.19   14.16
  -4 -10  -2  858.85   14.02
  -4 -10   2  846.62   14.84
  -4 -10   2  877.44   14.89
   4  10  -2  855.72   14.70
   4  10   2  847.09   13.82
   4  10   2  850.77   14.19
   4 -10   2  867.72   12.34
  -4 -10  -2  837.98   13.89
   4 -10  -2  850.07   15.03
  -4  10  -2  840.78   14.16
  -4 -10  -2  853.71   13.72
  -4 -10   2  869.73   15.16
  -4  10   2  836.53   14.71
   4 -10  -2  846.42   14.62
   4 -10  -2  839.16   14.62
   4 -10   2  853.21   14.26
   4  10   2  844.30   14.15
   4  10  -2  869.26   14.76
   4  10   2  848.96   13.83
  -4 -10   2  868.59   12.26
  -4 -10  -2  880.63   14.76
   4 -10   2  859.62   13.63
   4 -11   2   22.96    1.56
   4  11  -2   19.64    1.95
   4 -11  -2   21.01    1.99
   4 -11   2   21.89    1.38
  -4  11  -2   20.22    1.85
  -4 -11   2   19.18    1.36
  -4  11  -2   19.55    1.88
  -4 -11  -2   21.51    1.87
   4 -11  -2   20.03    1.95
   4 -11   2   21.26    1.96
  -4 -11   2   20.17    1.96
   4  11   2   21.02    1.91
   4  11  -2   21.36    2.02
  -4 -11  -2   19.00    1.73
  -4 -11   2   21.88    2.02
  -4 -11  -2   20.38    1.79
   4  11   2   19.82    1.73
  -4 -11  -2   20.15    1.94
   4 -11   2   19.12    1.68
  -4  11   2   24.18    2.38
  -4  11   2   20.37    2.02
   4 -11  -2   20.47    1.98
   4  11   2   18.97    1.79
  -4 -11   2   21.31    2.11
  -4 -11   2   20.12    2.10
   4 -11   2   18.86    1.85
   4  11   2   19.53    1.73
  -4  11  -2   19.94    1.81
   4 -12   2   11.82    1.21
   4 -12  -2   11.50    1.55
   4  12  -2   11.05    1.59
  -4  12  -2   10.70    1.44
  -4  12  -2    8.16    1.32
  -4 -12   2   10.76    1.52
  -4  12   2   11.30    1.61
   4 -12  -2    9.87    1.49
   4 -12   2   11.34    1.50
  -4 -12  -2   10.69    1.38
  -4  12  -2    7.75    1.33
  -4 -12   2    9.93    1.02
   4  12   2   10.40    1.33
  -4 -12   2   11.31    1.56
   4  12   2   11.57    1.41
  -4 -12  -2    9.44    1.37
   4  12  -2    9.84    1.48
   4  12   2   10.66    1.37
   4 -12   2   12.06    1.45
  -4 -12  -2    9.71    1.36
  -4 -12   2   10.65    1.59
  -4 -12   2   10.98    1.67
  -4  12   2   13.14    1.90
   4 -12  -2    9.65    1.47
   4  12   2   10.22    1.41
   4 -12   2   12.24    1.56
   4 -13   2   13.49    1.32
   4 -13  -2   16.81    1.91
   4  13  -2   13.30    1.75
  -4  13  -2   18.32    1.93
  -4  13  -2   19.48    1.89
  -4 -13  -2   18.86    1.92
   4  13   2   15.36    1.75
   4 -13  -2   17.14    1.95
  -4 -13   2   13.72    1.78
  -4  13   2   11.66    1.64
   4 -13   2   13.91    1.61
   4 -13   2   11.84    1.60
  -4 -13   2   15.53    1.92
   4  13   2   15.01    1.70
   4  13  -2   16.05    1.88
  -4 -13   2   15.82    1.89
  -4 -13  -2   18.15    1.94
  -4 -13  -2   18.11    1.92
   4  13   2   13.82    1.66
  -4  13  -2   14.56    1.73
  -4 -13   2   13.40    1.24
  -4  13   2   15.95    2.15
   4 -13  -2   13.70    1.71
   4  13   2   18.23    1.87
   4 -13   2   13.75    1.70
   4 -14  -2  806.98   15.41
   4 -14   2  803.38   13.24
  -4  14  -2  819.98   14.59
  -4  14   2  830.20   15.45
  -4  14   2  821.53   15.56
   4 -14  -2  798.20   15.25
   4  14  -2  823.29   15.40
  -4  14   2  822.59   16.44
  -4  14  -2  814.62   14.99
   4  14   2  811.69   13.82
  -4 -14  -2  806.87   14.80
  -4 -14   2  792.19   15.35
   4 -14  -2  796.83   15.25
   4 -14   2  792.36   14.93
  -4 -14   2  819.21   15.61
   4  14   2  819.74   14.70
  -4 -14  -2  825.41   15.24
   4  14  -2  819.59   15.37
   4  14   2  817.66   14.68
  -4 -14  -2  799.49   14.75
  -4 -14   2  794.42   15.38
  -4  14   2  825.96   15.39
  -4  14  -2  832.01   15.08
   4 -14   2  793.02   14.92
   4  14   2  802.13   13.81
  -4 -14   2  825.72   12.72
   4  15   2   10.33    1.54
  -4 -15  -2    8.49    1.39
   4  15   2    9.08    1.25
   4 -15   2    9.28    1.25
  -4  15   2    8.48    1.48
   4  15   2    9.23    1.34
  -4  15  -2    9.78    1.48
  -4  15   2    9.95    1.61
  -4 -15   2    9.49    1.14
  -4 -15  -2    8.44    1.45
   4 -15   2    7.52    1.37
  -4 -15  -2    7.85    1.51
   4  15   2    9.46    1.53
   4  15  -2    9.02    1.55
  -4  15   2    9.37    1.86
   4 -15  -2    8.30    0.68
  -4 -15   2   11.18    1.75
  -4  15  -2    7.43    1.37
   4  15  -2    8.22    1.46
  -4  15  -2   10.34    1.59
  -4  15   2    8.48    1.46
   4 -15   2    7.64    1.36
   4 -16   2   47.34    2.75
  -4  16   2   49.82    3.43
  -4  16  -2   38.81    2.93
  -4 -16  -2   40.28    2.93
   4  16   2   43.64    3.07
   4  16  -2   40.48    3.01
  -4  16  -2   42.18    3.08
   4  16   2   45.96    2.68
  -4 -16  -2   41.16    2.98
  -4  16   2   43.25    3.25
  -4  16   2   47.80    3.40
   4 -16  -2   18.29    0.80
  -4  16  -2   36.83    2.74
  -4 -16   2   48.17    2.54
  -4  16   2   47.67    3.70
  -4 -16   2   46.34    3.38
   4  16   2   46.00    3.16
   4  16  -2   41.87    3.15
   4 -16  -2   17.38    0.78
   4  16   2   47.27    2.70
   4  17  -2    1.03    0.88
   4 -17   2    2.33    0.75
  -4  17   2    1.90    1.01
  -4  17  -2    2.57    1.05
  -4  17  -2    4.32    1.16
  -4 -17   2    1.61    0.46
  -4  17   2    4.17    1.28
   4  17   2    3.04    1.14
   4  17  -2    3.34    1.08
   4  17   2    3.53    1.16
  -4 -17   2    2.67    1.28
  -4  17   2    2.41    1.05
   4  17   2    2.36    0.81
  -4  17   2    4.07    1.42
  -4  17  -2    1.99    0.95
   4  17   2    3.21    0.83
  -4 -18   2  269.76    8.94
  -4  18  -2  268.46    8.57
   4 -18   2  255.60    7.36
   4  18   2  264.40    8.30
  -4  18  -2  249.42    7.77
   4  18   2  264.85    8.33
  -4 -18   2  262.16    6.85
  -4  18  -2  261.23    8.47
  -4  18   2  266.72    9.46
   4  18   2  260.64    6.76
   4 -19   2    0.83    0.58
  -4  19  -2    1.42    0.88
  -4  19   2    3.56    1.46
  -4 -19   2    3.25    1.39
   4  19   2    1.82    1.07
  -4  20  -2  214.86    7.45
  -4 -20   2  202.76    8.20
  -4  20   2  211.48    8.81
   4  20   2  221.93    8.74
  -4  21  -2    9.25    1.72
   4  21   2    9.20    2.10
   4  22   2   57.51    4.70
   4  23   2    3.33    1.60
   5   0  -2    0.17    0.70
   5   0  -2   -0.59    0.66
  -5   0  -2    2.31    0.56
  -5   0   2   -0.08    0.62
   5   0   2    2.05    1.13
  -5   0  -2    0.43    0.18
   5   0   2    2.88    1.03
   5   0   2    0.46    0.52
   5   0  -2   -0.05    0.73
   5   0  -2    0.52    0.61
   5   0   2    0.20    0.53
   5   0   2   -0.01    0.40
  -5   0  -2    1.31    0.50
  -5   0   2    1.02    0.71
  -5   0   2   -0.58    0.84
   5   0  -2    0.74    0.58
  -5  -1   2   41.11    2.58
   5   1  -2   47.47    2.76
  -5   1   2   38.60    2.56
  -5   1  -2   44.48    2.10
  -5  -1   2   38.15    2.52
   5   1   2   38.74    2.21
   5   1  -2   46.68    2.70
  -5   1   2   38.77    2.43
   5  -1  -2   47.55    2.77
   5  -1   2   36.94    2.16
   5   1   2   38.14    1.89
   5  -1   2   39.93    1.93
  -5   1  -2   47.42    1.46
   5   1   2   37.22    2.16
   5  -1  -2   45.65    2.71
   5   1  -2   46.27    2.70
  -5  -1  -2   45.49    2.10
   5  -1  -2   41.93    2.63
   5  -1   2   42.19    2.73
   5  -1   2   39.35    2.23
  -5  -1   2   40.88    2.45
   5   1  -2   46.32    2.61
   5  -1  -2   49.82    2.78
   5  -1   2   44.08    2.71
   5   1   2   40.76    2.69
   5   1  -2   47.19    2.73
  -5  -1  -2   48.19    2.10
   5  -1  -2   49.90    2.82
  -5   1  -2   47.66    1.94
   5   1   2   36.73    2.59
  -5   1   2   38.94    2.51
   5   2   2 1081.90   15.88
   5   2   2 1110.25   14.96
   5  -2   2 1090.02   17.12
   5   2   2 1113.45   17.67
   5  -2  -2 1069.20   17.11
  -5  -2   2 1098.52   16.47
   5   2   2 1078.57   15.85
   5  -2  -2 1080.08   17.04
   5   2  -2 1121.03   17.07
  -5  -2   2 1092.58   17.03
  -5   2   2 1074.70   16.86
   5  -2  -2 1111.13   17.14
   5  -2   2 1097.89   16.07
  -5  -2  -2 1096.09   15.09
  -5  -2  -2 1072.01   14.95
  -5  -2   2 1088.86   16.99
   5   2  -2 1071.78   17.02
   5   2   2 1113.72   17.64
  -5  -2   2 1069.29   17.02
   5  -2   2 1088.98   16.04
   5  -2  -2 1118.86   17.18
   5  -2  -2 1113.08   17.14
   5   2  -2 1061.61   16.48
   5   2  -2 1081.81   17.14
  -5   2  -2 1097.86   13.66
  -5   2   2 1084.47   17.05
   5  -2   2 1089.70   14.91
   5  -2   2 1081.68   17.06
  -5   2  -2 1089.81   15.06
   5   2  -2 1090.69   16.95
  -5  -2   2 1081.60   17.18
  -5   2   2 1091.56   17.23
  -5   2  -2 1059.21   14.19
   5   3  -2    3.39    0.98
  -5  -3  -2    2.75    0.70
  -5  -3   2    3.98    1.11
   5  -3  -2    1.78    0.76
  -5   3   2    2.27    0.79
  -5   3  -2    2.59    0.53
  -5   3   2    4.21    0.92
  -5   3  -2    2.01    0.59
   5  -3   2    3.37    0.82
   5   3   2    5.26    1.33
  -5  -3   2    2.90    0.90
  -5  -3  -2    2.33    0.73
   5  -3   2    2.96    1.00
   5  -3   2    3.15    1.02
   5   3   2    4.34    1.37
   5   3   2    3.23    0.69
   5   3  -2    2.17    0.67
   5  -3   2    3.43    0.58
  -5   3   2    2.74    1.01
   5   3  -2    2.43    0.82
  -5  -3  -2    2.72    0.72
   5  -3  -2    3.10    0.90
   5  -3   2    2.37    0.71
   5   3   2    2.84    0.68
  -5  -3   2    3.28    0.86
   5   3  -2    3.43    0.94
   5  -3   2    2.68    0.67
   5  -3  -2    2.82    0.85
  -5  -3   2    3.41    0.89
   5  -3  -2    2.29    0.88
  -5  -3  -2    2.62    0.63
   5   3  -2    3.25    0.89
  -5   3   2    1.96    0.82
   5  -3  -2    2.88    0.89
  -5   3  -2    3.07    0.62
   5  -3   2    1.91    0.68
  -5   4   2  242.28    6.54
  -5   4  -2  225.54    4.55
   5   4  -2  226.35    6.43
   5  -4  -2  226.44    6.49
  -5  -4   2  237.50    6.46
  -5   4   2  227.23    6.13
   5   4   2  237.09    6.95
   5  -4   2  234.35    5.96
  -5   4   2  228.13    6.55
   5   4  -2  227.06    6.34
   5  -4  -2  235.67    6.65
  -5  -4   2  229.67    6.50
   5  -4   2  237.64    5.99
   5  -4   2  243.82    6.37
  -5  -4   2  241.26    6.49
  -5  -4  -2  227.84    5.89
   5   4   2  246.18    5.93
   5   4  -2  225.25    6.31
   5  -4  -2  219.66    6.31
   5   4   2  239.47    5.85
   5   4  -2  227.92    6.07
  -5  -4  -2  226.31    5.87
   5  -4   2  242.45    5.44
  -5   4   2  234.31    6.59
  -5  -4  -2  221.72    5.29
  -5   4  -2  233.01    4.92
   5  -4   2  244.09    6.34
  -5  -4  -2  230.21    5.47
   5   4   2  239.51    6.95
   5  -4   2  240.90    4.73
  -5  -4   2  239.06    6.65
   5  -4  -2  227.68    6.41
  -5  -5  -2   46.93    2.30
  -5   5   2   44.79    2.76
   5  -5  -2   52.61    3.13
  -5  -5   2   39.26    2.61
   5  -5  -2   44.51    2.69
   5  -5   2   42.66    2.46
   5   5  -2   49.46    2.67
   5   5   2   41.43    2.35
  -5  -5  -2   51.57    2.67
   5  -5   2   41.79    1.77
  -5  -5   2   42.41    2.63
   5   5  -2   49.07    2.87
   5  -5   2   46.57    2.63
  -5  -5   2   44.21    2.68
  -5  -5  -2   46.77    2.55
   5   5   2   40.51    2.32
  -5   5   2   44.21    2.62
   5   5  -2   50.10    2.89
  -5  -5   2   40.77    2.69
   5  -5   2   42.48    2.18
  -5   5   2   40.76    2.71
   5   5  -2   48.12    2.86
  -5   5   2   43.03    2.76
   5  -5  -2   50.12    2.83
   5   5   2   43.86    2.92
   5  -5   2   40.92    2.41
   5  -5  -2   53.72    3.02
   5  -5   2   39.98    2.44
  -5   5  -2   49.59    2.22
   5   5   2   44.99    2.89
   5  -5  -2   49.39    2.85
  -5   6   2  487.98   10.21
   5   6  -2  497.54    9.65
  -5  -6  -2  469.79    8.85
  -5  -6  -2  484.99   10.07
   5   6   2  483.90    9.25
   5  -6  -2  487.88   10.09
   5   6  -2  499.96   10.27
   5  -6   2  486.31    9.46
  -5   6   2  495.50   10.52
  -5  -6   2  477.34   10.07
  -5  -6  -2  477.36    9.41
  -5  -6   2  482.48   10.11
   5   6   2  483.91    9.25
   5   6  -2  484.15   10.16
   5  -6   2  464.67    9.41
  -5  -6   2  483.02   10.23
   5  -6  -2  482.66   10.32
   5  -6   2  494.89    7.85
   5   6   2  503.64   10.73
   5   6  -2  493.34   10.23
  -5   6   2  493.84   10.37
   5  -6   2  490.10    8.85
   5   6   2  475.60   10.52
  -5   6   2  478.05    9.91
   5  -6   2  497.31    9.55
   5  -6  -2  505.80   10.81
   5   6   2  462.62    6.30
  -5   6  -2  484.78    8.67
  -5  -6  -2  474.24    9.40
  -5  -6   2  487.95   10.34
   5  -6   2  473.69    9.47
   5  -6  -2  494.55   10.22
   5  -6  -2  491.91   10.11
  -5  -7   2    1.72    0.81
   5  -7   2    2.10    0.53
   5  -7  -2    2.02    0.82
   5  -7  -2    3.46    1.18
  -5  -7  -2    3.05    0.94
  -5   7   2    2.21    0.99
   5  -7  -2    4.06    1.13
   5  -7   2    1.37    0.75
   5   7   2    1.73    0.69
  -5  -7  -2    3.02    0.87
   5   7  -2    0.57    0.72
   5   7   2    2.72    1.05
   5  -7   2    1.19    0.62
   5   7   2    2.32    0.80
   5   7  -2    1.27    0.72
   5  -7   2    1.31    0.79
  -5  -7   2    2.30    0.83
  -5   7   2    1.93    0.90
  -5  -7  -2    3.16    0.75
  -5  -7   2    3.60    0.99
  -5  -7  -2    2.26    0.75
   5  -7  -2    2.29    0.81
   5   7  -2    2.30    0.79
  -5  -7   2    3.80    1.15
  -5   7   2    1.95    1.06
   5  -7   2    1.57    0.59
   5  -7  -2    1.90    0.89
   5   7   2    2.14    0.36
   5   7  -2    2.57    0.81
   5   7   2    3.95    1.26
   5  -7   2    2.28    0.80
  -5   7  -2    3.15    0.88
  -5  -8  -2  635.74   12.22
   5   8   2  632.07   11.39
   5   8  -2  639.18   12.28
   5   8   2  643.53   12.52
   5  -8  -2  622.10   12.18
  -5  -8  -2  618.56   11.48
  -5  -8   2  625.22   12.27
   5   8   2  632.02   11.39
  -5  -8   2  626.57   12.27
   5   8  -2  623.71   12.19
  -5  -8   2  628.30   10.29
   5  -8   2  616.40   11.65
   5  -8   2  609.52   11.61
   5  -8   2  631.86   10.92
  -5  -8  -2  632.97   11.55
  -5  -8   2  623.19   12.31
   5  -8   2  616.98   10.97
  -5  -8  -2  622.30   11.04
   5   8  -2  643.44   11.78
   5  -8   2  634.10   10.99
   5  -8  -2  632.03   12.23
  -5   8   2  638.36   12.90
   5  -8  -2  653.13   13.20
  -5   8  -2  626.56   11.07
  -5   8   2  616.32   12.15
   5   8   2  633.21   12.50
  -5  -8   2  625.42   12.52
   5  -8  -2  618.53   12.45
   5  -8   2  643.63    9.86
   5  -8  -2  625.42   12.23
  -5  -9  -2   18.57    1.85
   5   9   2   25.81    2.05
  -5  -9  -2   22.08    1.85
   5  -9   2   25.44    2.09
   5   9  -2   18.35    1.88
   5   9   2   26.53    2.39
   5  -9  -2   19.76    2.01
  -5  -9   2   25.34    1.70
  -5  -9  -2   20.71    1.90
  -5  -9   2   23.23    2.16
   5   9   2   24.49    1.99
   5  -9   2   22.56    1.86
   5   9  -2   20.75    2.03
  -5  -9  -2   20.20    1.87
  -5  -9   2   22.62    2.13
  -5  -9   2   29.07    2.45
  -5   9   2   27.07    2.46
   5  -9   2   24.96    1.80
  -5   9   2   28.32    2.36
   5   9  -2   21.38    1.94
   5  -9   2   25.32    1.59
   5  -9  -2   22.16    2.11
   5  -9   2   26.21    2.13
  -5   9  -2   20.60    1.84
  -5  -9   2   24.77    2.29
   5   9   2   25.93    2.29
   5  -9   2   24.48    1.79
   5  -9  -2   20.81    2.03
   5  10   2  155.36    5.16
   5  10  -2  157.96    5.65
   5 -10   2  157.11    4.54
   5 -10  -2  151.82    5.54
   5 -10   2  150.18    5.35
  -5 -10  -2  148.22    5.16
  -5 -10   2  151.68    5.69
  -5 -10   2  158.41    5.68
  -5 -10   2  156.37    5.65
   5  10   2  163.65    5.29
   5  10  -2  160.06    5.70
   5  10   2  152.76    5.56
  -5 -10   2  162.38    5.78
  -5  10  -2  146.17    5.34
   5 -10   2  155.85    5.03
   5  10  -2  145.29    5.19
  -5  10   2  152.06    5.63
  -5 -10  -2  152.23    5.02
   5 -10  -2  153.43    5.57
   5 -10   2  158.74    5.49
  -5  10   2  170.70    6.22
   5 -10  -2  144.94    5.42
   5  10   2  155.19    5.59
   5 -10   2  162.51    4.55
  -5 -10  -2  145.60    5.12
  -5 -10  -2  151.40    5.50
   5 -10   2  157.26    4.30
  -5 -10   2  153.18    4.34
   5  11  -2   25.16    2.33
  -5  11   2   31.29    2.74
   5 -11  -2   24.47    2.31
   5 -11   2   30.75    2.42
  -5 -11  -2   25.88    2.18
  -5 -11   2   30.84    2.56
   5  11   2   31.78    2.38
   5  11  -2   30.28    2.57
   5  11   2   26.04    2.32
  -5 -11  -2   27.69    2.18
  -5 -11   2   29.48    2.59
  -5  11  -2   31.51    2.49
  -5  11   2   32.56    2.64
   5 -11   2   27.84    2.14
   5 -11  -2   30.59    2.53
  -5 -11   2   28.83    2.50
   5 -11   2   29.19    1.84
   5 -11   2   29.55    2.36
  -5 -11  -2   26.17    2.20
   5  11   2   27.61    2.38
   5 -11  -2   25.72    2.34
  -5 -11   2   30.41    2.62
  -5 -11   2   31.04    1.94
  -5 -11  -2   30.08    2.48
   5  11   2   31.80    2.42
   5 -11   2   27.82    1.81
   5  12  -2  979.44   17.45
  -5 -12   2  963.42   17.39
   5 -12  -2  963.60   17.28
   5 -12   2  984.42   16.99
  -5 -12  -2  959.29   16.59
  -5 -12  -2  966.39   16.65
  -5  12  -2  970.26   16.82
   5  12   2  962.31   16.69
  -5 -12   2  965.27   17.36
  -5  12   2  980.18   17.49
   5  12   2  974.20   16.50
   5  12  -2  986.01   17.49
   5 -12   2  975.04   16.26
   5  12   2  976.00   16.77
  -5 -12  -2  981.84   16.37
   5 -12  -2  955.15   17.23
  -5  12   2  983.46   18.18
   5 -12   2  988.38   17.01
  -5 -12   2  979.14   17.73
  -5 -12   2  951.21   14.60
  -5 -12  -2  992.90   17.26
   5 -12   2  985.73   14.13
   5  12   2  963.96   16.45
  -5 -12   2  969.46   17.48
   5 -12   2  970.78   14.76
   5 -12  -2  985.79   17.39
   5 -13  -2   25.88    2.43
  -5 -13  -2   24.09    2.29
  -5 -13   2   28.74    2.58
   5 -13   2   28.65    1.98
   5 -13  -2   23.79    2.36
   5 -13   2   26.91    2.41
  -5  13  -2   27.42    2.40
   5  13  -2   26.71    2.50
  -5 -13  -2   23.20    2.24
  -5 -13   2   25.48    2.43
   5  13   2   26.25    2.31
   5  13  -2   25.92    2.49
   5  13   2   27.20    2.35
  -5 -13  -2   28.10    2.33
  -5 -13   2   29.81    2.71
  -5 -13   2   28.79    2.69
  -5  13   2   27.84    2.63
  -5  13   2   29.59    2.83
   5 -13  -2   24.92    2.39
   5  13   2   28.25    2.37
   5 -13   2   28.85    1.68
  -5 -13   2   27.65    1.87
   5 -13   2   26.54    2.40
  -5 -13  -2   23.79    2.32
   5  13   2   25.85    2.26
   5  14   2    7.57    1.36
  -5 -14   2    7.83    1.55
   5  14   2    8.86    1.48
   5 -14   2    7.86    1.12
  -5  14  -2    6.74    1.36
  -5  14   2    8.42    1.59
   5  14   2    8.12    1.43
   5 -14   2    5.61    1.21
  -5 -14   2    7.51    1.06
   5  14   2    9.33    1.53
  -5 -14  -2    8.83    1.50
   5  14  -2    7.73    1.48
  -5 -14  -2    8.01    1.39
   5  14  -2    7.24    1.39
  -5 -14   2    8.12    1.53
  -5 -14  -2    5.31    1.17
  -5  14   2    8.40    1.81
   5 -14   2    8.18    1.58
  -5 -15   2    8.26    1.70
   5  15   2    7.30    1.33
   5 -15   2    7.00    1.14
   5  15  -2    5.38    1.30
  -5  15  -2    6.13    1.31
  -5  15  -2    6.31    1.41
   5  15   2    8.93    1.39
  -5  15   2    7.90    1.57
  -5 -15   2    7.21    1.06
  -5 -15  -2    6.54    1.36
   5  15   2    7.50    1.47
   5  15  -2    7.87    1.56
   5  15   2    7.55    1.33
  -5 -15   2    7.89    1.63
  -5  15  -2    7.13    1.44
  -5  15   2   10.16    1.93
   5 -16   2  341.64    8.34
   5  16   2  337.87    8.81
   5  16  -2  377.39   10.47
  -5  16  -2  362.78    9.67
   5  16   2  347.97    9.64
  -5  16  -2  372.37   10.08
   5  16   2  362.04    8.98
   5  16  -2  366.59   10.34
  -5 -16  -2  370.20    9.74
  -5 -16   2  363.58   10.39
  -5  16   2  361.38   10.86
   5  16   2  347.23    9.63
  -5  16  -2  352.22    9.82
  -5  16   2  356.58   10.28
  -5 -16   2  346.07    8.01
  -5  16  -2  383.61   10.50
  -5 -16   2  357.64   10.49
   5  17   2   14.84    2.01
   5 -17   2   13.34    1.65
  -5  17  -2   13.48    1.97
  -5  17  -2   14.43    1.98
   5  17   2   12.29    1.64
  -5  17  -2   14.03    2.01
   5  17   2   13.03    1.90
  -5 -17  -2   14.66    1.96
   5  17   2   13.51    1.74
  -5  17   2   17.32    2.61
  -5  17  -2   16.80    2.29
  -5 -17   2   13.97    2.08
   5 -18   2   97.54    4.42
  -5 -18  -2   96.97    5.08
  -5 -18   2   94.39    5.40
  -5  18  -2   99.22    5.06
  -5  18   2   99.36    5.80
  -5  18  -2   97.90    5.46
   5  18   2   95.42    4.36
  -5  19  -2    8.86    1.60
  -5 -19  -2   10.19    1.83
  -5 -19   2   10.89    2.10
  -5  19   2    6.63    1.80
  -5  19  -2   11.24    2.14
   5  19   2    7.95    1.77
  -5 -20  -2  126.78    6.20
  -5  20  -2  131.50    6.77
   5  20   2  142.56    6.83
  -6   0   2 1522.39   22.84
   6   0   2 1580.85   21.73
   6   0  -2 1507.66   22.70
   6   0  -2 1464.33   22.54
   6   0   2 1581.11   21.74
   6   0  -2 1512.33   22.73
  -6   0  -2 1464.42   17.01
   6   0   2 1524.72   20.28
  -6   0   2 1557.89   21.98
   6   0   2 1488.22   23.42
   6   0  -2 1518.48   22.10
  -6   0  -2 1503.64   19.94
   6   0   2 1497.80   23.46
   6   0  -2 1514.18   22.60
  -6   0   2 1539.83   22.68
  -6   0  -2 1503.14   20.45
   6   1  -2    5.49    1.14
   6  -1  -2    4.62    1.20
  -6  -1  -2    6.78    0.95
  -6  -1   2    2.67    0.91
  -6   1  -2    5.95    0.90
  -6   1   2    2.64    1.06
  -6  -1   2    1.71    0.98
   6  -1   2    1.93    0.79
   6  -1   2    3.29    1.32
   6   1   2    1.85    0.60
   6  -1   2    1.49    0.70
   6  -1   2    4.25    1.41
   6   1   2    3.79    1.27
   6  -1  -2    7.18    1.45
   6  -1  -2    4.18    0.93
   6   1   2    3.97    1.66
   6   1   2    2.03    0.82
   6   1  -2    5.53    1.21
  -6  -1   2    3.60    1.06
  -6   1  -2    5.58    0.58
   6   1  -2    5.68    1.15
   6   1  -2    4.82    1.12
   6   1   2    2.33    0.86
   6  -1   2    2.44    0.63
   6  -1  -2    6.81    1.35
   6  -1  -2    6.09    1.31
  -6   1   2    0.63    0.91
  -6  -1  -2    6.14    1.01
  -6   1   2    2.71    0.96
   6   1  -2    6.95    1.17
  -6   1  -2    5.23    0.91
   6   2   2  101.03    3.95
   6  -2  -2  100.50    4.39
   6   2   2  100.27    4.82
   6   2  -2  106.07    4.50
   6   2  -2  102.78    4.43
   6  -2  -2  105.19    4.51
   6  -2   2   95.75    3.95
  -6   2  -2  108.07    2.81
   6   2   2  101.11    3.55
   6   2  -2  105.64    4.17
   6   2   2   98.90    3.93
   6   2  -2  106.58    4.54
  -6  -2   2  100.53    4.46
  -6   2   2  101.79    4.52
   6  -2  -2  104.44    4.50
   6  -2   2   97.98    3.50
   6  -2   2  102.26    4.64
  -6   2   2   96.19    4.13
   6  -2  -2  108.63    4.51
  -6   2  -2  108.73    3.75
   6  -2   2  101.66    4.61
   6   2  -2  112.67    4.68
  -6  -2  -2  103.34    3.68
   6  -2   2  100.75    4.04
  -6  -2  -2  104.14    3.60
   6  -2  -2  102.81    4.40
   6   2   2   93.98    4.73
  -6  -2   2  102.65    4.48
  -6   2  -2  102.63    3.29
  -6   2   2  105.67    4.48
  -6   3   2   99.18    4.38
  -6   3  -2  110.39    3.36
   6   3  -2  108.27    4.57
  -6   3   2  103.48    4.58
   6  -3   2  106.74    4.20
   6   3   2  104.98    4.07
   6   3  -2  106.31    4.56
   6  -3  -2  111.44    4.68
   6   3  -2  109.83    4.59
   6   3   2  105.22    3.67
   6  -3  -2  116.87    4.76
   6  -3   2  105.21    4.17
  -6  -3   2  108.86    4.54
   6  -3   2  100.89    3.61
  -6  -3  -2  114.22    3.88
   6  -3   2  104.81    4.68
   6  -3  -2  116.27    4.75
  -6   3  -2  107.66    3.77
   6  -3   2  106.22    4.20
   6   3  -2  105.60    4.20
  -6  -3   2  101.74    4.40
   6  -3   2  104.65    4.15
  -6   3   2  100.55    4.28
  -6   3  -2  113.34    3.15
   6   3   2  101.85    4.93
   6  -3  -2  115.58    4.71
   6   3   2  105.82    4.09
  -6  -3   2  105.85    4.57
   6  -3   2   99.04    4.52
   6   3  -2  118.82    4.82
   6   3   2  103.24    4.99
  -6  -3  -2  107.89    3.74
   6  -3  -2  111.32    4.57
  -6  -3   2   96.36    4.41
  -6   4   2  560.00   11.49
  -6   4  -2  546.79    9.04
   6  -4   2  567.09   11.02
  -6  -4   2  565.52   11.65
   6   4   2  553.80   10.66
   6  -4   2  563.50   11.01
   6   4  -2  560.53   11.63
  -6  -4  -2  546.31   10.81
   6  -4  -2  558.34   11.69
  -6   4   2  562.75   11.45
  -6   4   2  556.16   11.25
   6  -4  -2  547.06   11.58
   6   4   2  558.61   10.70
  -6  -4   2  550.38   11.48
   6  -4  -2  554.04   11.65
   6   4  -2  540.94   11.43
   6   4   2  555.49   12.48
   6  -4   2  542.60   11.45
  -6  -4  -2  554.59   10.09
   6   4   2  552.86   12.48
   6  -4  -2  559.68   11.50
  -6  -4  -2  550.43   10.83
  -6  -4   2  553.10   11.51
  -6   4  -2  559.67   10.05
   6   4  -2  533.20   11.44
   6  -4   2  552.29   10.91
   6   4  -2  543.34   10.77
  -6   4  -2  547.85    9.03
   6  -4  -2  556.68   11.76
   6  -4   2  560.56   10.96
  -6   4   2  557.39   11.75
   6  -4   2  557.92    9.20
  -6  -4  -2  554.99   10.14
   6  -4   2  553.57   10.04
  -6  -4   2  550.24   11.67
   6  -4   2  551.22   11.53
   6  -5  -2   -0.34    0.79
  -6  -5  -2    1.50    0.73
   6  -5   2    0.37    0.44
  -6  -5   2   -0.15    0.88
   6  -5  -2   -0.20    0.78
  -6   5   2   -0.56    0.83
  -6   5  -2    0.64    0.49
  -6   5   2    0.89    0.89
   6  -5  -2   -0.06    0.76
   6  -5   2    1.56    0.99
  -6  -5   2    0.54    0.77
   6  -5   2    0.27    0.87
   6   5   2   -0.50    0.59
   6   5  -2    0.25    0.79
  -6  -5   2    0.23    0.72
  -6  -5   2   -0.19    0.66
   6  -5   2    0.29    0.47
   6   5  -2    0.49    0.81
  -6  -5  -2   -0.05    0.71
   6  -5   2   -0.08    0.62
   6   5   2    1.73    1.25
   6   5   2   -0.48    0.59
   6   5  -2   -0.86    0.72
   6   5   2    2.06    1.19
  -6  -5  -2   -0.54    0.88
   6  -5  -2   -0.89    0.83
  -6   5   2   -0.15    0.92
   6  -5  -2    0.33    0.81
   6  -5  -2    0.02    0.79
   6  -5   2   -0.07    0.59
  -6  -5  -2    0.17    0.57
   6   5  -2    0.43    0.58
  -6   5   2   -0.21    0.79
  -6   5  -2    0.46    0.53
   6  -5  -2   -1.36    0.99
  -6   6   2  260.42    7.40
  -6   6   2  265.04    7.62
   6  -6  -2  256.40    7.46
   6   6   2  260.84    6.88
   6  -6   2  255.97    6.97
   6   6  -2  252.54    7.38
   6  -6   2  262.62    5.63
   6  -6   2  261.58    6.49
  -6  -6  -2  252.73    6.88
   6  -6   2  243.53    6.96
  -6   6   2  261.38    7.57
  -6  -6   2  260.46    7.51
   6   6   2  252.21    6.80
  -6  -6  -2  257.36    6.92
   6   6  -2  252.29    7.39
   6   6   2  253.17    8.00
  -6  -6  -2  255.02    6.40
  -6  -6   2  264.00    7.54
  -6   6   2  252.21    7.24
  -6  -6   2  259.85    7.51
   6  -6  -2  261.72    7.52
   6  -6   2  259.55    7.01
  -6  -6  -2  254.61    6.58
   6   6  -2  254.01    6.88
  -6   6  -2  260.40    6.07
   6  -6  -2  260.33    7.81
   6  -6   2  256.73    7.17
   6   6   2  258.88    8.09
  -6  -6   2  263.32    7.65
   6  -6  -2  268.34    7.48
  -6   7   2   64.07    3.58
  -6  -7  -2   56.18    3.35
   6   7   2   63.65    3.26
   6  -7  -2   62.63    3.57
   6   7  -2   57.93    3.42
   6  -7   2   67.79    3.47
   6  -7   2   64.42    3.39
   6  -7   2   61.52    3.26
  -6  -7  -2   56.35    3.11
  -6  -7   2   61.14    3.54
  -6  -7  -2   58.64    3.18
   6   7   2   66.16    3.29
   6   7  -2   66.28    3.67
   6  -7   2   65.36    2.61
  -6  -7  -2   59.40    2.96
  -6  -7   2   64.33    3.61
  -6  -7   2   65.80    3.65
  -6   7   2   67.74    3.78
   6  -7  -2   54.14    3.31
   6   7   2   64.55    4.00
   6   7   2   38.99    1.22
  -6   7   2   62.93    3.69
   6  -7   2   60.27    3.25
  -6   7  -2   58.30    2.83
   6  -7  -2   56.29    3.63
   6  -7   2   63.81    3.04
   6   7   2   62.27    3.92
  -6  -7   2   65.39    3.71
   6   7  -2   57.29    3.08
   6  -7  -2   56.21    3.33
  -6   7   2   62.48    3.56
  -6  -8   2  245.89    7.61
  -6  -8  -2  253.02    7.42
   6   8   2  250.76    6.96
   6   8  -2  251.88    7.55
   6  -8  -2  250.27    7.47
   6  -8   2  244.81    7.11
   6  -8   2  253.74    6.82
   6   8   2  247.58    7.99
   6  -8   2  251.03    6.81
   6   8  -2  248.18    6.90
  -6  -8  -2  256.09    6.68
  -6  -8   2  248.77    7.50
  -6  -8  -2  246.78    7.01
   6   8   2  247.02    6.93
   6   8  -2  256.56    7.63
  -6  -8   2  248.90    7.53
   6  -8   2  245.58    7.11
  -6  -8   2  239.29    7.36
  -6   8   2  251.44    7.48
   6  -8  -2  241.38    7.35
  -6  -8  -2  250.73    7.06
   6   8   2  251.15    4.19
  -6   8   2  270.63    7.92
   6   8   2  257.03    8.12
  -6   8  -2  257.17    6.57
   6  -8   2  249.05    6.58
  -6   8   2  241.79    7.55
   6  -8   2  269.22    5.83
   6  -8  -2  258.09    7.51
   6   9   2    1.26    0.35
  -6  -9   2    0.50    0.82
   6  -9   2    1.57    0.62
  -6  -9  -2    0.65    0.86
   6  -9  -2   -0.22    0.80
  -6   9   2    2.52    1.07
   6   9   2    0.61    0.66
   6  -9   2    1.40    0.66
   6  -9   2    0.98    0.70
   6  -9  -2    0.80    0.80
  -6  -9   2    1.00    0.90
   6  -9   2    0.86    0.68
   6   9  -2    0.32    0.85
   6   9   2    1.72    1.18
   6   9   2    1.41    1.12
   6   9   2    1.00    0.67
   6   9  -2    0.63    0.90
  -6  -9   2    2.41    0.96
  -6  -9  -2    0.72    0.79
   6  -9   2    1.36    0.69
  -6  -9   2    1.99    1.02
  -6  -9  -2    0.28    0.65
  -6  -9   2    1.43    0.63
   6  -9  -2    0.51    0.74
  -6   9   2    0.70    0.96
   6  -9   2    1.56    0.79
  -6   9  -2    0.55    0.68
  -6  -9  -2    1.06    0.94
   6   9  -2    0.23    0.65
  -6 -10  -2  857.33   15.96
   6 -10   2  843.18   14.16
  -6 -10   2  846.38   13.82
   6  10   2  839.58   15.16
   6  10  -2  880.82   16.30
   6 -10  -2  871.15   16.24
   6 -10   2  819.82   15.42
  -6 -10  -2  859.02   15.38
  -6 -10   2  850.07   16.14
   6  10   2  854.23   15.26
   6  10  -2  886.10   16.31
   6  10   2  844.91   11.62
  -6  10   2  875.98   16.70
  -6 -10   2  855.20   16.19
   6 -10   2  855.82   14.88
  -6 -10  -2  869.49   14.91
   6 -10   2  823.47   14.08
  -6 -10   2  867.62   16.26
   6  10   2  828.80   16.29
  -6  10   2  829.88   16.01
   6 -10  -2  867.58   16.17
   6 -10   2  832.13   15.50
  -6  10  -2  874.52   15.00
   6  10   2  840.06   16.42
  -6 -10   2  844.79   16.26
  -6 -10  -2  873.47   15.48
   6 -10   2  869.91   13.34
   6 -10  -2  852.56   15.94
   6  11   2   23.73    2.21
  -6 -11   2   19.49    2.31
   6 -11  -2   18.43    2.11
   6 -11   2   22.50    2.23
  -6  11  -2   19.60    2.17
   6  11  -2   20.27    2.27
   6 -11  -2   17.74    2.08
   6  11   2   19.92    2.27
  -6 -11  -2   17.82    1.96
   6  11   2   22.11    2.14
   6 -11   2   22.48    1.84
   6 -11   2   19.45    1.73
   6  11  -2   18.73    2.18
   6 -11  -2   19.52    2.21
  -6 -11   2   20.57    2.29
  -6 -11  -2   19.88    1.96
   6  11   2   22.06    2.40
  -6 -11  -2   18.58    1.98
   6 -11   2   21.57    2.10
  -6  11   2   21.62    2.44
  -6 -11   2   19.01    2.12
  -6  11   2   21.02    2.27
   6 -11   2   22.27    2.21
  -6 -11   2   20.86    2.25
  -6  11  -2   20.57    2.05
   6 -11   2   19.08    1.59
  -6 -11  -2   22.20    2.27
  -6 -11   2   18.68    1.64
  -6 -12   2   10.46    1.80
   6 -12   2   10.11    1.20
   6  12   2    9.35    1.48
  -6 -12  -2    9.71    1.39
   6  12  -2   15.21    2.04
  -6  12   2   11.30    1.79
  -6 -12   2   10.19    1.65
   6 -12   2   12.21    1.76
   6  12   2    8.35    1.59
  -6 -12  -2   10.75    1.63
   6 -12   2   10.68    1.29
   6  12   2   10.97    1.83
   6  12   2   14.12    1.78
  -6 -12   2   10.51    1.27
   6  12  -2   12.65    1.88
  -6 -12  -2   12.38    1.63
   6 -12   2   12.39    1.35
  -6  12   2   12.40    1.96
  -6  12  -2   13.83    1.87
  -6  12  -2   16.56    2.00
   6 -12   2   13.34    1.86
  -6 -13   2    9.90    1.79
   6 -13   2    7.47    1.11
   6  13   2   10.29    1.64
  -6  13  -2    7.85    1.47
   6  13  -2    6.12    1.42
  -6  13   2    7.86    1.61
   6  13   2    8.70    1.71
   6 -13   2    9.52    1.15
   6  13   2    7.73    1.56
  -6 -13  -2    8.41    1.50
   6  13   2   10.79    1.66
  -6 -13   2    7.79    1.13
   6  13  -2    7.72    1.55
  -6 -13  -2   10.59    1.66
  -6 -13  -2    7.97    1.43
  -6 -13   2    7.29    1.62
  -6  13   2   10.65    1.94
  -6  13  -2   10.12    1.77
   6 -14   2  382.05    7.53
  -6  14  -2  358.76    9.92
   6  14   2  375.20    9.89
   6  14  -2  365.44   10.44
   6  14   2  362.62    9.91
  -6 -14   2  375.62    8.41
  -6  14  -2  384.79   10.16
  -6 -14  -2  383.68    9.84
  -6  14   2  383.97   10.99
   6  14   2  372.47    9.88
  -6  14   2  362.25   10.45
  -6 -14   2  378.86   10.60
  -6 -14   2  380.14   10.80
   6  14   2  357.72    9.87
   6 -14   2  363.04    8.41
   6  14  -2  370.52   10.50
  -6 -15   2    6.79    1.70
   6  15   2    7.75    1.53
   6 -15   2    7.25    1.16
  -6  15  -2    6.14    1.49
   6  15   2    5.81    1.44
  -6 -15   2    7.89    1.21
   6  15   2    6.30    1.45
  -6 -15   2    6.53    1.53
  -6 -15  -2    6.03    1.33
  -6  15   2   11.35    2.16
   6  15   2    7.46    1.66
  -6  15  -2    5.61    1.39
   6  16   2   29.60    2.69
  -6 -16   2   29.62    3.08
   6  16   2   30.46    2.73
   6  16   2   31.11    2.84
  -6 -16  -2   34.58    2.98
  -6  16  -2   35.00    3.05
  -6  16   2   31.88    3.23
  -6  16  -2   32.39    3.01
   6  16   2   34.26    3.01
   6 -16   2   29.80    2.34
  -6  17  -2   15.12    2.10
   6  17   2   17.49    2.10
  -6 -17   2   18.61    2.55
  -6 -17  -2   17.07    2.22
  -6  17   2   16.34    2.49
  -6  17  -2   20.73    2.54
   6  18   2  242.33    7.90
  -6 -18  -2  256.28    8.72
  -6 -18   2  260.11    9.49
  -6  18   2  261.52    9.77
  -6  18  -2  267.45    9.43
  -6 -19  -2    0.34    1.07
  -6  19  -2    1.97    1.36
   7   0   2   -0.10    0.84
   7   0  -2   -0.57    0.97
   7   0   2   -0.03    0.73
  -7   0  -2    0.97    0.54
   7   0   2   -0.09    0.51
  -7   0   2    0.58    0.77
  -7   0   2    0.02    0.98
   7   0  -2    0.47    0.77
   7   0   2    0.61    0.85
   7   0  -2    0.69    0.82
   7   0   2    2.29    1.21
  -7   0   2   -0.55    0.84
   7   0  -2    1.05    0.81
  -7   0  -2    1.07    0.63
   7   1   2   24.90    2.22
  -7  -1  -2   24.67    2.01
   7   1   2   25.27    2.78
   7   1  -2   28.22    2.58
   7  -1   2   22.68    2.11
   7  -1   2   23.94    2.71
   7  -1   2   24.87    2.67
   7  -1   2   23.36    2.13
   7  -1  -2   29.40    2.65
   7   1   2   25.02    1.90
  -7   1   2   25.65    2.48
   7  -1   2   22.41    1.81
   7   1   2   26.32    2.21
  -7  -1   2   22.73    2.41
   7  -1  -2   30.04    2.56
   7   1  -2   28.66    2.56
   7   1  -2   30.76    2.66
  -7   1  -2   28.22    1.28
  -7  -1   2   23.63    2.13
   7  -1  -2   28.71    2.44
  -7   1   2   24.60    2.22
   7   1  -2   29.04    2.40
   7   1   2   25.77    2.87
  -7   1  -2   29.25    2.12
   7  -1  -2   26.36    2.50
  -7  -1  -2   27.23    1.98
  -7  -1   2   25.93    2.48
  -7   1  -2   29.55    1.96
  -7   1   2   26.25    2.45
   7   2   2  673.88   11.98
   7   2   2  681.49   13.03
   7   2  -2  674.82   13.88
   7  -2  -2  703.32   14.07
   7  -2  -2  723.20   14.22
   7  -2   2  700.05   13.27
   7   2   2  676.57   13.01
   7  -2   2  666.75   12.00
  -7  -2   2  669.47   13.90
  -7  -2  -2  684.42   12.28
   7  -2   2  685.98   13.17
  -7   2   2  692.36   14.05
   7  -2  -2  709.50   13.69
   7  -2   2  641.87   14.28
   7   2  -2  679.70   13.92
  -7   2  -2  700.50    9.92
   7   2   2  608.37   14.39
  -7   2  -2  698.73   12.26
  -7   2   2  673.65   13.14
   7   2  -2  683.47   13.95
   7  -2   2  654.68   14.41
   7  -2  -2  704.89   13.90
   7   2   2  603.30   14.48
  -7  -2  -2  689.59   12.00
   7   2  -2  693.86   13.15
  -7  -2   2  684.50   13.90
  -7   2  -2  694.20   11.46
  -7   2   2  696.50   13.86
  -7  -3   2    8.59    1.52
   7   3  -2    6.76    1.48
   7  -3   2    7.35    1.29
  -7   3   2    7.37    1.40
  -7   3  -2    6.91    0.96
   7   3   2    4.74    1.45
   7  -3   2    9.80    1.46
   7  -3  -2    4.41    1.24
   7  -3  -2    6.91    1.31
   7  -3   2    8.18    1.30
   7  -3   2    7.31    1.65
   7   3   2    5.01    1.47
   7   3   2    6.79    1.19
   7   3  -2    5.15    1.26
   7  -3   2    5.19    0.96
   7  -3  -2    5.30    1.40
  -7  -3   2    7.00    1.47
  -7  -3  -2    7.43    1.20
   7  -3   2    8.31    1.35
  -7   3   2    7.83    1.55
  -7  -3  -2    7.10    1.12
  -7   3  -2    6.61    1.06
  -7   3   2    7.45    1.37
  -7   3  -2    5.53    0.79
   7   3  -2    7.92    1.27
   7  -3  -2    7.64    1.49
   7   3   2    8.27    1.12
   7  -3   2    6.51    1.62
   7   3   2    7.79    1.29
  -7   4   2  211.53    7.01
  -7   4  -2  220.22    5.48
   7  -4   2  206.93    6.63
  -7  -4   2  217.94    7.24
   7   4   2  214.90    6.52
   7   4  -2  223.33    7.29
   7   4  -2  222.94    6.61
   7  -4  -2  224.68    7.37
   7  -4   2  230.23    6.95
   7   4   2  226.87    6.69
   7   4  -2  209.16    7.05
  -7  -4   2  220.00    7.20
   7  -4   2  220.83    7.45
  -7   4   2  231.31    7.44
   7  -4  -2  215.95    7.25
   7  -4   2  219.16    6.11
   7  -4   2  219.82    6.81
   7  -4   2  214.79    7.37
  -7   4   2  216.22    6.98
  -7  -4   2  219.86    7.26
   7  -4   2  218.48    6.77
   7   4   2  195.94    7.62
  -7   4   2  219.78    6.97
  -7   4  -2  226.06    5.22
   7  -4  -2  225.57    7.34
  -7   4  -2  219.42    6.09
  -7  -4  -2  219.97    6.20
  -7  -4  -2  215.61    6.09
   7   4   2  197.70    7.74
   7  -4  -2  221.12    7.15
  -7  -4   2  217.82    7.23
   7   5   2   88.66    5.04
  -7  -5   2   91.31    4.57
   7  -5  -2   77.83    4.22
  -7   5   2   90.46    4.49
  -7   5  -2   84.27    3.24
   7  -5  -2   82.85    4.35
   7  -5   2   93.57    4.32
   7   5   2   90.04    4.14
  -7  -5   2   90.77    4.56
   7   5  -2   88.63    4.47
  -7  -5  -2   76.97    3.62
  -7  -5  -2   82.52    3.71
   7   5   2   90.67    4.14
   7   5  -2   83.00    4.34
   7  -5  -2   87.29    4.50
  -7  -5   2   91.85    4.59
   7  -5   2   93.25    4.30
  -7  -5  -2   83.55    4.08
   7  -5   2   91.83    4.30
  -7   5   2   87.86    4.53
   7  -5   2   98.68    3.96
  -7   5   2   93.30    4.50
   7  -5  -2   83.60    4.41
   7  -5   2   89.89    4.25
  -7   5   2   97.41    4.57
   7  -5   2   91.64    4.63
   7   5  -2   86.24    3.99
  -7   5  -2   84.27    3.18
  -7  -5  -2   84.21    4.09
   7  -5   2   88.35    4.56
   7  -5   2   91.46    3.41
   7   5   2   79.56    4.79
   7  -5  -2   81.14    4.24
  -7  -5   2   95.21    4.69
   7  -6   2  350.41    9.40
  -7   6   2  376.63    9.67
   7  -6   2  365.70    8.46
   7  -6  -2  372.26    9.74
   7  -6   2  362.78    9.19
   7  -6  -2  358.16    9.56
   7   6   2  377.66    9.08
   7   6  -2  371.95    9.76
   7   6   2  379.19    9.09
   7   6  -2  361.42    9.63
   7  -6   2  360.86    9.52
  -7  -6   2  353.34    9.61
  -7  -6  -2  354.29    9.07
   7  -6  -2  364.44    9.76
   7   6   2  347.81   10.47
  -7  -6  -2  373.60    8.58
   7  -6   2  380.45    9.38
  -7   6   2  375.42    9.86
  -7   6   2  361.23    9.51
  -7  -6  -2  354.59    9.08
   7  -6  -2  370.95    9.83
  -7  -6   2  362.74    9.73
  -7   6  -2  378.90    7.77
   7  -6   2  360.71    9.16
   7   6  -2  367.74    8.84
  -7  -6   2  381.73    9.86
   7  -6   2  363.59    7.52
  -7   6   2  383.16    9.75
  -7  -6  -2  363.96    8.59
   7   6   2  332.64   10.30
  -7  -6   2  372.85    9.90
   7  -6  -2  369.32    9.58
  -7   7  -2   15.83    1.54
  -7  -7   2   17.48    2.13
  -7   7   2   16.36    2.01
   7  -7  -2   17.22    2.10
  -7  -7  -2   18.92    2.01
   7  -7   2   16.92    1.92
   7   7   2   18.90    1.91
  -7  -7  -2   13.79    1.58
   7  -7   2   16.93    1.93
   7   7  -2   16.68    2.00
   7  -7  -2   17.22    2.00
  -7   7   2   14.74    1.98
   7   7   2   15.99    2.27
   7  -7   2   19.80    2.13
  -7  -7  -2   17.22    1.78
   7   7  -2   17.04    2.07
  -7  -7  -2   15.83    1.79
   7  -7   2   18.89    1.79
   7  -7  -2   14.91    2.00
  -7  -7  -2   13.67    1.82
  -7  -7   2   14.60    1.86
  -7  -7   2   17.96    2.07
   7   7   2   16.38    1.79
  -7   7   2   17.95    2.16
  -7  -7   2   16.38    2.03
   7  -7   2   17.74    2.02
   7  -7  -2   16.87    2.01
   7   7  -2   15.41    1.75
  -7   7   2   16.22    2.03
   7  -7   2   16.89    1.48
   7   7   2   16.90    2.42
  -7  -8  -2  581.89   11.60
  -7  -8  -2  584.75   12.77
   7   8   2  570.93   12.06
   7   8  -2  594.68   13.08
   7  -8  -2  561.14   12.84
   7  -8   2  567.64   12.39
   7  -8   2  576.65   12.13
   7   8   2  583.96   12.19
   7   8  -2  589.17   13.04
  -7  -8  -2  572.56   12.23
  -7  -8   2  581.61   12.96
  -7   8   2  558.42   12.75
  -7  -8   2  582.19   12.96
   7  -8   2  573.11   12.45
  -7   8   2  578.23   13.06
   7  -8   2  583.08   10.31
  -7   8   2  604.71   13.05
  -7   8  -2  571.47   10.99
   7  -8   2  578.11   12.19
   7  -8  -2  558.86   12.80
   7  -8   2  572.46   11.54
   7   8   2  554.85   13.70
  -7  -8   2  566.83   12.82
  -7  -8  -2  580.67   11.92
   7   8   2  562.71   13.83
  -7  -8  -2  563.93   12.18
  -7  -8   2  582.25   13.07
   7  -8  -2  582.05   12.76
   7   9   2   39.52    2.88
  -7  -9   2   38.92    2.54
   7   9  -2   42.30    3.20
   7  -9   2   38.82    3.01
  -7   9   2   38.08    3.11
  -7  -9  -2   44.04    2.87
   7   9   2   37.67    2.83
  -7  -9  -2   46.68    3.15
   7   9  -2   43.69    3.30
  -7  -9   2   36.31    2.98
  -7  -9  -2   43.29    3.04
   7  -9   2   36.17    2.63
   7   9   2   38.86    3.43
  -7   9   2   38.73    3.13
   7  -9   2   37.64    2.92
   7   9   2   37.17    1.38
   7  -9   2   37.26    2.73
  -7   9  -2   45.90    2.80
   7  -9   2   38.60    2.73
  -7  -9  -2   43.19    3.02
   7   9   2   35.29    3.26
  -7  -9   2   38.27    3.15
   7  -9   2   37.88    2.27
   7  -9  -2   41.67    3.12
   7  10   2   91.13    4.44
  -7 -10   2   90.39    3.91
   7  10  -2   87.29    4.72
   7 -10   2   88.57    4.12
   7 -10   2   91.00    4.62
   7  10   2   87.90    2.45
   7 -10   2   88.40    4.13
   7  10   2   90.70    4.44
  -7 -10  -2   84.62    4.35
   7  10  -2   79.09    4.54
  -7 -10  -2   82.41    4.10
   7 -10   2   87.11    4.52
  -7 -10  -2   81.57    4.29
  -7  10   2   90.88    4.83
   7  10   2   91.55    5.12
  -7 -10   2   90.82    4.85
  -7  10   2   93.36    4.93
  -7  10  -2   88.52    4.11
  -7 -10  -2   79.09    4.18
   7 -10   2   90.24    3.58
  -7 -10   2   88.66    4.74
  -7 -11   2    6.08    1.18
  -7 -11   2    4.76    1.32
   7 -11   2    5.04    0.94
  -7 -11  -2    7.32    1.42
   7 -11   2    5.48    1.14
   7  11   2    7.24    1.34
  -7  11   2    6.71    1.65
   7  11  -2    8.41    1.64
  -7  11  -2    6.87    1.57
  -7 -11  -2    7.23    1.32
   7  11   2    5.37    1.30
   7  11  -2    9.74    1.80
  -7 -11  -2    6.84    1.42
  -7 -11   2    4.18    1.29
   7  11   2    6.64    1.60
  -7  11   2    6.33    1.52
  -7  11  -2    7.96    1.42
   7 -11   2    3.70    0.86
   7  12   2  372.89    9.93
   7  12  -2  354.69   10.35
  -7  12  -2  358.26    9.45
  -7  12   2  345.81   10.32
   7  12   2  370.20    9.90
   7  12  -2  365.64   10.49
  -7 -12   2  366.96   10.43
  -7 -12  -2  365.11    9.52
   7  12   2  373.04   10.77
   7 -12   2  354.96    8.48
  -7  12  -2  356.07   10.18
  -7  12   2  361.30   10.53
  -7 -12   2  353.82   10.45
   7 -12   2  368.63    8.55
   7 -12   2  356.21    8.15
  -7 -12   2  351.66    8.48
  -7  13  -2   16.13    2.20
   7  13   2   17.03    2.13
  -7  13   2   16.15    2.23
  -7 -13   2   16.94    2.21
   7  13   2   18.22    2.46
   7  13   2   18.23    2.20
  -7 -13   2   19.21    1.82
   7 -13   2   19.76    1.81
  -7 -13  -2   17.67    2.14
  -7  13  -2   21.50    2.34
   7 -13   2   18.72    1.75
  -7  13   2   17.53    2.35
   7 -13   2   18.37    1.76
   7  14   2    3.47    1.33
  -7  14  -2    1.91    1.21
   7  14   2    3.14    1.38
  -7  14   2    2.63    1.24
   7  14   2    3.82    1.48
  -7 -14   2    2.19    0.65
  -7 -14   2   -0.01    1.00
  -7 -14  -2    1.97    0.97
  -7  14  -2    1.27    1.00
   7  15   2   26.00    2.82
  -7 -15  -2   22.01    2.45
  -7 -15   2   24.11    2.85
  -7  15  -2   23.38    2.66
  -7  15   2   23.82    2.80
   7  16   2  308.39    9.82
  -7  16   2  315.75   10.70
  -7 -16   2  315.79   10.44
  -7 -16  -2  318.57    9.76
  -7  16  -2  317.47   10.01
   7  17   2   -0.04    1.17
  -7 -17  -2   -0.06    0.97
  -7  17   2    3.31    1.63
  -7  17  -2    2.87    1.30
  -7  18  -2  103.66    5.91
  -7 -18  -2  100.12    5.54
   8   0   2  586.56   12.58
   8   0  -2  583.69   13.51
  -8   0   2  580.43   13.42
   8   0   2  568.19   12.42
   8   0   2  551.36   11.29
  -8   0  -2  596.06   11.80
  -8   0   2  589.97   12.31
   8   0   2  527.79   13.87
   8   0  -2  588.51   13.53
   8   0  -2  597.84   13.29
   8   0   2  541.52   14.07
  -8   0  -2  578.01   11.13
  -8   0   2  568.17   13.04
   8   1   2   36.00    2.79
   8   1   2   33.83    2.42
   8  -1   2   34.24    2.45
  -8   1  -2   38.08    2.64
   8   1   2   33.41    2.67
   8   1  -2   39.02    3.16
   8  -1   2   39.92    2.99
   8  -1  -2   43.13    3.35
   8  -1   2   36.85    2.91
   8   1  -2   38.28    3.16
   8  -1   2   35.90    3.47
  -8  -1  -2   38.68    2.72
   8  -1  -2   38.51    3.28
  -8  -1   2   37.87    3.17
  -8   1   2   40.50    3.25
  -8  -1   2   40.82    2.91
  -8   1  -2   37.74    1.61
  -8   1   2   39.01    2.86
   8   1   2   34.39    3.42
   8   1  -2   37.31    3.08
   8  -1  -2   38.99    3.12
   8  -1   2   32.67    3.23
  -8  -1  -2   36.79    2.50
  -8  -1   2   37.46    3.06
  -8   1  -2   38.80    2.46
  -8   1   2   38.97    3.12
   8  -2  -2   21.26    2.33
  -8  -2   2   14.92    2.06
  -8   2   2   17.09    2.14
   8  -2   2   15.88    2.32
   8  -2   2   15.89    2.28
   8   2  -2   22.19    2.42
   8   2   2   18.09    1.97
   8   2  -2   21.29    2.36
   8  -2  -2   19.08    2.39
   8  -2   2   13.02    1.76
  -8  -2  -2   21.65    2.05
   8   2   2   15.62    1.85
   8  -2   2   14.20    1.86
   8  -2   2   16.64    1.69
  -8  -2   2   15.02    2.03
  -8   2   2   17.39    2.21
  -8   2  -2   19.06    1.88
  -8   2  -2   17.56    1.22
   8   2   2   16.53    1.72
   8  -2  -2   17.27    2.21
   8   2  -2   18.45    1.99
   8   2   2   18.89    2.56
  -8  -2  -2   20.85    1.89
  -8   2   2   18.06    2.06
  -8   2  -2   19.59    1.75
  -8   3   2   21.31    2.34
  -8   3  -2   19.66    1.72
   8  -3   2   21.76    2.63
   8  -3  -2   17.13    2.13
   8   3   2   18.16    2.57
   8  -3   2   23.12    2.31
   8  -3  -2   19.36    2.44
  -8   3  -2   18.24    1.90
   8  -3  -2   18.85    2.35
   8   3   2   21.02    2.19
   8   3  -2   21.35    2.38
   8  -3   2   19.54    1.89
   8  -3   2   19.03    2.46
   8  -3   2   19.95    2.18
  -8  -3   2   19.13    2.29
   8  -3   2   21.44    2.25
  -8  -3  -2   21.08    2.02
  -8   3  -2   19.94    1.42
   8  -3   2   20.30    2.15
   8   3   2   22.70    1.99
   8   3   2   21.35    2.21
  -8   3   2   22.65    2.25
   8   3  -2   16.91    2.13
  -8  -3  -2   19.20    1.90
  -8   3   2   23.65    2.53
  -8  -3   2   25.96    2.66
  -8   4   2  493.92   11.94
  -8   4  -2  478.77    9.55
   8  -4   2  493.88   11.57
   8  -4  -2  475.10   12.02
   8  -4   2  478.03   10.47
   8   4   2  504.46   11.40
   8   4  -2  485.43   12.13
   8  -4  -2  489.87   12.15
   8  -4   2  493.33   11.56
   8   4   2  503.00   11.41
   8   4  -2  486.33   12.07
  -8   4   2  499.99   12.29
   8  -4   2  505.06   11.69
   8  -4   2  489.49   11.51
  -8  -4   2  500.76   12.24
  -8  -4  -2  484.75   10.63
  -8   4   2  497.11   11.90
   8  -4   2  484.45   12.44
  -8   4   2  500.25   11.50
  -8   4  -2  490.79    8.72
  -8   4  -2  489.35   10.56
   8   4   2  468.41   13.08
   8  -4   2  484.06   12.51
   8  -4  -2  493.40   11.79
  -8  -4  -2  484.91   10.48
  -8  -4   2  511.69   12.32
  -8  -5  -2    6.67    1.27
  -8  -5   2    4.38    1.47
  -8   5  -2    5.56    0.99
  -8   5   2    5.95    1.35
  -8   5   2    3.99    1.12
  -8   5   2    6.06    1.52
   8  -5   2    6.29    1.40
   8  -5  -2    5.17    1.23
   8  -5   2    3.77    1.06
   8  -5   2    4.54    1.02
   8  -5   2    4.79    1.33
   8   5   2    4.74    1.12
   8   5  -2    7.04    1.40
   8  -5   2    4.08    1.18
   8   5   2    5.84    1.28
   8  -5  -2    6.05    1.51
   8   5  -2    6.87    1.37
  -8  -5  -2    6.47    1.25
  -8  -5   2    4.92    1.44
  -8   5  -2    5.51    1.25
   8  -5   2    3.56    0.97
   8  -5   2    5.76    1.54
   8   5   2    4.04    1.64
  -8   5  -2    5.57    0.93
  -8   5   2    3.17    1.20
  -8   6   2  286.55    8.84
   8  -6   2  296.95    8.77
   8   6   2  285.22    8.40
   8   6  -2  315.52    9.47
  -8  -6   2  300.07    9.14
   8   6  -2  310.73    9.39
   8  -6  -2  316.44    9.55
   8  -6   2  305.87    8.84
   8  -6   2  317.25    9.41
   8   6   2  288.39    8.47
   8  -6   2  291.58    7.90
  -8   6   2  291.60    9.00
  -8   6   2  293.67    9.17
   8  -6   2  299.80    8.78
  -8  -6  -2  314.90    8.23
   8  -6   2  287.97    8.66
  -8   6   2  302.94    8.86
  -8   6  -2  307.85    7.08
   8   6   2  265.57    9.68
   8  -6   2  297.83    9.19
   8  -6  -2  310.78    9.46
   8  -6   2  297.03    7.20
  -8  -6  -2  301.56    8.13
  -8  -6   2  289.34    9.13
  -8   7   2   55.97    3.77
   8  -7   2   58.18    3.77
   8   7   2   59.65    3.71
   8  -7   2   60.84    3.86
   8   7  -2   63.74    4.15
  -8  -7  -2   63.80    3.92
  -8  -7  -2   67.42    4.04
  -8   7   2   63.00    4.14
   8   7   2   62.02    3.77
   8   7  -2   69.27    4.30
   8  -7   2   65.49    4.09
   8  -7  -2   62.23    4.12
   8  -7   2   62.55    3.89
  -8  -7  -2   65.20    3.62
  -8  -7   2   59.93    4.03
   8  -7   2   58.14    3.85
  -8   7   2   56.59    3.89
   8  -7  -2   66.88    4.25
   8  -7   2   57.85    3.77
  -8   7   2   62.90    4.00
   8   7   2   65.32    4.73
  -8   7  -2   63.13    3.13
   8  -7   2   66.97    3.18
  -8  -7  -2   66.48    3.70
  -8  -7   2   63.47    4.15
  -8   8   2  173.05    7.01
   8  -8  -2  184.28    7.20
   8   8   2  166.12    6.36
   8   8  -2  179.70    7.04
  -8   8   2  176.25    6.87
   8  -8   2  177.60    6.70
  -8  -8  -2  175.99    6.14
   8   8   2  176.62    6.56
   8   8  -2  183.83    7.11
  -8  -8  -2  174.42    6.60
   8  -8   2  175.15    5.33
  -8  -8  -2  169.32    6.51
  -8   8   2  174.56    6.99
   8   8   2  183.76    7.87
  -8   8   2  166.46    6.64
  -8   8  -2  168.26    5.45
   8  -8   2  174.81    6.66
   8  -8  -2  171.31    7.00
  -8  -8  -2  164.71    6.11
  -8  -8   2  170.12    6.94
  -8  -8   2  171.98    6.93
  -8  -9  -2   14.08    1.81
  -8  -9   2   15.20    2.19
   8  -9   2   14.44    1.95
  -8   9   2   13.03    2.07
   8   9   2   15.51    2.01
   8  -9   2   14.42    1.93
   8   9   2   15.92    2.49
   8   9  -2   13.73    2.05
   8   9   2   10.59    1.72
   8  -9  -2   12.40    2.07
  -8   9   2   17.46    2.23
  -8  -9  -2   14.11    1.85
  -8  -9   2   16.85    2.26
  -8   9  -2   13.59    1.63
   8   9  -2   11.63    1.81
   8  -9   2   13.99    1.51
   8  10   2  325.34    9.41
  -8 -10   2  323.96    8.48
  -8  10   2  314.29    9.92
   8 -10   2  319.60    8.91
  -8  10   2  324.18    9.84
  -8  10  -2  306.64    8.29
   8  10   2  328.72    9.46
   8  10  -2  314.19    9.91
  -8 -10   2  325.56    9.97
  -8 -10  -2  323.99    8.97
   8  10   2  323.99   10.73
   8  10  -2  333.84   10.12
   8 -10   2  316.54    8.95
  -8 -10  -2  326.47    9.23
   8 -10   2  330.71    7.77
  -8 -10   2  310.25    9.96
  -8 -11   2   34.19    2.66
   8  11   2   35.86    3.08
   8 -11   2   39.99    2.98
   8  11   2   39.50    3.27
  -8 -11  -2   37.91    2.95
  -8  11  -2   37.07    3.29
   8  11   2   35.26    3.57
   8 -11   2   34.30    2.75
  -8  11   2   36.96    3.31
  -8  11  -2   36.39    2.81
  -8 -11  -2   36.29    3.09
  -8 -11   2   36.22    3.28
  -8 -12  -2    7.92    1.74
   8  12   2    9.46    1.72
  -8 -12   2    9.13    1.41
   8  12   2    8.42    1.79
   8  12   2    8.46    1.84
  -8 -12  -2    6.89    1.33
  -8  12   2   10.32    2.00
  -8 -12   2    9.84    1.83
  -8  12  -2    7.33    1.42
   8 -12   2    9.26    1.40
  -8 -13  -2   16.67    2.26
  -8 -13   2   14.47    2.15
  -8 -13  -2   16.06    2.12
  -8  13   2   16.76    2.46
  -8  13  -2   12.87    1.99
  -8 -14   2  344.43   11.05
  -8  14   2  360.55   11.29
  -8  14  -2  351.63   10.16
  -8 -14  -2  358.20   10.32
  -8 -15  -2   13.75    2.03
  -8  15   2   11.56    2.11
  -8  15  -2   17.77    2.42
  -8 -16  -2   37.38    3.41
  -8  16  -2   48.08    3.91
  -8 -17  -2   23.47    2.78
  -8  17  -2   24.29    2.86
  -9   0  -2    0.67    0.78
  -9   0   2    0.03    0.87
   9   0   2    0.81    1.20
   9   0   2   -2.01    1.20
  -9   0   2    1.06    1.03
   9   0  -2    0.11    0.99
   9   0   2   -2.65    1.37
   9   0  -2    0.09    1.00
  -9   0  -2    0.16    0.73
  -9   0   2    1.50    0.94
   9   1   2   46.54    3.46
   9   1   2   46.30    3.41
   9   1  -2   55.02    4.07
   9  -1   2   42.41    3.39
   9  -1  -2   52.67    3.97
  -9   1  -2   52.25    3.37
  -9   1   2   47.22    3.79
  -9  -1  -2   54.47    3.45
   9  -1   2   43.38    3.38
   9  -1  -2   55.58    4.05
  -9  -1   2   48.34    3.82
   9   1  -2   53.04    4.00
  -9   1   2   44.85    3.26
   9  -1   2   38.09    3.70
   9   1   2   46.54    4.11
  -9  -1  -2   54.38    3.27
  -9  -1   2   45.61    3.63
  -9   1  -2   51.76    3.10
  -9   1   2   43.19    3.56
  -9  -2   2  392.61   11.31
   9   2   2  399.30   10.68
  -9  -2  -2  399.16   10.06
   9   2   2  401.33   10.72
   9   2  -2  396.78   11.44
   9  -2   2  404.86   10.89
   9  -2  -2  392.28   11.43
   9   2  -2  410.38   11.62
   9  -2  -2  392.83   11.44
  -9   2  -2  392.00    9.84
   9  -2   2  411.35   10.95
   9   2   2  399.79   12.52
   9  -2   2  404.09   12.09
  -9   2   2  394.93   10.27
  -9  -2  -2  384.63    9.50
  -9   2   2  399.36   11.44
  -9  -2   2  389.26   11.14
  -9   2   2  396.42   11.14
  -9   2  -2  378.99    9.06
  -9   3   2   10.25    1.81
   9  -3  -2   11.53    1.95
   9   3   2   10.04    1.65
  -9  -3   2    8.81    1.69
   9   3  -2    9.94    1.85
  -9   3  -2   11.09    1.45
   9  -3  -2    7.84    1.76
   9  -3   2   10.40    1.77
   9   3   2   10.62    1.79
   9   3  -2   12.06    1.94
   9  -3   2    9.89    1.64
  -9  -3   2    8.26    1.69
  -9   3  -2    9.53    1.46
  -9  -3  -2   11.66    1.73
  -9   3   2   10.39    1.92
   9   3   2   12.70    2.40
  -9   3  -2   11.22    1.13
  -9   3   2    8.55    1.61
  -9  -3  -2   12.39    1.69
   9  -3   2   10.40    2.18
  -9   4  -2  106.25    4.33
   9   4   2  107.15    5.29
   9   4  -2  109.36    5.73
   9  -4  -2  103.09    5.60
   9  -4   2  105.81    5.31
   9   4   2  110.76    5.36
  -9   4   2  103.97    5.42
   9   4  -2  105.50    5.60
   9  -4   2  108.80    5.97
   9  -4  -2  102.83    5.60
   9  -4   2  110.18    5.42
  -9   4   2  102.90    5.38
  -9   4   2  108.52    5.70
  -9  -4   2  103.94    5.52
  -9   4  -2  105.53    3.60
  -9   4   2  106.87    5.12
  -9  -4  -2  104.08    4.86
  -9   4  -2  112.79    4.94
   9   4   2  101.76    6.16
  -9  -4  -2  102.00    4.69
  -9  -4   2  104.67    5.59
  -9   5   2   33.05    3.04
  -9   5  -2   28.73    2.20
   9  -5   2   29.63    3.19
   9   5   2   31.85    2.89
   9   5  -2   32.36    3.16
   9   5   2   37.17    3.74
  -9   5   2   33.19    3.11
   9  -5  -2   29.29    3.05
   9  -5   2   31.99    2.97
   9   5   2   30.88    2.85
   9  -5   2   26.84    2.77
   9   5  -2   30.43    3.10
  -9  -5   2   34.60    3.23
  -9  -5  -2   25.37    2.45
   9  -5  -2   28.14    2.95
  -9   5   2   33.35    3.20
  -9   5  -2   32.16    2.68
  -9   5   2   34.21    2.96
  -9   5  -2   30.49    2.03
  -9  -5  -2   26.04    2.41
  -9  -5   2   29.20    3.02
  -9   6   2  265.72    8.95
  -9   6   2  283.93    9.49
   9   6   2  275.39    8.76
   9   6   2  277.05    8.80
   9  -6   2  285.46    9.13
  -9   6   2  289.49    8.96
  -9  -6  -2  282.45    8.32
   9  -6   2  276.48    9.02
  -9   6   2  278.50    9.30
   9  -6   2  273.41    9.40
  -9  -6   2  276.63    9.33
  -9   6  -2  268.14    6.76
  -9  -6  -2  273.75    8.22
  -9  -6   2  271.18    9.27
  -9  -7  -2    0.82    1.01
  -9   7   2   -0.80    1.08
  -9   7   2    1.17    1.19
   9  -7   2    1.41    1.33
   9   7   2    0.18    0.91
   9  -7   2   -1.25    0.95
  -9  -7  -2    0.75    0.88
   9  -7   2    0.10    0.99
  -9   7   2    1.05    1.13
   9   7   2    0.53    0.97
  -9  -7   2    1.27    1.21
  -9   7   2    0.07    0.82
  -9   7  -2    1.38    0.71
  -9   8   2  247.19    8.73
   9   8   2  253.35    8.48
  -9   8   2  262.46    8.75
  -9   8  -2  262.21    7.12
   9  -8   2  261.83    8.95
   9   8   2  252.58    8.48
   9  -8   2  265.89    8.92
  -9  -8  -2  254.15    8.02
  -9  -8   2  256.48    9.04
   9  -8   2  259.93    8.85
  -9  -8  -2  253.87    8.11
  -9   8   2  248.33    9.00
   9   9   2   76.77    4.56
   9  -9   2   67.78    4.35
   9   9   2   80.61    4.68
  -9  -9  -2   72.30    4.19
  -9  -9   2   71.14    4.70
  -9   9   2   73.97    4.59
  -9   9  -2   73.38    3.79
  -9  -9  -2   65.51    4.15
   9 -10   2   50.57    3.71
  -9 -10  -2   48.27    3.64
  -9 -10   2   58.36    4.34
  -9  10   2   52.54    3.96
  -9  10  -2   56.49    3.45
  -9 -10  -2   60.28    3.89
  -9 -11  -2   15.05    2.15
  -9  11  -2    9.72    1.60
   9 -11   2   10.79    1.78
  -9 -11  -2   11.21    1.79
  -9 -11   2   13.26    2.26
  -9  11   2    8.38    1.75
  -9 -12  -2  340.18   10.07
  -9 -12   2  342.74   11.14
  -9  12   2  328.41   10.70
  -9  12  -2  366.59    9.86
  -9  13   2   18.64    2.61
  -9 -13  -2   18.74    2.37
  -9  13  -2   14.15    1.98
  -9  14  -2    5.97    1.52
  -9 -14  -2    5.23    1.43
  -9 -15  -2   15.16    2.31
  -9  15  -2   11.92    2.01
  -9  16  -2  210.25    8.29
  10   0   2  329.81   10.28
  10   0   2  322.49   10.15
 -10   0   2  328.57   10.86
 -10   0  -2  309.99    9.25
 -10   0  -2  302.22    8.65
  10   1   2   30.34    3.05
  10  -1   2   24.11    2.74
  10   1   2   26.31    2.94
 -10  -1   2   26.27    3.03
 -10  -1  -2   27.98    2.71
 -10   1  -2   25.16    2.51
  10  -1   2   25.89    2.81
 -10   1   2   26.90    3.10
 -10   1   2   26.50    2.73
 -10  -1  -2   24.70    2.37
 -10   1  -2   25.71    2.38
 -10   2  -2   18.63    2.00
  10   2   2   18.43    2.41
 -10  -2  -2   16.23    2.11
  10  -2   2   17.77    2.41
  10   2   2   15.29    2.21
 -10  -2   2   21.28    2.76
 -10   2   2   18.02    2.62
 -10   2  -2   20.64    2.29
 -10   2   2   20.14    2.30
  10  -2   2   19.95    2.52
 -10  -2  -2   20.65    2.22
 -10   3  -2   51.22    3.58
  10   3   2   48.54    3.80
 -10  -3  -2   55.31    3.77
  10   3   2   44.86    3.70
 -10  -3   2   43.44    3.85
 -10   3   2   51.51    4.27
 -10   3   2   46.97    3.54
 -10  -3  -2   53.50    3.60
 -10   4  -2  320.54    9.34
 -10  -4   2  316.33   10.58
 -10  -4  -2  319.39    9.50
 -10   4   2  322.25   10.76
 -10   4   2  323.28    9.66
 -10  -4  -2  314.87    9.15
 -10  -5  -2    1.64    1.16
 -10  -5   2    0.32    0.96
 -10   5   2   -0.20    1.14
 -10   5   2    0.16    0.89
 -10  -5  -2   -0.09    0.87
 -10   6   2  141.69    6.36
 -10  -6  -2  135.83    6.00
 -10   6   2  140.99    6.98
 -10  -6   2  149.08    7.11
 -10  -6  -2  133.56    5.92
 -10  -7  -2   31.25    2.93
 -10  -7   2   32.41    3.41
 -10   7   2   34.65    3.20
 -10   7   2   33.85    3.45
 -10  -7  -2   31.27    2.91
 -10   8   2   77.86    5.21
 -10  -8   2   77.70    5.23
 -10  -8  -2   81.37    4.75
 -10   8   2   76.78    4.85
 -10  -8  -2   76.63    4.60
 -10  -9  -2    5.72    1.44
 -10   9   2    7.50    1.85
 -10 -10  -2  235.10    8.31
 -10  10   2  234.09    8.87
 -10 -11  -2   36.75    3.33
 -10  11   2   43.37    3.76
 -10 -12  -2    5.10    1.53
 -10 -13  -2   17.03    2.48
 -11   0  -2   -1.13    1.16
 -11  -1  -2   29.80    3.00
 -11   1  -2   29.86    2.93
 -11  -2  -2  270.40    9.12
 -11   2  -2  256.34    8.77
 -11   2   2  267.63    8.90
 -11  -3  -2    5.98    1.42
 -11   3  -2    3.25    1.04
 -11   3   2    5.42    1.39
 -11   4  -2   56.70    4.05
 -11  -4  -2   59.74    4.18
 -11   4   2   51.88    3.86
 -11  -5  -2   62.55    4.33
 -11   5   2   66.76    4.49
 -11  -6  -2  130.80    6.28
 -11   6   2  132.83    6.39
 -11  -7  -2   -0.95    1.03
 -11   7   2    1.21    0.89
 -11  -8  -2  164.22    7.17
 -11   8   2  155.27    7.06
 -11  -9  -2   31.16    3.22
   0   0  -3    1.33    0.44
   0   0   3    1.59    0.38
   0   0   3    0.99    0.31
   0   0  -3    0.90    0.34
   0   0  -3    0.38    0.26
   0   0   3    0.54    0.26
   0   0  -3    1.39    0.55
   0  -1   3 1374.07   16.79
   0   1   3 1379.98   16.93
   0  -1  -3 1407.93   17.96
   0  -1  -3 1437.72   18.06
   0  -1  -3 1427.37   16.97
   0   1   3 1408.57   16.33
   0   1  -3 1435.97   15.36
   0  -1   3 1351.61   15.48
   0   1  -3 1434.48   16.39
   0  -1   3 1357.28   16.37
   0   1   3 1423.02   18.00
   0   1  -3 1442.72   18.09
   0  -1   3 1346.36   15.48
   0   1  -3 1418.63   16.24
   0  -1  -3 1439.98   16.52
   0   1  -3 1439.69   16.97
   0   1  -3 1431.20   15.36
   0  -1  -3 1444.81   17.42
   0   2  -3    0.15    0.18
   0   2  -3    0.30    0.31
   0  -2   3    0.09    0.29
   0  -2  -3   -0.02    0.38
   0  -2  -3    0.30    0.16
   0  -2  -3    0.65    0.44
   0   2  -3   -0.03    0.18
   0   2  -3    0.32    0.23
   0  -2   3    0.47    0.23
   0  -2  -3    0.28    0.50
   0   2   3    0.09    0.44
   0  -2   3    0.26    0.31
   0  -2  -3    0.67    0.33
   0  -2   3    0.36    0.25
   0   2   3    0.80    0.42
   0   2  -3    1.25    0.56
   0  -2  -3    0.40    0.14
   0  -2  -3   -0.12    0.48
   0  -3  -3  617.00    9.36
   0  -3   3  627.68    8.10
   0  -3  -3  613.61    7.59
   0   3  -3  607.29    7.95
   0  -3   3  628.80    8.10
   0  -3   3  641.27    8.61
   0  -3  -3  610.84    8.80
   0  -3  -3  622.10    9.60
   0  -3  -3  612.21    9.77
   0  -3  -3  615.99    9.21
   0  -3  -3  611.99    7.59
   0   3  -3  609.70    7.96
   0   3  -3  618.23    7.48
   0   3   3  620.68    9.76
   0  -3   3  609.48    8.65
   0   3   3  617.11    9.22
   0  -4  -3   -0.15    0.25
   0   4  -3    0.37    0.33
   0  -4   3    0.76    0.39
   0  -4  -3   -0.22    0.40
   0  -4  -3   -0.21    0.44
   0  -4   3    0.25    0.26
   0  -4  -3    0.07    0.35
   0  -4  -3    0.01    0.25
   0   4  -3    0.46    0.31
   0  -4  -3    0.48    0.48
   0   4   3   -0.19    0.42
   0   4  -3    0.37    0.13
   0  -4   3    0.52    0.30
   0   4   3    0.77    0.54
   0   4   3    0.13    0.24
   0  -4   3   -0.05    0.36
   0  -4  -3    0.05    0.32
   0   4   3    0.24    0.23
   0  -5   3  371.76    6.28
   0  -5  -3  374.87    6.91
   0   5  -3  357.87    4.55
   0   5   3  374.38    5.75
   0  -5   3  361.99    6.00
   0   5  -3  374.01    5.95
   0  -5  -3  374.65    5.64
   0  -5   3  359.37    6.00
   0   5  -3  361.65    4.58
   0  -5  -3  374.09    6.46
   0  -5  -3  373.33    6.82
   0   5   3  370.96    5.73
   0   5   3  383.07    7.35
   0  -5  -3  368.70    7.23
   0  -5  -3  375.86    6.89
   0   5  -3  372.11    5.94
   0  -5  -3  367.14    5.61
   0  -5   3  371.04    6.21
   0   5   3  368.50    6.91
   0  -6  -3    0.22    0.33
   0  -6   3    0.10    0.35
   0  -6  -3    0.10    0.47
   0   6  -3    0.01    0.11
   0  -6   3    0.17    0.37
   0   6   3    0.21    0.32
   0   6  -3    0.29    0.38
   0  -6  -3   -0.03    0.31
   0  -6  -3    0.23    0.39
   0   6   3   -0.63    0.59
   0  -6   3    0.56    0.42
   0  -6   3    0.43    0.45
   0  -6  -3    0.09    0.41
   0   6   3    0.87    0.61
   0  -6  -3    0.92    0.68
   0   6   3   -0.08    0.32
   0   6  -3    0.25    0.35
   0  -7   3 1034.26   14.01
   0   7   3 1034.38   13.63
   0   7  -3 1043.11   13.96
   0  -7  -3 1037.84   13.56
   0  -7   3 1026.30   14.00
   0   7  -3 1047.24   13.96
   0  -7   3 1010.35   14.14
   0  -7  -3 1026.88   14.42
   0   7   3 1044.40   15.76
   0   7   3 1040.62   13.64
   0  -7  -3 1033.47   14.31
   0   7  -3 1024.04   11.72
   0  -7  -3 1038.08   15.04
   0  -7  -3 1027.87   15.32
   0  -7  -3 1048.45   14.32
   0  -7   3 1006.50   14.14
   0   7   3 1016.68   14.96
   0  -7  -3 1032.16   13.54
   0  -8  -3    0.47    0.42
   0  -8  -3    1.02    0.55
   0  -8   3    0.08    0.38
   0   8   3    0.95    0.54
   0  -8  -3    0.14    0.55
   0   8  -3   -0.08    0.17
   0   8  -3    0.31    0.44
   0  -8  -3    1.67    0.64
   0  -8  -3    0.75    0.45
   0   8   3    0.81    0.55
   0  -8   3   -0.15    0.37
   0   8   3    1.03    0.52
   0   8   3    1.55    0.89
   0   8  -3    0.40    0.50
   0  -9   3   80.24    3.03
   0  -9  -3   89.35    2.95
   0   9   3   83.36    2.92
   0   9  -3   87.05    3.10
   0  -9  -3   87.03    2.93
   0  -9   3   81.86    3.07
   0  -9  -3   88.55    3.50
   0  -9  -3   85.13    2.88
   0   9   3   81.96    2.90
   0   9   3   81.88    3.74
   0   9  -3   85.75    1.96
   0   9  -3   86.53    3.10
   0  -9  -3   82.01    2.85
   0   9   3   79.56    3.32
   0 -10  -3    0.21    0.49
   0 -10   3    0.56    0.52
   0 -10  -3   -0.16    0.58
   0  10   3    0.08    0.44
   0 -10  -3   -0.22    0.64
   0  10  -3    0.09    0.50
   0 -10  -3   -0.02    0.49
   0  10  -3   -0.18    0.24
   0 -10  -3   -0.55    0.55
   0  10   3    0.49    0.66
   0 -10   3    0.44    0.49
   0  10   3    0.28    0.77
   0  10   3   -0.08    0.51
   0  10  -3    0.16    0.50
   0 -11   3  694.19   11.59
   0  11   3  696.01   11.25
   0 -11  -3  625.67   10.86
   0 -11  -3  636.32   10.26
   0 -11   3  703.90   11.66
   0  11  -3  648.33   11.21
   0  11   3  689.80   13.21
   0  11   3  700.15   11.28
   0 -11  -3  638.64   11.93
   0 -11  -3  630.54   10.26
   0  11  -3  645.32   11.20
   0  11  -3  643.31    8.94
   0  11   3  692.06   12.27
   0 -11  -3  623.36   10.86
   0 -12  -3   -0.51    0.53
   0 -12   3    0.97    0.74
   0 -12  -3    0.85    0.80
   0  12   3    0.81    0.62
   0  12  -3    0.09    0.54
   0 -12  -3   -0.07    0.55
   0  12  -3    0.14    0.31
   0 -12  -3   -0.92    0.58
   0 -12  -3    0.10    0.50
   0  12   3    0.22    0.70
   0 -12   3    0.25    0.52
   0  12  -3   -0.06    0.45
   0  12   3    1.85    0.75
   0  12   3   -0.52    1.06
   0  12  -3    0.23    0.58
   0 -13   3  468.81    9.78
   0  13   3  472.52    9.49
   0  13  -3  476.83    9.76
   0 -13  -3  454.00    9.31
   0 -13   3  469.78    9.79
   0  13   3  487.69    9.60
   0 -13  -3  475.87    8.33
   0 -13  -3  470.36   10.32
   0  13   3  494.01   11.45
   0  13  -3  477.43    9.78
   0  13  -3  466.87    7.97
   0  13  -3  480.17    7.54
   0 -13  -3  482.98    8.38
   0  13   3  465.47   10.21
   0 -13  -3  472.92    9.44
   0  14  -3   -0.18    0.41
   0 -14  -3    0.80    0.72
   0 -14   3   -0.17    0.63
   0 -14  -3   -0.38    0.71
   0  14   3   -0.56    0.72
   0  14  -3    0.46    0.81
   0 -14  -3    0.86    0.69
   0  14  -3   -0.02    0.39
   0 -14  -3    0.26    0.59
   0  14   3    0.52    0.76
   0 -14   3   -0.29    0.59
   0  14   3   -0.58    0.72
   0  14   3   -0.70    1.03
   0  14  -3   -0.49    0.82
   0 -15   3  110.57    4.64
   0  15   3  108.49    4.45
   0  15  -3  118.69    4.77
   0 -15  -3  117.95    4.62
   0 -15   3  108.28    4.60
   0  15  -3  122.98    3.36
   0 -15  -3  118.02    5.01
   0  15   3  102.99    4.35
   0  15   3  116.66    5.53
   0  15  -3  110.90    4.63
   0  15  -3  112.48    3.37
   0  15   3  107.74    4.80
   0 -15  -3  114.48    4.54
   0 -16   3    0.24    0.66
   0  16   3    2.73    1.03
   0  16  -3   -0.05    0.68
   0  16  -3    0.25    0.39
   0 -16  -3   -0.03    0.61
   0 -16  -3   -0.39    0.59
   0  16  -3   -0.18    0.41
   0  16   3    0.13    0.80
   0 -16   3    1.79    0.89
   0  16  -3    0.43    0.78
   0  16   3    0.22    0.67
   0  16   3    1.55    1.31
   0  17   3  697.58   13.73
   0  17  -3  686.33   13.97
   0  17   3  718.79   16.05
   0 -17  -3  675.27   13.55
   0  17  -3  689.36    9.96
   0  17  -3  673.83    9.93
   0  17   3  688.62   13.69
   0  17  -3  674.54   13.86
   0  17  -3  685.85   11.13
   0  17   3  713.34   14.54
   0 -17  -3  675.66   13.55
   0  18   3    0.62    0.96
   0  18  -3    0.44    0.73
   0  18  -3    0.10    0.60
   0  18   3    0.56    0.83
   0  18   3   -0.58    0.76
   0  18   3    0.37    1.00
   0  18  -3    0.70    0.93
   0  19   3    9.00    1.65
   0  19  -3   10.83    1.71
   0  19   3    9.96    1.69
   0  19   3    9.29    1.97
   0  19  -3   10.31    1.76
   0  20   3   -0.60    1.15
   0  21   3  380.48   12.58
   0  22   3    0.37    1.54
   1   0  -3   -0.10    0.42
  -1   0  -3    0.53    0.30
  -1   0   3    0.45    0.47
   1   0  -3    0.61    0.30
  -1   0   3    0.59    0.33
   1   0  -3    0.46    0.29
  -1   0  -3    1.39    0.68
  -1   0   3    0.17    0.38
   1   0  -3   -0.02    0.28
   1   0  -3   -0.37    0.45
  -1   0  -3    0.54    0.40
  -1   0   3   -0.67    0.59
  -1   0  -3    0.53    0.42
   1   0  -3    0.88    0.63
  -1   0  -3    0.12    0.56
   1  -1  -3  789.99   11.59
  -1  -1  -3  804.65   10.32
  -1   1   3  788.91   11.40
  -1   1  -3  789.26   10.51
   1   1  -3  822.77   10.14
  -1  -1  -3  789.55   11.68
   1  -1  -3  783.01   10.17
   1   1  -3  822.73   10.14
  -1   1  -3  779.71   11.06
  -1  -1   3  785.41   10.19
  -1   1   3  809.14   12.10
   1   1  -3  812.12   11.04
  -1  -1  -3  778.47    9.13
   1  -1  -3  788.91   11.04
  -1  -1   3  775.17   10.95
  -1  -1  -3  779.15   11.63
   1   1  -3  812.42    9.75
  -1   1  -3  796.28   11.63
   1  -1  -3  783.90   10.17
   1  -1  -3  802.09   10.47
   1   1  -3  791.95   12.00
  -1  -1  -3  760.65   10.85
  -1  -1   3  804.44   10.24
  -1   1   3  806.86   11.07
  -1   1   3  792.89   10.43
   1  -1  -3  788.37   11.98
   1   1  -3  804.55   11.38
  -1   1  -3  788.61    9.69
  -1  -1   3  812.80    9.73
  -1  -1  -3  803.51   10.91
  -1  -1   3  765.16   11.30
  -1  -2  -3    5.64    0.85
   1  -2   3    5.49    0.38
   1  -2   3    5.41    0.41
  -1  -2   3    5.40    0.40
   1   2  -3    5.32    0.70
   1   2  -3    4.90    0.38
  -1  -2   3    6.19    0.76
  -1  -2  -3    4.45    0.80
  -1  -2  -3    5.53    0.63
  -1   2   3    6.60    0.85
  -1   2  -3    4.53    0.36
   1  -2  -3    4.96    0.54
   1  -2  -3    4.69    0.65
   1   2  -3    4.84    0.56
  -1  -2   3    4.95    0.55
  -1   2  -3    4.41    0.74
  -1   2  -3    4.48    0.50
   1  -2   3    5.07    0.35
  -1   2   3    6.11    0.70
   1  -2  -3    5.81    0.75
  -1  -2  -3    3.98    0.59
   1  -2  -3    6.72    0.87
  -1   2  -3    5.21    0.38
   1   2  -3    5.33    0.57
  -1  -2   3    6.11    0.63
   1  -2   3    6.12    0.40
   1  -2  -3    5.34    0.60
  -1  -2  -3    4.85    0.45
   1   2  -3    5.10    0.67
  -1  -2   3    6.07    0.73
   1  -2  -3    5.78    0.61
  -1   2   3    6.91    0.73
  -1   2  -3    5.29    0.73
   1   2   3    5.52    0.68
   1   2  -3    5.29    0.87
  -1   2   3    6.54    0.93
   1  -2  -3    5.77    0.58
   1  -2  -3    6.39    0.94
  -1  -2  -3    4.87    0.68
  -1   2  -3    4.64    0.40
   1   3  -3  789.96   10.42
   1   3   3  809.04   11.51
  -1  -3  -3  783.82    9.25
   1  -3  -3  769.44   10.21
  -1   3  -3  801.60    9.70
   1   3   3  799.02    9.21
   1   3  -3  788.79   11.07
   1   3   3  802.65    9.21
  -1  -3   3  803.27   10.70
  -1   3  -3  780.67   11.54
   1  -3   3  819.41    9.73
   1   3  -3  790.49   10.42
  -1  -3  -3  775.44    9.24
   1  -3   3  803.50    9.75
  -1  -3   3  808.75   11.27
   1  -3  -3  799.61   11.51
  -1  -3  -3  785.53   10.04
  -1   3   3  821.12   11.28
  -1  -3  -3  791.29   11.74
  -1  -3   3  799.69   10.70
   1   3   3  791.54   11.07
   1   3  -3  784.60   12.23
   1  -3  -3  772.39   10.21
  -1   3  -3  811.28    9.72
  -1   3   3  818.15   12.40
   1  -3  -3  774.90   11.10
   1  -3  -3  797.20   12.30
  -1  -3  -3  793.95   11.15
  -1   3   3  784.11   11.14
   1   3  -3  784.78   11.36
  -1  -3  -3  768.17   11.68
  -1  -3  -3  811.89   11.45
  -1  -3   3  791.54   11.40
   1  -3   3  821.22    9.73
   1  -3   3  775.65    9.46
   1  -3  -3  802.69   11.88
  -1  -4   3    3.77    0.68
   1  -4   3    3.70    0.40
   1  -4  -3    4.17    0.87
   1  -4  -3    3.91    0.73
   1  -4  -3    3.46    0.51
   1  -4   3    3.44    0.47
  -1  -4  -3    4.40    0.82
   1   4  -3    4.29    0.60
  -1  -4  -3    3.40    0.51
  -1  -4  -3    4.01    0.41
   1  -4  -3    4.50    0.74
  -1   4  -3    3.42    0.47
   1  -4  -3    3.14    0.49
   1   4   3    4.02    0.41
  -1   4  -3    4.57    0.81
  -1   4   3    3.10    0.66
  -1  -4   3    2.89    0.52
  -1  -4  -3    4.15    0.73
   1  -4   3    3.66    0.48
   1   4  -3    2.91    0.50
  -1  -4  -3    3.97    0.41
   1   4   3    3.99    0.68
   1   4   3    3.43    0.74
  -1  -4   3    2.72    0.54
   1  -4   3    3.28    0.45
   1  -4  -3    5.09    0.82
  -1  -4   3    3.90    0.68
   1   4  -3    3.31    0.72
  -1  -4  -3    3.74    0.72
  -1  -4  -3    2.63    0.66
  -1   4   3    4.83    0.89
  -1   4  -3    3.37    0.47
   1   4   3    4.01    0.41
   1  -5  -3 1463.92   19.21
  -1  -5  -3 1423.04   16.82
   1   5   3 1451.18   18.94
  -1  -5  -3 1405.04   18.67
   1  -5  -3 1442.62   17.48
  -1   5  -3 1470.23   17.31
  -1  -5   3 1361.55   17.90
   1  -5  -3 1446.98   17.49
   1   5   3 1477.36   16.85
   1  -5   3 1410.80   17.27
   1   5  -3 1427.14   17.80
  -1  -5  -3 1421.25   18.76
  -1  -5  -3 1424.72   16.83
  -1  -5   3 1370.41   17.90
   1  -5  -3 1418.87   18.78
  -1  -5   3 1420.26   18.47
   1  -5   3 1433.18   16.70
  -1   5  -3 1434.09   18.39
   1  -5  -3 1427.30   18.60
  -1   5   3 1444.93   19.83
  -1   5  -3 1464.08   17.31
   1   5   3 1478.80   16.84
   1  -5  -3 1423.50   19.73
  -1  -5  -3 1422.56   18.41
   1   5   3 1408.76   18.39
  -1   5   3 1420.02   18.66
  -1  -5  -3 1437.04   18.82
  -1  -5   3 1412.28   18.53
   1  -5   3 1398.70   17.25
   1   5  -3 1423.97   17.80
   1  -6   3    2.17    0.43
   1   6  -3    3.03    0.59
   1  -6   3    2.78    0.58
   1  -6  -3    3.27    0.75
  -1  -6  -3    2.95    0.50
  -1   6   3    1.98    0.48
  -1  -6  -3    2.90    0.69
   1  -6  -3    2.58    0.61
  -1  -6  -3    2.64    0.68
  -1   6  -3    3.67    0.71
  -1   6  -3    3.02    0.55
   1   6   3    2.49    0.48
   1  -6  -3    2.57    0.60
  -1  -6   3    2.08    0.56
  -1  -6   3    2.64    0.61
  -1  -6  -3    1.78    0.58
  -1   6   3    3.06    0.75
   1   6  -3    2.71    0.56
   1  -6   3    1.76    0.47
  -1  -6  -3    2.66    0.46
  -1  -6   3    2.54    0.64
   1  -6  -3    2.56    0.82
   1   6   3    2.02    0.76
  -1  -6   3    2.27    0.50
   1  -6  -3    2.11    0.64
  -1   6   3    2.24    0.53
  -1   6   3    3.02    0.92
   1   6   3    2.43    0.65
  -1   6  -3    3.40    0.56
  -1  -6  -3    2.78    0.70
   1   6   3    2.44    0.46
   1  -6  -3    3.12    0.57
  -1  -7  -3   20.82    1.22
   1   7   3   20.03    1.59
   1  -7  -3   19.66    1.59
  -1   7   3   20.26    1.38
  -1  -7   3   21.08    1.42
  -1   7  -3   21.19    1.32
   1   7   3   19.92    1.19
  -1  -7  -3   19.28    1.46
   1  -7  -3   19.36    1.30
   1   7   3   21.24    1.23
   1   7  -3   19.84    1.37
   1  -7   3   23.24    1.38
  -1  -7  -3   19.70    1.19
  -1  -7   3   21.61    1.43
  -1  -7  -3   21.37    1.49
  -1  -7   3   26.47    1.71
   1  -7  -3   19.55    1.30
  -1   7  -3   21.68    1.12
   1  -7  -3   21.69    1.61
  -1   7  -3   22.03    1.42
  -1   7   3   19.99    1.38
   1  -7  -3   22.32    1.62
  -1   7   3   21.40    1.90
  -1   7  -3   21.14    1.33
   1  -7  -3   20.43    1.76
   1  -7  -3   20.38    1.32
   1   7   3   22.16    1.62
  -1  -7  -3   19.25    1.51
  -1   7   3   21.37    1.61
  -1  -7   3   20.28    1.49
   1   7  -3   21.45    1.42
   1  -7   3   21.44    1.34
  -1  -8   3    2.38    0.76
   1   8  -3    1.52    0.51
   1  -8   3    2.93    0.64
   1  -8  -3    2.25    0.58
   1  -8  -3    2.09    0.66
  -1  -8  -3    3.87    0.69
  -1   8  -3    2.98    0.52
  -1   8   3    2.65    0.67
   1  -8  -3    2.61    0.68
  -1  -8   3    2.39    0.64
  -1   8  -3    2.99    0.72
  -1  -8  -3    2.28    0.66
   1   8   3    2.76    0.59
  -1   8  -3    1.79    0.57
   1  -8  -3    3.05    0.65
  -1  -8  -3    4.07    1.03
  -1  -8   3    2.18    0.63
  -1   8   3    1.73    0.65
   1   8  -3    2.45    0.63
   1  -8   3    2.55    0.68
  -1  -8  -3    3.19    0.66
  -1   8   3    1.48    0.53
   1  -8  -3    2.76    0.73
   1   8   3    2.50    0.78
  -1  -8   3    2.59    0.75
  -1   8   3    3.05    1.05
  -1  -8  -3    3.87    0.84
   1  -8  -3    2.29    0.82
  -1   8  -3    2.96    0.66
   1   8   3    2.98    0.67
   1   8   3    2.03    0.73
   1  -8  -3    1.48    0.48
   1   9   3  731.73   12.42
  -1  -9  -3  750.14   11.23
   1  -9  -3  752.32   12.73
  -1  -9   3  724.96   11.83
  -1   9   3  753.92   11.64
  -1   9  -3  754.84   11.60
   1   9   3  752.90   11.28
   1  -9  -3  742.35   11.47
   1   9  -3  750.95   11.83
   1  -9   3  737.15   11.60
  -1  -9  -3  732.87   11.17
  -1  -9   3  733.32   11.88
  -1  -9  -3  754.96   11.60
  -1  -9   3  745.34   12.15
   1  -9  -3  746.36   12.33
  -1   9  -3  756.18   10.17
  -1   9   3  741.59   13.65
   1  -9  -3  752.31   11.14
   1  -9  -3  738.99   12.44
  -1   9  -3  747.74   11.00
   1   9   3  762.72   12.94
  -1   9  -3  743.17   11.54
   1   9   3  754.93   11.28
  -1  -9  -3  749.14   12.51
  -1  -9  -3  742.11   11.56
   1  -9  -3  738.35   11.46
  -1   9   3  752.42   11.64
  -1   9   3  730.47   12.44
  -1  -9   3  747.31   12.25
   1   9  -3  750.22   11.83
   1  -9   3  733.10   11.57
   1  10   3   15.35    1.56
  -1 -10  -3   15.97    1.34
  -1 -10  -3   14.93    1.31
   1  10  -3   15.78    0.73
  -1 -10   3   15.93    1.48
  -1  10   3   14.73    1.35
  -1  10  -3   15.89    1.44
   1  10   3   16.92    1.38
   1 -10  -3   16.20    1.39
   1  10  -3   15.04    1.40
   1 -10   3   16.19    1.48
  -1 -10  -3   15.72    1.35
  -1 -10   3   13.29    1.34
  -1 -10   3   13.41    1.43
  -1 -10  -3   16.63    1.39
  -1  10  -3   13.07    1.11
   1 -10  -3   15.75    1.57
   1 -10  -3   16.58    1.65
  -1  10   3   16.51    1.39
  -1  10  -3   15.75    1.06
   1  10   3   15.86    1.33
  -1  10  -3   15.29    1.21
  -1  10  -3   14.72    1.38
   1 -10  -3   17.23    1.30
   1 -10  -3   14.77    1.18
  -1 -10  -3   15.53    1.61
  -1  10   3   20.31    2.13
   1 -10  -3   17.73    1.45
   1  10   3   16.92    1.80
  -1  10   3   13.85    1.45
   1  10  -3   16.30    1.51
   1 -10   3   13.53    1.36
  -1 -11  -3  157.93    4.50
  -1 -11   3  155.59    4.92
  -1  11   3  152.63    4.61
  -1  11  -3  156.47    4.68
   1  11   3  155.77    4.49
   1  11  -3  159.07    4.80
   1 -11  -3  149.09    4.52
   1 -11   3  156.62    4.70
  -1 -11  -3  156.79    4.50
  -1 -11   3  153.66    4.81
   1  11  -3  151.86    4.71
  -1  11  -3  152.64    3.89
   1 -11  -3  144.94    4.90
   1 -11  -3  148.96    3.94
   1 -11  -3  156.24    5.13
  -1  11   3  154.81    4.64
   1  11  -3  153.69    2.97
  -1  11  -3  150.94    3.66
  -1  11   3  161.36    5.85
  -1  11  -3  156.02    4.68
   1  11   3  152.15    5.47
   1  11   3  159.82    4.53
  -1 -11  -3  148.43    5.04
  -1 -11  -3  146.74    4.26
  -1  11  -3  156.75    3.92
  -1 -11   3  147.12    4.71
   1 -11  -3  152.28    4.56
  -1  11   3  149.49    5.03
   1 -11  -3  155.24    3.98
  -1 -11  -3  152.63    4.37
   1 -11   3  155.57    4.69
   1  11   3  153.39    5.09
   1 -12  -3    5.34    1.02
  -1  12  -3    4.68    0.71
  -1  12  -3    3.10    0.64
   1 -12  -3    3.23    0.68
   1 -12   3    3.69    0.89
  -1 -12  -3    3.90    0.83
   1 -12  -3    3.82    0.70
   1 -12  -3    2.95    0.88
  -1  12   3    5.95    1.04
  -1 -12   3    4.57    0.96
  -1  12  -3    4.56    0.73
  -1  12  -3    5.62    1.06
   1  12   3    5.27    0.99
  -1 -12  -3    3.45    0.95
   1  12  -3    4.86    0.97
   1  12  -3    3.58    0.49
   1 -12  -3    4.17    0.93
  -1  12   3    5.96    1.16
   1  12   3    3.40    1.19
   1 -12   3    5.82    1.09
  -1 -12  -3    5.20    1.03
  -1 -12  -3    5.24    0.95
  -1 -12   3    5.55    1.06
   1  12   3    6.32    1.22
   1 -12  -3    4.97    1.01
  -1 -12   3    3.49    0.93
  -1  12   3    5.05    0.97
  -1  12   3    4.70    1.34
  -1  12  -3    4.29    0.97
   1  12   3    4.09    0.87
   1  12  -3    4.20    0.90
  -1 -13  -3  332.24    7.60
   1  13  -3  335.94    5.65
  -1 -13  -3  346.58    7.21
  -1 -13   3  333.62    8.04
  -1  13   3  332.44    7.83
  -1  13  -3  321.77    7.77
   1  13   3  335.82    7.65
   1 -13  -3  334.53    6.33
   1  13  -3  333.62    7.94
   1 -13  -3  322.89    7.71
  -1  13   3  332.92    7.83
   1 -13   3  330.92    7.87
  -1 -13  -3  331.11    7.61
  -1  13   3  350.40    9.54
  -1 -13   3  329.27    8.03
   1  13  -3  331.68    7.92
  -1  13  -3  336.49    6.18
   1 -13  -3  327.58    8.35
   1 -13  -3  338.25    6.37
  -1  13  -3  333.79    7.88
  -1 -13  -3  334.76    8.43
   1  13   3  336.65    7.65
   1  13   3  342.87    9.21
  -1  13  -3  334.91    6.37
  -1  13   3  327.98    8.32
   1 -13  -3  326.82    7.74
  -1  13  -3  330.59    6.13
   1 -13  -3  331.40    8.25
   1 -13   3  332.01    7.89
   1  13   3  322.96    8.23
   1 -14  -3    3.27    0.86
   1 -14   3    2.83    0.94
  -1 -14  -3    2.82    0.80
  -1  14  -3    2.43    0.59
   1 -14  -3    2.21    0.88
  -1  14   3    3.42    1.00
  -1 -14   3    2.33    0.85
  -1 -14  -3    2.39    1.00
  -1  14  -3    2.13    0.84
   1  14   3    2.35    0.73
   1 -14  -3    2.02    0.50
  -1  14  -3    1.71    0.65
   1 -14  -3    2.32    0.58
   1  14  -3    1.09    0.63
   1 -14  -3    1.76    0.75
  -1  14   3    2.89    1.04
   1 -14   3    1.51    0.83
  -1 -14  -3    3.71    1.00
  -1  14  -3    2.70    0.87
  -1 -14   3    3.36    0.91
   1  14   3    3.64    1.10
   1  14   3    3.37    1.21
   1  14  -3    2.35    0.53
  -1  14   3    2.49    0.89
  -1  14   3    2.21    1.08
   1  14   3    3.85    0.94
  -1  14  -3    2.46    0.55
   1  14  -3    2.54    0.91
   1  15   3  606.95   12.64
  -1 -15  -3  609.52   11.83
   1  15  -3  602.25    9.36
  -1 -15   3  603.94   12.28
  -1  15  -3  601.65    9.11
   1 -15  -3  620.30   12.87
  -1  15   3  626.34   12.19
  -1  15  -3  609.72   12.15
   1  15   3  609.45   11.92
   1  15  -3  606.38   12.26
   1 -15  -3  608.15   12.00
   1 -15   3  605.38   12.25
  -1 -15  -3  599.15   11.78
  -1 -15   3  607.79   12.35
  -1  15   3  607.17   12.04
  -1  15  -3  610.38    9.15
   1 -15  -3  611.66    9.51
  -1 -15  -3  595.74   12.63
  -1  15  -3  608.32   12.14
   1  15   3  611.67   11.92
  -1  15   3  630.43   14.18
   1  15   3  625.91   13.92
   1  15  -3  614.74   12.33
  -1  15  -3  605.71   10.07
  -1  15   3  608.03   12.66
   1 -15  -3  613.71    9.56
   1 -15  -3  603.82   11.97
   1 -15   3  606.92   12.23
   1 -16  -3    2.35    0.85
   1  16   3   -0.19    0.83
   1 -16   3    0.62    0.58
  -1 -16  -3    1.25    0.86
  -1  16   3    2.76    1.01
  -1 -16   3    1.97    0.95
  -1  16  -3    1.31    0.42
  -1  16  -3    1.31    0.83
   1  16   3    0.99    0.74
   1  16  -3    1.07    0.85
  -1  16  -3    0.07    0.80
  -1  16  -3    1.73    0.63
   1 -16  -3    1.17    0.72
  -1  16   3    2.72    1.07
   1 -16   3    1.94    0.88
  -1 -16  -3    2.02    0.85
   1 -16  -3    3.08    0.71
  -1 -16   3    2.36    0.96
   1  16  -3    1.22    0.50
  -1  16  -3    1.65    0.47
   1  16   3    0.93    1.02
  -1  16   3    0.86    0.80
  -1  16   3    0.25    1.19
   1  16   3    1.75    0.87
   1  16  -3    1.22    0.85
   1 -17  -3    4.23    1.12
  -1 -17  -3    5.02    1.15
  -1  17   3    5.77    1.30
  -1  17  -3    2.97    0.96
   1  17   3    4.78    1.11
   1  17  -3    6.86    1.44
  -1  17  -3    4.65    0.56
  -1  17  -3    6.08    0.94
   1 -17  -3    5.14    1.17
  -1  17   3    2.98    1.08
  -1 -17  -3    4.46    1.09
  -1  17   3    4.28    1.54
   1  17   3    3.78    1.17
   1  17  -3    5.26    0.79
   1  17   3    5.62    1.23
  -1  17   3    6.95    1.28
  -1  17  -3    6.17    1.38
   1  17  -3    7.20    1.32
   1  17   3    4.97    1.53
  -1  18   3    3.04    1.12
  -1  18  -3    0.43    0.76
   1  18   3    4.19    1.27
   1  18  -3    0.75    0.78
  -1  18   3    3.49    1.40
  -1  18  -3    1.97    0.72
  -1  18   3    0.97    0.88
   1  18   3    2.05    1.04
   1  18  -3    1.85    0.60
  -1  18   3    1.44    0.86
  -1  18  -3    2.99    1.08
   1  18   3    1.86    0.96
   1  18   3    2.65    1.39
   1  18  -3    3.19    1.24
  -1  19   3  509.98   12.11
  -1  19  -3  497.85   12.09
   1  19   3  515.40   12.04
   1  19  -3  504.29   12.34
  -1  19  -3  492.93    9.81
  -1  19   3  510.12   12.10
  -1  19  -3  503.80   12.13
   1  19   3  507.86   11.95
  -1  19   3  505.33   13.94
   1  19   3  512.19   14.01
   1  19  -3  491.08   12.22
   1  20   3    7.29    1.60
   1  20   3    5.22    1.40
  -1  20   3    9.91    2.18
   1  20   3    5.24    1.71
  -1  21   3   17.32    2.70
   1  21   3   20.54    3.02
  -1  22   3   -1.15    1.44
   1  22   3    2.26    1.41
   1  23   3  277.08   11.23
  -2   0  -3   45.14    1.22
   2   0   3   41.41    1.04
  -2   0  -3   44.93    2.16
   2   0   3   41.26    1.09
   2   0  -3   45.57    1.90
  -2   0   3   40.63    2.24
   2   0  -3   46.41    2.10
   2   0  -3   45.02    1.88
   2   0   3   42.26    2.09
  -2   0  -3   48.00    1.65
   2   0   3   40.68    1.03
   2   0  -3   47.87    2.41
  -2   0  -3   45.57    2.21
  -2   0   3   42.70    1.57
   2   0  -3   46.97    2.25
   2   0   3   39.91    1.07
  -2   0   3   43.98    2.06
  -2   0   3   41.52    2.13
  -2   1   3  808.81   12.52
  -2  -1   3  839.01   13.01
  -2  -1  -3  809.26   11.88
   2   1   3  848.31    9.59
  -2   1   3  854.51   13.09
  -2   1  -3  821.33   12.31
   2  -1   3  832.86    9.79
  -2  -1  -3  823.67   12.44
   2   1  -3  803.17   11.54
   2  -1  -3  828.22   12.32
   2  -1  -3  842.31   11.63
   2   1   3  842.54    9.59
   2  -1   3  845.68    9.99
   2  -1  -3  821.81   13.00
   2   1  -3  818.99   11.59
  -2  -1   3  841.57   11.63
  -2  -1   3  828.60   12.24
   2  -1  -3  825.74   11.19
   2  -1  -3  840.65   11.62
  -2   1   3  857.60   12.47
   2  -1   3  851.08   12.38
   2  -1   3  843.70    9.99
  -2  -1   3  829.86   11.61
   2   1   3  860.19   12.49
  -2   1  -3  822.01   12.37
  -2   1  -3  822.94   11.09
   2   1  -3  818.66   12.95
  -2  -1  -3  834.81   10.71
  -2  -1  -3  819.30   12.43
   2  -1   3  832.23    9.79
  -2  -1   3  843.07   10.45
  -2   1   3  831.95   11.16
   2   1  -3  822.62   12.23
   2   1  -3  825.73   12.49
   2  -1  -3  848.48   12.78
  -2  -1   3  842.24   12.56
   2   2  -3    5.10    0.81
  -2  -2   3    4.47    0.78
   2  -2  -3    5.72    0.93
  -2  -2   3    4.99    0.72
  -2   2   3    4.91    0.86
   2  -2  -3    5.54    0.73
  -2   2  -3    6.32    0.93
   2   2   3    5.00    0.90
  -2   2  -3    7.34    0.99
   2  -2   3    5.19    0.45
  -2  -2  -3    6.86    1.01
   2  -2  -3    6.17    0.79
  -2   2   3    6.20    0.78
   2   2   3    4.81    0.38
   2   2  -3    5.97    0.79
  -2  -2   3    4.58    0.66
  -2  -2   3    4.82    0.43
  -2  -2  -3    5.78    0.36
  -2  -2  -3    4.52    0.75
   2   2  -3    5.15    0.67
   2   2  -3    5.03    0.81
  -2  -2   3    4.89    0.80
   2  -2  -3    5.58    0.86
  -2  -2  -3    5.59    0.90
  -2   2   3    4.50    0.84
   2  -2  -3    5.27    0.74
   2   2  -3    6.56    1.00
  -2   2   3    5.69    1.05
   2  -2  -3    5.84    0.99
  -2  -2  -3    5.17    0.57
   2  -2   3    4.92    0.43
   2  -2   3    5.59    0.83
   2   2   3    5.02    0.37
  -2  -3  -3 1807.25   22.32
  -2   3   3 1786.49   22.83
  -2   3   3 1770.36   22.49
  -2   3  -3 1766.98   22.23
   2  -3  -3 1732.03   21.50
   2   3  -3 1781.35   21.69
  -2  -3  -3 1747.29   22.61
   2  -3   3 1763.71   20.15
   2  -3  -3 1750.69   22.97
   2   3   3 1785.23   19.74
  -2  -3  -3 1770.74   22.62
  -2  -3  -3 1753.05   20.06
  -2  -3   3 1737.11   21.83
   2   3  -3 1785.09   21.69
   2  -3   3 1750.91   22.22
  -2  -3  -3 1726.15   20.04
  -2  -3   3 1737.23   21.82
   2   3  -3 1758.76   22.37
   2  -3   3 1723.31   19.34
   2  -3  -3 1755.38   21.71
   2   3   3 1798.34   22.64
   2  -3  -3 1738.22   21.49
   2   3   3 1816.97   20.50
   2   3  -3 1738.21   23.15
  -2   3  -3 1797.44   22.29
   2  -3  -3 1781.55   22.72
  -2   3   3 1750.24   23.46
   2  -3  -3 1741.65   23.42
  -2  -3  -3 1744.33   20.58
  -2   3   3 1777.36   21.74
  -2  -3   3 1720.64   19.25
   2  -3   3 1771.37   20.16
   2   3  -3 1744.60   22.56
   2   3   3 1786.56   19.74
  -2  -3   3 1744.34   22.61
  -2  -3   3 1752.48   22.42
  -2  -4   3    6.72    0.96
  -2  -4  -3    5.02    0.87
   2  -4  -3    5.49    0.93
  -2   4  -3    5.22    0.82
   2  -4  -3    6.54    0.89
  -2   4  -3    5.20    0.61
  -2   4  -3    5.13    0.87
   2  -4  -3    5.08    0.72
   2  -4   3    7.46    0.67
   2   4  -3    5.17    0.74
   2   4   3    7.23    1.05
   2  -4  -3    5.64    0.91
   2   4   3    7.66    0.60
  -2  -4  -3    4.18    0.86
  -2   4   3    8.37    0.97
  -2  -4  -3    4.35    0.51
  -2  -4  -3    6.09    0.91
  -2  -4   3    7.84    0.86
  -2  -4  -3    5.23    0.55
  -2  -4   3    7.28    0.85
   2   4  -3    5.65    0.77
  -2  -4   3    7.16    0.90
   2   4  -3    5.15    0.79
   2   4   3    7.48    0.70
  -2   4   3    7.57    1.00
  -2   4  -3    5.00    0.58
   2  -4  -3    4.79    0.69
   2   4  -3    3.88    0.78
  -2   4   3    6.81    1.12
   2  -4   3    7.12    0.64
   2  -4  -3    5.30    1.08
  -2  -4  -3    4.55    0.61
   2   4   3    7.99    0.62
   2  -5  -3   97.06    3.19
  -2   5  -3   95.15    3.08
   2  -5   3   81.45    2.43
  -2   5  -3   92.69    2.60
   2  -5  -3   93.35    2.92
  -2  -5  -3   97.69    2.47
   2  -5   3   80.86    2.43
   2   5   3   85.08    2.26
  -2  -5   3   84.21    2.97
   2   5  -3   89.98    2.94
   2   5  -3   88.83    2.93
  -2   5   3   87.96    3.67
  -2  -5  -3   97.22    2.47
  -2  -5  -3   95.28    3.32
  -2  -5   3   82.71    2.93
  -2  -5   3   86.02    3.17
   2  -5  -3   95.09    3.48
   2  -5  -3   91.94    3.41
   2   5   3   85.37    3.11
  -2   5  -3   94.70    2.63
   2   5  -3   94.09    3.59
  -2   5  -3   89.53    3.03
   2  -5  -3   90.61    2.89
   2   5   3   85.67    2.54
   2  -5  -3   97.45    3.82
  -2   5   3   87.67    3.04
  -2  -5  -3   95.14    3.31
   2   5   3   84.28    2.25
  -2  -5   3   84.95    3.20
  -2  -5  -3   93.31    3.27
   2  -6  -3   20.78    1.67
   2   6  -3   20.74    1.44
  -2  -6  -3   19.13    1.53
  -2   6  -3   18.80    1.36
  -2   6  -3   20.81    1.30
  -2  -6  -3   20.33    1.19
  -2  -6   3   25.05    1.62
   2  -6   3   21.89    1.30
   2   6   3   23.78    1.24
   2   6  -3   19.50    1.42
  -2  -6  -3   20.14    1.18
  -2  -6   3   23.73    1.58
   2  -6  -3   19.57    1.37
   2  -6  -3   18.80    1.60
   2  -6  -3   20.24    1.55
   2  -6  -3   21.10    1.88
   2   6   3   23.93    1.63
  -2   6  -3   19.76    1.26
  -2   6  -3   20.74    1.45
   2  -6  -3   20.34    1.38
  -2   6   3   24.31    2.01
   2   6   3   22.04    1.34
  -2  -6   3   23.16    1.69
  -2   6   3   23.23    1.62
  -2  -6  -3   20.56    1.59
   2  -6   3   23.25    1.33
   2   6   3   22.25    1.21
   2  -6   3   22.65    0.92
  -2  -6   3   24.53    1.77
  -2  -6  -3   21.77    1.63
   2  -7  -3  938.30   14.73
   2   7   3  961.11   14.59
  -2  -7   3  975.47   14.51
  -2   7  -3  934.69   13.33
  -2  -7  -3  928.25   12.75
  -2   7  -3  925.75   13.16
   2  -7  -3  927.09   13.51
  -2   7   3  979.28   15.91
  -2  -7   3  929.98   13.92
   2  -7  -3  934.13   14.60
   2   7   3  981.67   12.82
   2  -7   3  959.59   13.21
   2   7  -3  951.81   13.85
  -2  -7  -3  941.05   12.79
   2  -7  -3  932.84   14.26
  -2  -7   3  943.21   13.98
  -2  -7  -3  928.84   14.05
  -2   7  -3  920.91   13.30
  -2   7  -3  943.20   13.20
   2  -7  -3  934.08   13.52
   2   7   3  972.46   13.61
   2  -7  -3  933.94   15.58
  -2   7   3  981.12   14.42
   2   7   3  980.72   12.81
   2  -7   3  958.90   13.21
  -2  -7  -3  908.09   13.98
  -2  -7  -3  908.97   14.29
  -2  -7   3  947.67   14.64
   2   7   3  962.52   14.07
   2   7  -3  931.20   13.77
  -2  -8  -3    3.97    0.70
   2  -8   3    4.19    0.76
  -2  -8   3    4.31    0.96
   2  -8  -3    5.63    1.09
   2  -8  -3    5.02    0.98
   2   8   3    3.55    0.82
   2   8  -3    5.25    0.91
   2  -8  -3    5.77    0.98
   2   8   3    4.91    0.96
  -2   8  -3    4.31    0.77
  -2   8  -3    4.39    0.76
  -2  -8  -3    4.40    0.68
   2  -8  -3    4.18    0.78
  -2   8  -3    4.69    0.78
  -2   8   3    5.61    1.02
   2   8   3    4.26    0.70
  -2  -8   3    4.54    0.82
   2  -8   3    3.34    0.62
  -2  -8  -3    4.64    1.00
  -2  -8  -3    3.53    0.77
   2   8  -3    5.06    0.90
  -2  -8   3    6.53    0.99
  -2  -8   3    3.55    0.85
  -2   8  -3    3.92    0.73
  -2   8   3    4.77    1.26
   2   8   3    4.12    0.80
   2  -8  -3    4.32    1.19
   2  -8  -3    3.95    0.84
  -2  -8  -3    4.94    0.95
   2   8   3    4.45    0.70
   2  -9  -3   91.94    3.83
   2   9   3   98.47    3.84
  -2  -9  -3   87.10    3.01
   2  -9  -3   91.11    3.75
  -2   9   3   98.15    3.54
  -2   9  -3   93.37    3.30
  -2   9  -3   87.68    2.93
   2  -9  -3   93.00    3.71
  -2  -9   3   95.00    3.59
   2  -9  -3   93.09    3.40
   2   9   3   93.32    3.10
   2  -9   3   96.26    3.33
   2   9  -3   88.30    3.42
  -2  -9  -3   87.12    3.00
  -2  -9   3   93.45    3.55
  -2   9  -3   88.34    2.94
   2   9   3   90.57    3.30
  -2  -9   3   98.53    3.79
  -2   9   3   95.25    3.48
  -2   9  -3   92.30    3.27
  -2   9  -3   90.18    2.99
  -2   9   3  100.50    4.43
   2   9   3  102.33    3.76
   2  -9  -3   93.96    3.42
   2  -9  -3   95.59    4.26
  -2   9   3   94.28    3.75
   2   9   3   97.13    3.15
  -2  -9  -3   89.85    3.66
  -2  -9   3  100.23    3.91
   2  -9   3   93.91    3.29
  -2  -9  -3   93.47    3.44
  -2  -9  -3   93.77    3.46
   2   9  -3   90.20    3.45
  -2 -10   3    4.55    1.09
   2 -10   3    3.81    0.75
   2  10  -3    4.80    0.90
   2 -10  -3    5.32    1.07
   2  10   3    3.42    0.79
  -2  10  -3    5.71    0.83
   2 -10  -3    6.13    1.11
  -2  10   3    3.27    0.80
  -2  10  -3    5.01    0.89
  -2  10  -3    4.54    0.67
  -2 -10  -3    5.60    0.88
  -2 -10   3    3.51    0.35
  -2 -10   3    3.12    0.78
   2 -10  -3    5.95    1.00
  -2 -10   3    3.58    0.85
   2  10   3    2.90    0.73
  -2  10   3    3.10    0.83
  -2 -10  -3    5.32    1.00
   2 -10   3    3.81    0.82
   2  10  -3    4.35    0.91
  -2 -10  -3    7.81    1.25
  -2 -10  -3    5.36    0.92
  -2 -10   3    3.56    0.83
   2  10   3    4.04    1.00
   2 -10  -3    5.90    1.08
  -2  10   3    4.22    0.91
  -2  10  -3    5.75    0.84
  -2  10  -3    4.61    0.87
  -2  10   3    5.91    1.51
   2  10   3    4.68    1.13
   2 -10  -3    7.58    1.14
   2 -10  -3    4.53    0.74
   2  10   3    4.09    0.78
   2 -11  -3  319.20    7.80
   2 -11  -3  324.11    7.94
  -2 -11  -3  321.39    7.11
   2  11   3  286.90    7.47
  -2 -11  -3  316.44    6.81
  -2  11   3  293.20    7.07
  -2 -11   3  279.02    7.12
  -2  11  -3  313.07    7.03
   2 -11  -3  320.99    7.24
   2  11   3  291.02    6.58
  -2  11  -3  320.23    6.09
   2 -11   3  282.71    6.80
   2  11  -3  318.65    7.39
  -2 -11  -3  319.16    6.83
  -2 -11   3  291.74    7.25
  -2  11  -3  312.35    6.28
  -2 -11   3  290.00    4.59
   2  11   3  278.16    6.40
   2 -11  -3  310.38    6.02
   2 -11  -3  309.50    7.69
  -2 -11   3  293.17    7.46
  -2  11   3  292.69    7.06
  -2  11  -3  313.06    7.03
  -2  11   3  308.47    8.63
  -2  11  -3  316.61    6.07
   2  11   3  295.63    7.67
   2 -11  -3  305.73    7.09
   2  11   3  287.33    6.55
  -2  11   3  281.20    7.37
  -2 -11  -3  316.88    7.77
  -2 -11   3  290.51    7.52
   2 -11   3  285.67    6.82
   2  11  -3  311.76    7.32
   2  12   3    2.17    0.74
   2  12  -3    1.04    0.76
   2 -12   3    2.17    0.75
   2 -12  -3    3.30    1.00
  -2 -12   3    2.79    0.44
   2 -12  -3    3.23    1.01
  -2  12   3    2.35    0.83
  -2  12  -3    2.01    0.66
  -2 -12  -3    2.84    0.81
  -2  12  -3    2.75    0.90
  -2 -12   3    2.91    0.94
  -2  12  -3    1.38    0.53
  -2 -12   3    1.71    0.73
   2  12   3    3.05    0.81
  -2 -12  -3    3.16    0.97
   2 -12  -3    2.38    0.61
   2 -12  -3    3.89    0.96
  -2  12   3    2.83    1.05
   2  12  -3    1.47    0.65
   2 -12   3    1.45    0.67
  -2 -12  -3    1.61    0.62
   2  12   3    1.58    0.86
  -2 -12   3    2.27    0.96
  -2  12   3    3.57    0.88
   2 -12  -3    3.76    1.10
  -2  12  -3    1.73    0.77
  -2  12   3    2.65    1.27
   2  12   3    2.93    1.13
   2  12   3    1.52    0.69
  -2  12  -3    1.83    0.65
   2 -12  -3    2.78    0.81
   2 -13  -3  357.13    8.97
   2  13   3  348.14    8.72
  -2 -13  -3  342.53    7.79
  -2  13   3  339.24    8.20
  -2 -13   3  343.05    8.42
  -2  13  -3  347.87    8.08
   2 -13   3  330.06    8.01
   2  13   3  343.31    7.82
   2 -13  -3  329.59    8.02
   2  13  -3  349.75    8.40
   2 -13   3  332.61    8.05
  -2 -13  -3  346.37    7.83
  -2 -13   3  343.35    8.44
  -2  13  -3  353.90    6.41
   2  13   3  341.48    7.16
  -2  13  -3  348.53    8.09
  -2  13  -3  341.62    7.02
  -2 -13   3  340.87    5.76
   2 -13  -3  344.26    6.45
   2 -13  -3  342.96    8.68
  -2 -13   3  351.54    8.66
  -2  13   3  353.17    8.34
   2  13   3  347.08    9.18
   2  13   3  349.97    7.88
  -2 -13  -3  344.42    8.66
  -2  13  -3  345.65    6.37
   2 -13  -3  335.16    8.06
   2 -13  -3  340.32    6.42
  -2  13   3  347.55    8.71
   2  13  -3  353.33    8.42
  -2  13   3  362.06    9.84
   2 -14  -3    0.24    0.64
   2 -14  -3    0.39    0.40
   2  14  -3   -0.61    0.79
  -2 -14   3    0.54    0.34
   2 -14  -3    1.16    0.86
   2 -14  -3    0.25    0.67
   2 -14  -3    0.08    0.38
  -2  14   3    1.02    0.67
  -2 -14  -3    0.17    0.54
  -2  14  -3    0.15    0.58
  -2  14  -3   -0.42    0.56
  -2 -14   3    0.28    0.60
  -2 -14  -3    0.76    0.84
   2  14   3    0.26    0.59
  -2  14  -3    0.65    0.46
   2 -14  -3   -0.22    0.69
   2  14  -3    0.30    0.71
  -2  14   3    0.53    0.64
   2 -14   3    1.02    0.68
  -2 -14  -3    0.31    0.66
   2 -14   3    0.18    0.69
  -2 -14   3    0.24    0.62
   2  14   3    0.84    0.68
  -2 -14   3    2.08    0.86
  -2  14   3    0.75    0.68
  -2  14  -3   -0.11    0.40
  -2  14  -3    0.74    0.69
  -2  14   3   -0.21    0.97
   2  14   3    0.15    0.87
   2  14   3    0.04    0.52
   2  15   3   99.89    4.67
  -2 -15  -3   88.10    3.97
  -2 -15   3   96.12    4.47
  -2  15   3  102.67    4.49
  -2  15  -3   86.32    4.11
   2  15   3   99.88    4.23
   2  15  -3   90.52    4.26
   2 -15  -3   91.16    2.81
   2 -15  -3   94.36    4.25
   2 -15   3   96.10    4.32
  -2 -15  -3   85.42    3.93
  -2 -15   3   98.83    4.53
  -2 -15   3  106.12    4.74
  -2 -15   3  100.32    3.03
  -2  15   3  105.42    4.54
  -2  15  -3   88.93    4.17
  -2  15   3  107.97    5.45
  -2  15  -3   88.44    3.45
   2 -15  -3   93.20    2.84
   2  15   3  101.95    5.17
   2  15   3  105.94    4.35
   2  15  -3   88.55    4.22
  -2  15   3   99.49    4.68
   2 -15  -3   93.75    4.24
  -2  15  -3   91.36    2.78
   2 -15   3   96.16    4.30
   2 -16  -3    6.26    1.27
   2 -16   3    5.91    1.20
  -2  16   3    7.44    1.37
  -2 -16  -3    7.48    1.31
  -2  16  -3    5.41    1.16
  -2  16  -3    6.96    1.08
   2  16   3    6.95    1.29
   2  16  -3    5.60    1.31
   2 -16  -3    7.06    0.77
   2 -16  -3    6.31    1.27
  -2  16   3    6.06    1.30
   2 -16   3    4.62    1.16
  -2  16  -3    7.51    0.83
  -2 -16  -3    7.53    1.29
   2  16   3    8.11    1.52
  -2 -16   3    5.30    1.24
   2 -16  -3    7.23    0.81
  -2  16   3    6.60    1.32
  -2  16  -3    8.87    1.46
  -2  16   3    5.38    1.53
   2  16   3    6.44    1.58
   2  16   3    6.37    1.16
  -2 -16   3    5.93    0.82
   2  16  -3    5.46    1.24
  -2 -17  -3  553.78   11.88
  -2  17   3  544.18   12.25
  -2  17  -3  572.00   12.37
   2  17   3  562.60   12.04
   2  17   3  540.62   12.57
   2  17  -3  565.16   12.54
  -2 -17  -3  551.72   11.89
  -2 -17   3  534.72   12.55
  -2  17  -3  547.33   12.15
  -2  17   3  561.99   14.05
   2  17   3  563.73   13.98
   2  17   3  554.57   11.94
  -2  17  -3  550.88   10.49
   2  17  -3  570.20   12.56
  -2  17   3  541.95   12.61
  -2  17   3  552.62   12.32
  -2  18   3    6.21    1.29
  -2  18  -3   10.93    1.75
   2  18   3    6.71    1.37
  -2  18  -3    8.68    1.27
   2  18  -3    9.84    1.67
  -2  18   3    6.82    1.48
   2  18   3    6.22    1.43
  -2 -18   3    9.77    1.75
  -2  18   3    8.09    1.54
  -2  18  -3    6.42    1.34
  -2  18   3    8.36    1.86
   2  18   3    6.35    1.68
   2  18   3    7.21    1.48
   2  18  -3   12.01    1.82
  -2  19  -3    0.83    0.84
  -2  19   3    0.51    0.84
  -2  19  -3    0.89    0.78
   2  19   3    2.50    1.03
  -2  19  -3    1.93    0.82
  -2 -19   3    2.40    1.23
  -2  19   3    1.29    0.99
  -2  19   3    3.36    1.61
   2  19   3    1.29    1.16
   2  19   3    0.44    0.83
  -2 -20   3    0.36    1.07
  -2  20   3    2.30    1.76
   2  20   3    1.79    1.69
  -2 -21   3  387.84   11.51
  -2  21   3  395.36   12.80
   2  21   3  384.69   12.80
   2  22   3    0.11    1.23
   2  23   3   58.59    5.05
   3   0  -3    0.18    0.55
  -3   0   3    0.03    0.59
   3   0   3   -0.10    0.49
   3   0   3   -0.19    0.33
  -3   0   3    0.27    0.41
  -3   0  -3    0.52    0.70
   3   0  -3    0.74    0.57
   3   0   3   -0.12    0.31
   3   0  -3   -0.11    0.48
   3   0   3    0.72    0.60
   3   0  -3    0.00    0.55
  -3   0   3    0.42    0.61
   3   0  -3   -0.09    0.54
  -3   0  -3    1.29    0.75
  -3   0   3    0.19    0.63
  -3   0  -3    0.08    0.23
  -3   1   3 1057.05   13.90
   3   1   3 1038.38   15.23
  -3  -1   3 1044.25   15.41
   3  -1   3 1041.60   13.05
  -3  -1  -3 1007.78   11.69
   3   1  -3 1051.39   14.87
   3   1   3 1078.74   13.03
   3   1  -3 1021.86   14.77
   3  -1  -3 1037.05   15.96
   3  -1  -3 1042.55   14.79
   3  -1   3 1062.26   13.17
  -3  -1  -3 1042.48   15.24
  -3   1   3 1056.22   15.55
   3   1   3 1062.37   12.97
   3   1  -3 1045.19   15.36
   3  -1  -3 1030.11   15.43
   3  -1  -3 1050.54   14.84
   3  -1   3 1065.77   13.18
  -3   1  -3 1053.12   15.16
  -3  -1   3 1021.46   13.29
  -3   1  -3 1031.80   12.82
   3  -1   3 1050.48   13.07
  -3  -1   3 1071.69   15.95
  -3   1   3 1046.85   15.87
   3   1  -3 1066.40   15.90
  -3  -1  -3 1004.27   12.13
   3  -1   3 1052.84   15.20
   3  -1   3 1061.58   15.23
   3   1   3 1035.24   15.19
  -3   1  -3 1042.66   15.18
  -3  -1  -3 1036.31   15.26
   3   1  -3 1030.06   15.55
   3  -1  -3 1046.74   15.72
  -3  -1   3 1033.97   15.55
  -3   1   3 1039.07   15.64
  -3   2   3   42.72    2.43
   3   2  -3   38.67    2.20
  -3  -2  -3   41.66    2.18
   3   2   3   40.30    1.47
   3  -2   3   40.50    1.56
   3   2  -3   39.46    2.06
   3   2   3   41.86    1.50
   3  -2  -3   40.47    2.09
  -3  -2   3   37.30    2.00
   3  -2  -3   38.93    2.39
   3  -2  -3   39.67    2.12
   3  -2   3   37.57    0.99
  -3   2  -3   39.66    2.16
  -3  -2  -3   40.76    1.19
   3  -2  -3   39.78    2.27
  -3   2  -3   40.58    2.17
  -3  -2   3   38.13    2.19
  -3  -2   3   43.18    2.15
   3   2   3   40.57    2.26
  -3  -2  -3   41.71    2.27
  -3  -2   3   37.59    1.47
   3  -2   3   40.54    1.57
  -3   2   3   40.41    2.47
   3   2  -3   39.32    2.36
   3  -2   3   39.68    2.14
  -3  -2  -3   37.31    1.08
  -3   2   3   38.13    2.24
   3   2  -3   42.97    2.13
   3   2   3   38.70    2.19
  -3   2   3   41.14    1.88
  -3  -2  -3   39.98    2.26
   3   2  -3   40.49    2.31
   3  -2  -3   38.58    2.31
  -3  -2   3   41.28    2.34
  -3   3   3  134.46    4.43
  -3  -3  -3  150.03    2.88
  -3  -3  -3  140.76    4.25
   3  -3   3  139.57    2.62
   3   3   3  139.39    3.08
   3  -3   3  138.93    3.25
   3   3  -3  146.52    4.15
   3   3   3  138.84    3.08
   3  -3  -3  142.19    4.49
  -3  -3   3  139.02    4.10
  -3  -3  -3  145.39    3.34
   3   3  -3  153.47    4.24
  -3  -3   3  143.52    4.43
  -3   3  -3  142.21    4.18
  -3   3   3  136.75    4.38
  -3  -3  -3  145.87    3.34
  -3  -3   3  139.62    2.87
   3  -3  -3  143.65    4.22
   3   3   3  138.08    4.23
   3   3  -3  151.80    4.68
   3  -3   3  138.90    4.10
  -3   3   3  137.85    3.82
  -3   3   3  145.21    4.79
  -3  -3   3  138.31    4.08
   3  -3   3  136.37    3.23
   3  -3  -3  141.11    4.18
   3  -3  -3  153.57    4.92
  -3  -3  -3  156.20    4.50
  -3   3  -3  137.19    4.14
   3   3   3  145.48    4.32
   3   3  -3  144.17    4.49
  -3  -3  -3  149.73    4.47
  -3  -3   3  142.26    4.48
   3  -3  -3  143.36    4.55
   3   3  -3  141.27    4.39
  -3  -4   3    2.15    0.85
   3  -4  -3    2.52    0.82
  -3   4   3    1.90    0.83
  -3   4   3    2.49    1.00
   3   4   3    2.30    0.74
  -3  -4   3    2.18    0.71
  -3  -4   3    1.65    0.34
   3   4   3    1.77    0.42
   3  -4  -3    2.91    0.67
   3  -4   3    2.35    0.72
   3  -4  -3    3.16    0.79
  -3   4   3    1.65    0.68
   3  -4   3    2.07    0.51
   3   4  -3    3.35    0.75
  -3   4  -3    4.60    0.86
  -3  -4  -3    2.54    0.72
  -3  -4  -3    3.14    0.87
   3   4   3    2.11    0.42
  -3  -4   3    1.77    0.68
  -3  -4  -3    2.79    0.56
  -3  -4  -3    4.38    0.99
  -3   4  -3    3.86    0.81
   3   4  -3    3.60    0.84
  -3  -4  -3    3.18    0.52
  -3  -4   3    1.80    0.65
  -3  -4  -3    2.51    0.48
   3   4  -3    3.61    0.78
   3  -4   3    2.34    0.39
  -3   4   3    2.60    0.85
   3   4   3    3.66    0.91
   3  -4  -3    2.78    0.67
   3   4   3    1.95    0.29
   3   4  -3    3.20    0.80
   3  -4  -3    3.44    1.02
   3  -4   3    1.85    0.51
   3   4  -3    2.70    0.90
  -3  -5  -3 1391.91   19.28
  -3   5   3 1391.44   19.83
   3   5  -3 1369.16   18.80
   3  -5  -3 1371.79   18.73
   3  -5   3 1354.15   17.57
   3  -5  -3 1381.39   19.84
  -3  -5  -3 1388.76   17.50
   3   5   3 1388.58   17.20
  -3  -5   3 1341.58   18.98
   3   5  -3 1395.64   18.89
   3  -5  -3 1414.02   18.94
  -3  -5  -3 1410.43   16.95
  -3  -5   3 1336.89   19.42
  -3   5   3 1357.81   19.49
  -3  -5   3 1365.00   19.06
   3  -5  -3 1382.81   18.75
   3   5  -3 1378.49   19.48
   3  -5   3 1420.84   16.74
   3  -5   3 1387.87   18.55
   3   5   3 1371.97   19.15
  -3  -5   3 1384.46   15.86
  -3  -5  -3 1393.59   17.50
  -3   5   3 1399.29   18.91
   3   5  -3 1396.23   19.94
  -3   5   3 1362.52   20.48
   3  -5  -3 1398.63   20.55
   3  -5   3 1353.66   17.57
   3   5   3 1379.55   16.12
  -3   5  -3 1370.15   18.63
  -3   5  -3 1363.83   18.61
   3   5   3 1374.33   19.13
  -3  -5  -3 1378.03   19.28
  -3  -5   3 1361.52   19.71
  -3  -5  -3 1391.12   19.41
   3  -5  -3 1383.47   19.88
   3   5   3 1392.73   17.20
   3  -6   3    7.01    0.96
  -3  -6   3    6.86    0.47
  -3  -6   3    7.07    1.12
   3  -6  -3    7.19    1.19
   3   6   3    6.73    0.76
   3  -6  -3    5.56    0.96
   3   6   3    6.78    1.12
   3  -6  -3    6.66    1.04
   3   6  -3    6.37    0.96
  -3   6   3    7.99    1.11
   3  -6   3    6.46    0.80
  -3   6  -3    6.16    0.99
  -3   6  -3    6.47    1.01
   3   6   3    7.41    0.81
  -3  -6  -3    5.48    0.74
  -3  -6  -3    7.22    1.24
  -3  -6   3    7.17    1.06
   3   6  -3    5.28    0.94
  -3  -6  -3    6.10    1.06
   3  -6  -3    6.57    1.27
  -3  -6  -3    6.59    0.83
   3  -6   3    7.20    0.73
  -3  -6   3    6.95    1.02
  -3  -6   3    7.19    1.11
   3  -6  -3    5.29    1.00
   3   6   3    7.28    1.13
  -3   6   3    4.85    1.05
   3   6   3    7.28    0.68
   3  -6  -3    5.29    0.89
   3   6  -3    5.30    1.12
  -3   6   3    7.11    1.26
   3  -6   3    6.84    0.84
   3  -7   3   22.70    0.88
  -3  -7  -3   24.43    1.95
   3   7  -3   22.15    1.72
  -3   7  -3   19.59    1.46
   3  -7  -3   19.94    1.62
   3  -7   3   20.40    1.47
  -3  -7  -3   20.15    1.41
  -3  -7   3   19.74    1.62
   3   7   3   21.63    1.38
   3   7  -3   21.84    1.70
   3  -7  -3   27.28    2.05
  -3  -7  -3   19.27    1.38
  -3  -7   3   21.90    1.70
  -3  -7   3   21.87    1.84
   3  -7  -3   21.94    1.91
   3  -7  -3   23.30    1.82
  -3   7  -3   20.67    1.54
   3  -7   3   22.19    1.31
   3   7   3   19.20    1.65
   3   7  -3   22.72    1.96
   3  -7  -3   22.66    1.74
  -3   7   3   19.46    1.97
   3   7   3   21.23    1.28
  -3   7   3   22.72    1.77
   3  -7   3   20.88    1.49
   3  -7   3   21.42    1.50
  -3   7  -3   20.85    1.49
   3   7   3   23.43    1.79
  -3   7  -3   21.08    1.55
   3  -7  -3   19.32    1.94
  -3  -7   3   21.81    0.80
  -3  -7   3   22.00    1.91
   3   7   3   21.16    1.37
  -3  -7  -3   21.03    1.77
   3  -8   3   13.50    0.80
   3  -8  -3   10.13    1.39
  -3   8  -3    9.84    1.13
   3   8   3   12.24    1.35
   3  -8  -3   10.57    1.34
   3   8  -3   11.87    1.34
  -3   8  -3   11.72    1.17
  -3  -8  -3   10.83    1.13
   3  -8   3   12.06    1.22
   3  -8  -3   11.10    1.26
  -3  -8   3   15.04    1.52
  -3   8   3   12.84    1.42
   3   8   3   12.72    1.17
  -3   8  -3   12.60    1.23
  -3  -8  -3   10.85    1.36
   3   8  -3   10.43    1.29
  -3  -8  -3   10.92    1.13
  -3  -8  -3   14.24    1.66
  -3  -8   3   13.51    1.53
  -3  -8   3   13.20    1.43
   3  -8  -3   12.13    1.52
   3   8   3   13.01    1.13
  -3  -8   3   12.62    0.63
   3  -8   3   11.61    1.18
  -3   8   3   13.87    1.84
   3  -8  -3   11.91    1.34
   3   8   3   14.94    1.48
  -3   8  -3   10.50    1.16
   3  -8  -3   14.23    1.86
  -3  -8   3   14.40    1.61
   3   8   3   13.21    1.19
   3   9  -3  623.31   11.21
   3  -9  -3  620.82   11.83
   3  -9   3  614.97    8.52
  -3  -9   3  601.71   11.49
  -3   9  -3  615.09   10.54
   3  -9  -3  631.66   11.05
  -3  -9  -3  594.44   10.17
  -3  -9   3  613.58   11.26
   3  -9   3  599.37   10.39
   3   9   3  603.14   10.05
   3   9  -3  626.82   11.24
  -3  -9  -3  599.66   10.21
  -3  -9   3  612.62   11.24
   3  -9  -3  609.00   11.38
   3   9   3  596.21   10.79
  -3   9  -3  613.12   10.52
   3  -9  -3  610.94   11.75
  -3   9  -3  611.62   10.02
  -3   9   3  619.85   12.73
   3  -9  -3  626.01   11.02
  -3  -9   3  598.69    7.68
   3   9   3  605.90   10.26
  -3   9   3  596.78   11.31
   3  -9  -3  635.44   12.77
   3   9   3  596.62   10.78
   3  -9   3  595.73   10.35
  -3   9  -3  613.20   10.07
   3   9   3  599.79   10.03
  -3  -9   3  596.91   11.69
  -3  -9  -3  615.40   11.51
   3 -10  -3    7.89    1.25
   3  10   3    6.10    0.98
  -3 -10   3    6.05    1.25
  -3  10  -3    8.27    1.07
  -3 -10   3    6.53    1.19
   3  10   3    5.16    0.98
   3 -10  -3    9.57    1.46
  -3  10  -3    9.23    1.18
   3 -10  -3    6.40    1.18
   3  10  -3    8.14    1.25
  -3  10  -3    7.02    1.03
   3 -10  -3    7.70    1.18
  -3  10   3    5.63    1.18
  -3 -10  -3    7.26    1.07
   3 -10   3    6.71    1.04
   3  10   3    6.74    1.02
  -3 -10   3    7.50    1.21
  -3 -10  -3    7.24    1.00
  -3  10  -3    7.93    1.04
  -3 -10  -3    7.13    1.18
   3  10  -3    6.93    1.19
  -3 -10   3    6.82    1.14
  -3 -10   3    6.13    0.51
  -3  10  -3    8.63    1.21
   3  10   3    5.07    0.98
  -3  10   3    7.05    1.54
   3  10   3    7.24    1.25
   3 -10  -3    7.85    1.21
   3 -10   3    7.07    1.05
   3 -11  -3  211.56    6.57
  -3  11  -3  207.00    5.78
  -3 -11  -3  214.91    5.69
   3 -11  -3  211.24    6.07
  -3 -11   3  218.27    6.33
   3 -11   3  201.62    5.75
   3  11   3  212.25    5.56
   3  11  -3  212.02    6.20
  -3 -11  -3  213.35    5.67
  -3  11  -3  210.81    5.50
  -3 -11   3  199.13    6.08
   3  11   3  207.33    5.68
   3 -11  -3  204.43    6.46
   3 -11  -3  210.68    6.40
  -3  11  -3  210.26    5.84
  -3 -11   3  204.80    3.73
  -3  11   3  220.45    7.30
   3  11   3  210.34    5.71
   3  11   3  211.02    6.09
   3 -11  -3  207.80    6.04
  -3  11   3  214.00    6.37
  -3 -11   3  211.89    6.46
   3 -11   3  206.75    5.83
   3  11   3  213.50    5.58
  -3 -11  -3  211.19    6.40
  -3 -11   3  209.83    6.58
  -3  11  -3  209.49    5.03
  -3  11  -3  212.92    5.11
   3  11  -3  212.43    6.21
   3 -12   3    7.78    1.20
   3  12  -3   10.30    1.41
   3 -12  -3   11.48    1.58
  -3  12   3    7.59    1.18
   3 -12  -3   10.14    1.49
  -3  12  -3   10.15    1.25
  -3  12  -3   10.39    1.37
  -3 -12  -3   11.09    1.32
   3 -12  -3    9.69    1.39
  -3  12   3    9.23    1.43
   3  12   3    8.11    1.12
  -3 -12   3    6.69    1.25
   3 -12   3    8.80    1.30
  -3 -12  -3   11.95    1.56
   3  12  -3    8.85    1.35
   3  12   3    9.63    1.27
  -3  12  -3   11.35    1.20
  -3 -12   3   10.44    1.61
  -3 -12   3    7.27    1.24
  -3  12   3    7.12    1.19
  -3 -12  -3   10.54    1.32
  -3 -12   3    7.70    0.68
  -3  12   3    7.58    1.55
  -3  12  -3   10.37    1.35
   3  12   3    8.89    1.41
   3 -12  -3    9.37    1.33
  -3 -12   3   11.40    1.59
   3  12   3    9.42    1.22
   3 -13  -3  174.91    6.25
  -3  13  -3  179.99    4.51
  -3  13   3  178.93    5.93
  -3 -13  -3  173.55    5.46
  -3  13  -3  173.61    5.62
  -3 -13   3  181.63    6.14
  -3  13   3  185.57    6.03
   3 -13  -3  165.55    5.67
   3  13   3  176.03    5.42
   3 -13   3  173.12    5.64
   3  13  -3  179.52    5.94
  -3  13   3  190.83    7.09
  -3 -13  -3  174.22    5.49
  -3 -13   3  180.12    6.11
  -3 -13   3  173.26    6.10
   3 -13  -3  172.62    6.09
  -3 -13   3  177.30    3.78
  -3  13  -3  173.11    5.62
   3  13   3  173.64    5.20
  -3  13  -3  174.30    5.16
   3 -13  -3  180.10    4.36
   3  13   3  178.75    6.24
   3 -13  -3  168.55    5.72
  -3  13   3  175.35    6.12
  -3 -13  -3  177.39    6.16
   3  13   3  178.89    5.45
  -3 -13   3  177.48    6.22
   3 -13   3  175.03    5.65
   3  13  -3  176.32    5.90
   3 -14   3    5.99    1.21
   3  14  -3    7.03    1.43
   3 -14  -3    8.27    1.51
   3 -14  -3    7.48    1.45
  -3  14   3    7.74    1.43
  -3 -14   3    5.66    0.77
  -3  14  -3    5.18    0.94
  -3  14  -3    7.25    1.24
   3  14   3    6.16    1.10
  -3 -14  -3    6.57    1.17
   3 -14  -3    5.57    0.78
   3 -14  -3    5.35    1.14
  -3  14   3    8.62    1.56
   3  14   3    6.99    1.23
  -3 -14  -3    7.86    1.43
  -3 -14   3    6.32    1.29
   3 -14   3    5.50    1.14
   3  14  -3    7.52    1.58
  -3 -14  -3    5.42    1.18
  -3 -14   3    4.55    1.22
  -3  14   3    6.14    1.29
  -3  14  -3    6.44    1.22
  -3  14   3    7.02    1.65
   3  14   3    6.87    1.45
  -3 -14   3    6.99    1.42
   3 -14  -3    4.55    1.13
   3  14   3    5.72    1.12
  -3 -14   3    7.49    1.69
  -3  15   3  505.19   11.35
   3  15   3  481.02   11.87
  -3 -15  -3  485.66   10.56
  -3  15  -3  475.78   10.78
  -3 -15   3  480.85   11.25
   3  15   3  477.81   10.43
   3 -15  -3  480.19   10.99
   3  15  -3  490.10   11.22
   3 -15   3  485.00   10.88
  -3 -15  -3  477.79   10.50
  -3 -15   3  493.36   11.37
  -3 -15   3  496.03   11.62
  -3 -15   3  500.85    8.05
   3 -15  -3  493.53    8.00
   3  15   3  450.28    9.29
  -3  15   3  496.68   11.26
  -3  15  -3  483.60   10.84
  -3  15  -3  484.60    9.81
  -3  15   3  497.15   12.66
   3  15   3  492.76   10.55
  -3  15   3  483.72   11.51
   3 -15  -3  491.17   11.08
   3 -15  -3  500.78    8.02
   3  15  -3  491.07   11.21
   3 -15   3  482.91   10.86
   3  16  -3    2.07    0.87
   3  16   3    5.15    1.03
  -3 -16   3    5.29    0.77
  -3  16   3    4.62    1.16
   3 -16  -3    2.77    0.51
  -3  16  -3    1.64    0.86
   3 -16  -3    2.06    0.45
  -3  16  -3    1.37    0.73
  -3 -16  -3    2.53    0.97
   3  16   3    4.92    1.22
  -3  16   3    5.09    1.31
   3  16  -3    2.25    0.84
  -3  16   3    5.52    1.62
  -3 -16  -3    1.44    0.77
  -3 -16   3    7.11    1.56
  -3  16   3    4.89    1.19
  -3  16  -3    2.60    0.96
   3  16   3    5.67    1.42
   3  16   3    3.79    0.98
  -3  17   3   32.03    2.81
  -3  17   3   29.30    2.74
  -3  17  -3   26.74    2.56
   3  17   3   29.42    2.53
   3  17  -3   30.14    2.71
  -3 -17   3   29.82    2.83
   3  17   3   28.66    2.00
  -3  17  -3   29.51    2.64
  -3  17  -3   30.71    2.31
  -3  17   3   29.60    3.08
   3  17   3   28.59    3.02
   3  17   3   31.51    2.62
  -3  17   3   30.10    2.81
   3  17  -3   29.14    2.67
   3  18  -3    2.84    1.11
  -3  18   3    5.79    1.50
  -3  18  -3    2.42    1.11
  -3  18  -3    4.70    1.07
   3  18   3    4.18    1.19
   3  18  -3    3.71    1.30
  -3  18   3    2.84    1.18
  -3 -18   3    5.68    1.60
  -3  18  -3    3.42    1.13
  -3  18   3    5.17    1.67
   3  18   3    3.77    1.13
   3  18   3    3.99    1.07
   3  19   3  479.99   11.70
  -3 -19   3  466.12   12.45
  -3  19   3  469.66   13.49
   3  19   3  466.71   13.33
   3  19   3  471.70   11.61
  -3  19  -3  448.08   10.27
  -3 -20   3    3.23    1.40
  -3  20   3    5.31    1.80
   3  20   3    2.60    1.29
   3  21   3   17.23    2.71
   3  22   3    5.19    2.02
   3  23   3  261.14   10.83
   4   0   3   50.43    2.69
  -4   0  -3   60.08    3.00
   4   0  -3   59.05    2.83
   4   0  -3   61.68    3.11
   4   0  -3   52.33    2.82
   4   0   3   55.06    2.17
   4   0  -3   53.36    2.71
   4   0   3   56.30    2.20
  -4   0   3   53.23    2.85
  -4   0  -3   56.87    1.63
   4   0   3   55.91    2.80
  -4   0   3   52.22    2.90
  -4   0  -3   49.81    1.17
  -4   0   3   53.29    2.28
  -4   0  -3   57.07    1.65
   4   0  -3   52.74    2.89
  -4   0   3   52.81    2.90
  -4   1  -3  438.45    8.88
  -4  -1  -3  426.03    8.93
   4   1   3  411.77    8.72
  -4  -1   3  413.90    8.90
   4  -1   3  419.40    7.40
   4   1   3  436.34    7.36
   4   1  -3  452.75    8.85
   4  -1  -3  445.68    8.80
   4  -1   3  425.78    7.40
   4  -1  -3  452.47    9.23
   4   1  -3  440.49    9.10
   4  -1  -3  446.80    8.80
   4   1   3  433.18    7.33
  -4  -1  -3  450.11    6.37
  -4   1   3  419.08    8.98
   4  -1   3  422.59    8.62
  -4  -1   3  423.36    7.46
   4  -1   3  426.58    6.08
   4  -1   3  420.09    7.39
   4   1   3  434.59    8.86
  -4   1   3  429.87    9.18
   4  -1  -3  446.93    9.30
   4  -1  -3  449.48    9.45
  -4   1   3  423.77    7.77
   4   1  -3  448.89    9.30
  -4  -1   3  427.43    9.16
   4  -1   3  425.38    7.39
  -4  -1  -3  449.07    6.63
   4   1  -3  450.45    9.23
   4  -1   3  413.61    8.60
  -4   1  -3  432.31    5.72
  -4  -1   3  432.34    9.13
   4   1  -3  439.20    8.75
  -4   1   3  428.47    9.14
   4   2   3    5.34    1.02
   4   2  -3    5.03    1.04
   4  -2  -3    7.26    1.23
  -4  -2   3    4.95    0.95
  -4   2   3    6.45    1.17
  -4  -2   3    5.95    0.77
   4  -2   3    7.06    1.10
   4   2  -3    7.87    1.12
   4   2   3    5.78    0.74
   4   2   3    5.40    1.04
  -4   2   3    6.30    0.89
   4  -2   3    5.47    0.76
   4   2   3    5.28    0.70
   4   2  -3    6.00    1.05
  -4   2  -3    9.30    1.39
  -4  -2  -3    7.72    1.38
   4  -2  -3    4.54    0.90
   4  -2   3    7.38    0.89
  -4  -2   3    5.41    0.96
   4  -2   3    6.49    0.55
   4  -2   3    5.43    0.78
   4   2  -3    5.70    1.02
   4  -2  -3    4.22    0.96
   4  -2  -3    5.88    1.05
  -4  -2  -3    5.98    0.61
  -4  -2   3    5.90    1.06
  -4  -2   3    6.32    1.01
  -4   2   3    7.29    1.30
   4  -2   3    7.33    1.15
   4  -2   3    6.35    0.81
  -4   2   3    5.35    1.16
   4  -2  -3    6.45    1.19
   4   2  -3    5.76    1.10
  -4   3   3  810.14   13.97
  -4  -3  -3  814.55   13.81
   4   3   3  832.00   13.73
   4   3  -3  829.03   13.89
   4  -3   3  814.62   12.00
   4   3   3  849.92   11.87
  -4  -3   3  818.78   13.86
   4   3  -3  842.57   13.54
   4   3   3  850.28   11.87
  -4  -3   3  803.44   13.41
  -4  -3  -3  813.04   11.04
   4  -3  -3  833.65   13.63
   4   3  -3  831.87   13.48
  -4  -3  -3  820.67   12.12
   4  -3   3  831.19   10.76
   4  -3  -3  825.68   14.02
  -4   3   3  847.64   14.10
   4  -3  -3  818.05   13.57
   4  -3   3  822.35   13.29
  -4   3   3  821.68   12.83
   4   3   3  820.64   13.67
   4  -3   3  822.39   12.01
   4   3  -3  832.12   14.00
  -4   3   3  843.30   14.50
   4  -3  -3  850.44   14.57
  -4  -3   3  822.05   13.50
   4  -3   3  832.53   13.33
   4   3  -3  842.43   14.10
  -4  -3   3  828.62   14.06
   4  -3  -3  843.97   14.24
  -4   3  -3  831.91   13.46
  -4   4   3   32.87    2.32
   4   4   3   30.04    2.15
  -4  -4  -3   30.39    2.28
  -4  -4  -3   26.67    2.01
   4   4   3   29.42    1.61
   4  -4  -3   30.95    2.07
  -4   4   3   31.65    2.30
   4  -4   3   27.94    1.67
   4  -4  -3   30.91    2.05
   4   4  -3   29.33    2.07
   4  -4  -3   30.84    2.17
  -4  -4   3   31.65    2.13
   4  -4   3   28.47    1.70
  -4  -4   3   31.27    2.26
   4   4   3   26.39    1.52
  -4  -4   3   29.72    2.06
  -4  -4  -3   32.66    1.81
   4   4  -3   28.92    2.05
   4   4  -3   30.12    2.16
   4  -4   3   29.20    2.00
  -4   4   3   32.53    2.04
   4  -4  -3   31.83    2.28
   4  -4   3   32.01    1.44
  -4  -4  -3   28.43    1.69
   4   4   3   29.87    2.15
  -4  -4  -3   30.31    1.51
   4   4  -3   29.64    2.16
  -4   4   3   28.00    2.32
   4  -4  -3   28.88    2.34
   4  -4   3   28.19    1.95
   4   4  -3   29.82    2.22
  -4  -4   3   30.38    2.30
   4  -4  -3   33.75    2.38
  -4   4  -3   30.10    2.15
  -4   5  -3  120.90    4.21
  -4   5   3  126.06    4.66
  -4  -5  -3  124.22    4.46
   4   5   3  132.99    3.66
   4   5   3  125.89    4.47
   4  -5  -3  126.61    4.33
   4   5  -3  123.74    4.34
   4  -5   3  131.05    3.82
  -4  -5   3  129.25    4.45
   4   5   3  128.48    3.61
  -4  -5   3  130.73    4.48
  -4  -5  -3  130.62    3.83
   4  -5   3  130.28    3.81
   4   5  -3  119.60    4.28
   4   5  -3  123.34    4.53
  -4  -5   3  128.30    4.64
  -4   5   3  136.15    4.76
   4  -5  -3  127.01    4.68
  -4  -5  -3  124.20    3.73
   4  -5   3  130.25    4.24
   4  -5   3  130.75    3.33
   4  -5  -3  124.64    4.29
  -4  -5  -3  123.66    3.33
   4   5   3  132.91    4.56
  -4   5   3  129.34    4.28
   4   5  -3  129.02    4.58
  -4   5   3  135.74    5.07
   4  -5  -3  136.07    5.06
   4  -5   3  127.49    4.21
  -4  -5   3  133.77    4.78
   4  -5  -3  122.32    4.63
   4  -6   3    0.25    0.15
  -4  -6   3    0.17    0.76
   4  -6  -3    0.35    0.62
   4   6   3    0.59    0.76
  -4   6   3    0.92    0.86
  -4  -6   3   -0.36    0.65
   4   6   3   -0.10    0.42
   4   6   3    1.20    0.86
   4  -6  -3    1.06    0.74
  -4   6   3    0.19    0.59
   4  -6   3    0.85    0.54
   4   6  -3    0.30    0.54
  -4  -6   3    0.72    0.69
  -4   6   3    0.88    0.91
   4  -6   3    0.01    0.57
   4   6   3    1.05    0.52
  -4   6  -3    3.51    1.07
   4   6  -3    0.17    0.56
  -4  -6  -3    1.30    0.65
  -4  -6  -3    1.79    0.58
  -4  -6   3    0.56    0.65
   4  -6  -3    1.87    0.86
   4  -6   3    0.21    0.40
  -4  -6  -3    1.15    0.59
   4  -6  -3    1.06    0.72
   4   6  -3    1.23    0.83
   4   6   3    0.16    0.14
  -4   6   3   -0.67    0.77
   4  -6  -3    0.48    0.90
   4  -6   3    0.79    0.61
   4   6  -3    1.29    0.75
  -4  -6  -3    1.69    0.68
  -4  -7  -3  797.96   13.72
  -4   7  -3  807.37   12.87
   4   7   3  757.32   13.32
  -4  -7   3  797.46   10.44
   4   7  -3  778.81   13.43
   4  -7  -3  804.19   13.40
   4  -7   3  768.87   12.37
  -4  -7  -3  787.86   12.33
  -4  -7   3  771.16   13.79
  -4  -7   3  757.17   13.38
   4   7   3  789.29   12.03
  -4  -7  -3  807.80   11.83
   4   7  -3  786.89   13.48
  -4  -7  -3  787.00   12.32
  -4  -7   3  789.55   13.56
   4  -7  -3  773.74   14.04
   4  -7   3  761.49   11.53
  -4   7   3  773.50   13.92
  -4   7   3  795.99   13.42
   4  -7   3  788.93   12.56
   4   7  -3  802.56   13.98
   4  -7  -3  781.36   13.26
   4   7   3  765.93    9.83
  -4   7   3  781.07   14.76
   4  -7   3  775.08   12.38
   4  -7  -3  787.07   14.86
  -4  -7   3  756.12   13.95
   4  -7   3  773.36    9.57
   4   7   3  768.68   13.43
   4  -7  -3  821.98   14.25
   4   7   3  773.78   11.96
  -4  -8   3    1.83    0.92
   4  -8   3    1.75    0.36
   4  -8  -3    1.30    0.88
   4  -8   3    2.16    0.78
   4   8   3    1.95    0.62
   4   8   3    1.85    0.88
   4   8  -3    1.13    0.79
  -4  -8  -3    0.51    0.56
   4  -8  -3    0.51    0.71
  -4   8   3    3.00    0.91
   4  -8   3    1.79    0.67
   4   8   3    2.53    0.65
  -4  -8  -3    0.01    0.49
  -4  -8   3    1.38    0.73
   4   8  -3    1.29    0.82
  -4   8  -3    2.44    0.98
  -4  -8  -3    0.84    0.71
  -4  -8   3    1.63    0.38
   4  -8   3    1.34    0.50
  -4  -8   3    0.97    0.68
  -4  -8  -3    1.26    0.66
  -4  -8   3    0.97    0.78
   4  -8  -3    1.03    0.90
   4   8  -3    1.38    0.69
   4  -8  -3    0.63    0.72
  -4   8   3    2.92    1.29
   4   8   3    1.25    0.41
   4  -8  -3    1.47    0.96
   4  -8   3    2.26    0.67
   4   8   3    0.49    0.79
   4   9  -3   23.43    2.04
   4  -9  -3   19.70    2.05
   4  -9  -3   19.96    1.88
  -4  -9   3   19.06    2.02
   4  -9   3   20.42    1.74
  -4  -9  -3   21.52    1.71
  -4  -9   3   18.54    1.84
   4  -9   3   22.54    1.61
   4   9   3   21.74    1.64
   4   9  -3   23.79    2.06
  -4  -9  -3   21.21    1.70
  -4  -9   3   20.58    1.96
  -4  -9   3   22.78    2.11
   4   9   3   23.03    1.46
   4  -9   3   20.78    1.62
  -4  -9  -3   20.35    1.65
   4   9   3   19.72    1.87
   4   9  -3   22.90    2.09
  -4   9   3   20.27    1.96
   4  -9   3   26.60    1.95
  -4   9   3   21.20    2.34
   4   9   3   17.96    1.76
  -4  -9   3   21.05    1.12
   4  -9  -3   20.13    1.88
  -4  -9  -3   20.55    1.99
   4   9   3   21.15    1.64
   4  -9   3   23.27    1.18
   4  -9  -3   21.53    2.07
   4  10  -3   21.07    1.98
  -4  10  -3   22.27    1.92
   4 -10  -3   20.81    1.94
   4 -10   3   22.60    1.88
  -4 -10  -3   20.22    1.75
  -4 -10   3   20.72    2.02
   4  10   3   21.86    1.77
   4  10  -3   23.45    2.09
  -4 -10  -3   23.37    1.77
  -4 -10  -3   22.05    1.81
  -4 -10   3   23.95    2.14
  -4 -10   3   21.76    2.13
   4 -10   3   22.57    1.65
   4  10   3   19.29    1.88
  -4  10  -3   20.47    1.84
   4 -10  -3   20.64    1.94
   4  10   3   22.27    1.73
  -4  10   3   21.79    2.00
   4  10   3   23.75    1.67
   4 -10   3   22.71    1.85
  -4  10   3   24.86    2.56
  -4 -10   3   22.74    1.18
  -4 -10   3   22.34    2.18
  -4 -10  -3   20.55    2.00
   4  10   3   21.18    1.93
   4 -10  -3   21.49    2.13
   4 -10   3   22.85    1.28
   4 -11  -3  504.61   11.34
   4 -11   3  524.35    8.34
  -4  11  -3  497.29   10.34
   4 -11  -3  494.56   10.70
  -4 -11  -3  487.98    9.95
   4 -11   3  508.89   10.38
  -4 -11   3  504.25   11.08
   4  11   3  531.49   10.05
   4  11  -3  509.90   10.96
  -4 -11  -3  494.58    9.97
  -4 -11  -3  502.33    9.83
  -4 -11   3  520.73   11.24
  -4 -11   3  513.62   11.35
  -4  11  -3  513.74   10.31
   4 -11   3  523.04    9.83
  -4  11  -3  495.86   10.30
  -4  11   3  528.68   12.38
  -4  11   3  525.07   11.28
   4 -11  -3  501.97   10.77
   4  11   3  544.48   10.02
   4 -11   3  512.16   10.40
  -4 -11   3  528.88    7.81
  -4 -11   3  535.21   11.66
  -4 -11  -3  509.42   11.13
   4  11   3  533.41   10.06
   4  11   3  526.03   10.57
   4  11   3  521.85   10.54
   4  11  -3  507.04   10.92
   4  12   3    1.83    0.81
  -4 -12   3    0.47    0.89
   4 -12  -3    1.41    0.78
   4 -12   3    1.12    0.46
   4  12  -3    1.88    0.96
   4  12   3   -0.34    0.72
  -4  12  -3    1.62    0.89
  -4  12  -3    1.39    0.79
  -4  12  -3    2.12    0.91
  -4  12   3    1.10    0.66
   4 -12  -3    1.03    0.84
  -4 -12   3    1.67    0.45
   4 -12   3    2.07    0.88
  -4 -12  -3    1.24    0.66
   4  12   3    1.24    0.72
  -4 -12  -3    1.72    0.86
  -4 -12   3    1.04    0.86
   4  12  -3    1.05    0.80
  -4 -12  -3    0.43    0.62
  -4 -12   3    1.63    0.90
  -4 -12   3    1.37    0.95
   4 -12   3    0.21    0.50
   4  12   3    1.21    0.75
  -4  12   3    0.77    1.22
   4  12   3    1.48    0.75
   4 -12  -3    1.74    0.92
   4 -12   3    1.62    0.91
   4 -13   3  501.24   10.25
   4 -13   3  518.99    8.94
  -4  13  -3  502.52   10.89
  -4 -13  -3  503.68   10.58
   4 -13  -3  501.75   11.21
  -4 -13   3  490.01   11.34
   4 -13   3  483.00   10.60
   4  13   3  500.02   10.39
   4  13  -3  513.86   11.41
  -4 -13  -3  498.94   10.55
  -4 -13   3  491.40   11.52
   4  13   3  509.93   10.45
  -4  13  -3  508.84   10.49
  -4  13  -3  506.61   10.92
   4 -13   3  497.69   10.72
  -4 -13   3  514.18    8.04
  -4  13   3  522.75   12.78
  -4  13   3  514.20   11.62
   4  13   3  517.09   11.01
   4 -13  -3  501.88   11.22
  -4 -13   3  488.66   11.31
   4  13   3  509.75   10.43
  -4 -13  -3  506.87   11.51
   4  13   3  499.11   10.38
  -4 -13   3  503.66   11.86
   4  13  -3  509.79   11.37
   4 -14   3   34.35    2.01
  -4  14  -3   35.70    2.74
  -4  14   3   31.31    3.06
  -4 -14  -3   36.42    2.68
   4 -14  -3   35.10    2.78
   4  14   3   33.28    2.77
   4 -14   3   35.06    2.68
   4  14   3   33.65    2.48
   4  14  -3   33.89    2.77
  -4 -14  -3   33.11    2.58
  -4 -14   3   37.22    2.99
   4  14   3   31.57    2.37
  -4  14  -3   34.27    2.48
  -4  14  -3   29.95    2.50
  -4  14   3   39.57    3.09
   4 -14  -3   34.02    2.74
   4  14   3   35.42    2.50
   4 -14   3   30.02    2.49
   4  14   3   32.05    2.43
  -4 -14   3   37.35    3.06
  -4 -14   3   34.80    1.73
   4  14  -3   33.85    2.76
   4 -15   3   99.29    3.68
  -4  15  -3  100.08    4.68
  -4 -15  -3  100.53    4.57
   4  15   3   97.58    4.40
   4 -15   3   99.51    4.66
   4  15  -3  102.21    4.91
  -4 -15  -3  102.16    4.61
   4  15   3   95.45    4.15
   4 -15  -3  103.00    3.19
  -4  15  -3  103.18    4.76
  -4  15  -3  100.70    4.36
  -4 -15   3   94.95    3.09
  -4  15   3  100.67    5.48
   4  15   3   99.16    4.21
   4  15   3   94.23    4.76
  -4  15   3  100.72    5.02
  -4 -15   3   98.54    5.01
   4  15   3   95.47    4.36
   4 -15   3  100.43    4.67
  -4 -15   3  103.57    5.19
   4  15  -3  104.97    4.98
  -4 -16   3    1.54    1.14
   4  16  -3    1.49    0.86
   4 -16   3    2.28    0.83
  -4  16  -3    0.42    0.95
  -4  16  -3    1.52    0.82
  -4  16   3    2.31    1.02
   4  16   3    1.64    0.89
  -4 -16  -3    3.76    1.21
   4  16   3    2.73    0.91
   4  16  -3    3.17    1.25
  -4 -16  -3    2.76    1.11
   4 -16  -3    1.35    0.49
  -4 -16   3    1.43    1.06
  -4  16  -3    1.11    0.99
  -4  16   3    5.10    1.65
   4  16   3    1.28    1.03
   4  16   3    2.51    0.97
   4 -17   3  404.46    8.90
  -4  17  -3  409.97   10.68
  -4  17  -3  412.70   10.72
   4  17   3  410.35   10.41
   4  17  -3  411.47   11.02
   4  17   3  408.62    9.30
  -4  17  -3  412.55    9.85
  -4  17   3  430.45   12.31
   4  17   3  380.54   11.06
  -4 -17   3  424.51   11.55
   4  17   3  405.07   10.33
  -4 -17   3  418.39   11.51
   4  17  -3  409.96   11.01
  -4  18  -3   -0.69    0.92
  -4  18  -3    0.86    0.69
   4  18   3    0.18    0.96
  -4  18  -3    0.76    0.91
  -4  18   3    0.94    1.51
  -4 -18   3   -0.40    1.14
   4  18   3   -0.10    0.89
   4  18   3    0.53    0.82
  -4  19   3    3.08    1.36
  -4  19  -3    2.03    0.85
  -4 -19   3    1.93    1.41
   4  19   3    3.05    1.31
   4  20   3    3.11    1.28
   5   0  -3   -0.03    0.75
  -5   0  -3    0.47    0.39
  -5   0   3   -1.42    0.89
   5   0  -3    1.74    0.87
  -5   0   3    0.08    0.56
   5   0  -3    0.05    0.76
   5   0   3    0.71    0.85
   5   0   3    0.56    0.80
   5   0  -3    0.71    0.75
   5   0   3    0.04    0.51
   5   0   3   -0.56    0.39
   5   0   3    0.09    0.46
   5   0  -3    0.63    0.95
  -5   0   3   -0.13    0.92
  -5   0  -3   -0.19    0.44
  -5   0   3    0.77    0.98
  -5  -1   3  857.97   14.77
   5  -1   3  851.06   14.53
   5   1   3  857.85   12.93
   5   1   3  835.73   14.66
   5   1   3  861.84   12.94
   5   1  -3  865.46   14.55
   5  -1  -3  869.27   14.68
   5  -1   3  840.36   13.03
   5  -1   3  835.07   11.48
   5   1  -3  868.77   14.95
   5   1  -3  860.15   14.53
   5  -1  -3  870.01   14.67
  -5  -1   3  817.83   14.73
   5  -1   3  825.73   12.96
  -5   1   3  848.92   14.96
  -5  -1   3  828.76   13.05
  -5   1  -3  857.78   11.62
  -5   1   3  817.76   13.31
  -5   1   3  835.78   14.73
   5  -1   3  864.20   14.64
   5   1   3  836.79   14.75
   5   1  -3  857.64   14.87
   5  -1  -3  877.31   15.18
  -5   1  -3  826.59    9.94
  -5  -1  -3  848.53   11.76
   5  -1  -3  861.62   14.97
   5   1  -3  861.03   15.03
  -5  -1  -3  847.16   11.68
   5  -1  -3  866.52   15.07
  -5   1  -3  853.45   10.96
  -5  -1   3  848.09   14.90
  -5   1   3  828.48   14.87
  -5   2  -3   20.66    0.98
   5  -2   3   19.28    1.87
  -5  -2   3   19.57    1.91
   5  -2   3   17.30    1.47
   5  -2   3   19.48    1.55
   5   2   3   20.97    2.07
   5   2   3   19.06    1.46
   5   2  -3   22.71    1.98
   5  -2  -3   22.59    2.06
   5  -2   3   18.71    1.52
   5  -2  -3   21.05    1.98
   5   2  -3   22.87    2.00
   5   2  -3   22.11    2.04
   5  -2   3   20.31    1.24
  -5  -2  -3   21.49    1.33
   5  -2   3   20.27    1.56
  -5   2   3   19.00    1.66
   5  -2  -3   19.71    1.97
  -5   2   3   21.31    2.02
   5   2   3   18.95    1.47
   5  -2   3   19.61    1.91
  -5   2   3   19.40    2.02
   5   2  -3   19.20    1.91
   5   2   3   21.31    2.03
   5  -2  -3   21.21    2.09
  -5   2  -3   21.48    1.04
  -5  -2  -3   19.93    1.33
   5   2  -3   20.94    2.02
   5  -2  -3   18.54    1.96
  -5  -2   3   19.54    1.98
  -5   2   3   21.87    2.08
  -5   3   3  221.19    6.60
   5  -3   3  223.97    6.34
   5  -3   3  218.76    5.53
   5   3   3  222.67    6.64
   5  -3   3  219.45    5.57
   5   3   3  220.61    5.36
   5   3   3  217.45    6.56
  -5   3  -3  224.14    4.33
  -5  -3   3  214.01    6.26
   5   3  -3  219.48    6.37
   5  -3  -3  227.32    6.55
   5   3   3  223.96    5.39
   5  -3   3  219.96    5.56
   5   3  -3  225.18    6.42
  -5  -3   3  221.67    6.35
   5  -3   3  212.95    4.53
   5  -3  -3  219.15    6.67
  -5  -3  -3  222.12    4.78
  -5  -3   3  218.14    6.52
  -5   3   3  211.49    6.52
   5  -3  -3  225.00    6.52
   5  -3  -3  225.93    6.86
  -5   3   3  217.66    5.87
   5  -3   3  229.81    6.41
   5  -3   3  216.50    5.50
   5   3  -3  216.82    6.54
  -5   3   3  223.71    6.78
   5   3  -3  221.40    6.48
  -5  -3  -3  220.96    5.00
   5   3  -3  226.11    6.73
   5  -3  -3  236.90    6.81
  -5  -3   3  220.97    6.74
  -5  -4   3   14.91    1.77
   5  -4  -3   13.16    1.68
  -5  -4   3   12.89    1.57
  -5   4   3   12.28    1.67
   5  -4   3   13.03    1.34
   5  -4   3   13.19    1.55
  -5   4   3   11.41    1.44
   5   4   3   14.41    1.82
   5   4   3   12.45    1.20
   5   4  -3   11.37    1.48
   5   4   3   11.28    1.62
  -5  -4  -3   11.60    1.08
   5  -4   3   12.62    1.03
   5   4   3   12.17    1.17
   5   4  -3   14.26    1.63
   5  -4  -3   11.08    1.47
  -5  -4  -3   10.74    1.19
   5   4  -3   12.32    1.58
  -5  -4   3   10.72    1.50
   5  -4  -3   13.05    1.58
  -5  -4   3   11.47    1.46
   5  -4  -3   11.96    1.55
  -5  -4  -3   10.81    1.19
  -5   4   3   13.46    1.71
   5  -4   3   11.04    1.21
   5   4  -3   11.21    1.48
  -5   4   3   10.02    1.64
   5  -4   3   10.44    1.35
   5  -4  -3   12.72    1.79
   5   4  -3   12.57    1.68
  -5   5   3  487.51   10.64
  -5   5   3  490.44   10.71
  -5  -5  -3  504.51   10.53
   5   5   3  492.11    8.99
   5  -5  -3  497.18   10.30
   5  -5   3  491.20    9.29
   5  -5   3  491.53    9.29
   5   5  -3  491.04   10.35
   5   5   3  509.70   10.75
   5  -5  -3  493.28   11.16
   5   5   3  497.81    9.03
  -5  -5   3  485.83   10.32
  -5  -5  -3  489.13    9.33
   5   5  -3  499.57   10.42
   5   5  -3  477.25   10.54
  -5  -5  -3  495.87    8.48
   5  -5  -3  482.05   10.75
   5  -5   3  501.41    8.35
  -5  -5   3  498.24   10.42
  -5  -5  -3  498.55    9.38
   5  -5   3  492.49    9.99
  -5   5   3  484.46    9.97
   5  -5  -3  488.56   10.23
   5   5  -3  504.82   10.49
  -5   5   3  487.09   11.02
   5   5   3  496.18   10.65
   5  -5  -3  504.80   10.56
  -5  -5   3  487.17   10.59
   5  -5   3  492.63    9.96
  -5  -5   3  499.20   10.91
   5  -5  -3  498.73   10.78
  -5   6   3   38.07    2.70
  -5  -6  -3   41.98    2.80
   5   6   3   38.78    2.21
   5  -6  -3   42.04    2.69
   5   6  -3   41.46    2.75
   5  -6   3   36.58    2.26
   5   6   3   35.49    2.67
   5   6   3   37.83    2.19
  -5  -6   3   40.26    2.69
  -5  -6  -3   38.37    2.33
   5   6  -3   37.98    2.66
  -5  -6  -3   38.87    2.06
  -5  -6   3   37.21    2.69
   5  -6  -3   43.23    2.95
   5  -6   3   39.73    2.03
  -5  -6  -3   36.32    2.27
  -5   6   3   39.66    2.79
   5  -6   3   40.39    2.53
  -5   6   3   37.83    2.52
   5  -6  -3   41.54    2.71
   5   6  -3   36.67    2.62
  -5  -6   3   40.18    2.70
  -5   6   3   39.60    2.94
   5  -6   3   36.48    2.25
   5   6   3   39.12    2.79
   5  -6  -3   41.38    3.03
   5  -6   3   41.03    2.57
   5   6  -3   36.10    2.67
  -5  -6   3   39.18    2.79
   5  -6  -3   42.31    2.86
   5   7   3   15.07    1.38
  -5  -7   3   12.52    1.67
   5  -7  -3   14.91    1.79
   5  -7   3   15.46    1.56
   5  -7   3   15.31    1.50
  -5   7   3   13.79    1.64
   5  -7  -3   15.77    1.72
   5   7   3   14.50    1.79
   5   7  -3   14.99    1.76
   5   7   3   16.04    1.46
  -5  -7  -3   16.71    1.58
   5   7   3   13.46    1.76
   5   7  -3   16.11    1.83
  -5  -7  -3   15.01    1.34
  -5  -7  -3   12.00    1.57
  -5  -7   3   13.89    1.66
   5  -7   3   14.96    1.55
  -5  -7  -3   15.81    1.56
   5  -7   3   14.96    1.28
  -5  -7   3   12.53    1.64
  -5  -7   3   16.84    1.86
  -5   7   3   14.53    1.76
   5  -7  -3   18.01    1.86
   5   7  -3   14.89    1.72
  -5   7   3   12.34    1.79
   5  -7   3   13.83    1.44
   5  -7   3   14.97    0.84
  -5  -8   3    2.00    0.95
   5  -8   3    2.50    0.44
   5  -8  -3    4.80    1.09
   5   8   3    2.35    0.71
   5   8   3    4.28    1.25
  -5   8   3    1.94    0.83
   5  -8  -3    3.64    1.07
   5  -8   3    2.55    0.70
   5   8  -3    5.00    1.19
   5   8  -3    4.94    1.07
   5  -8   3    2.29    0.75
   5   8   3    2.14    1.04
   5  -8   3    3.01    0.85
   5   8   3    2.26    0.75
   5   8  -3    3.45    0.93
  -5  -8  -3    3.21    0.98
  -5  -8   3    2.85    0.85
  -5  -8   3    1.81    0.50
  -5  -8  -3    4.42    0.89
  -5  -8  -3    3.50    0.90
  -5  -8   3    3.49    0.96
  -5  -8   3    2.68    0.95
   5   8   3    2.57    0.28
   5  -8  -3    4.59    1.19
  -5  -8  -3    4.17    0.90
  -5   8   3    3.96    1.32
   5  -8   3    3.41    0.88
  -5  -9   3  692.85   10.47
  -5  -9  -3  681.38   12.39
   5   9  -3  691.30   13.53
   5   9   3  697.54   13.56
   5  -9  -3  681.69   13.33
  -5  -9  -3  690.96   11.89
   5  -9   3  706.31   12.75
  -5  -9  -3  672.13   12.34
   5   9   3  720.07   12.35
  -5  -9   3  706.09   13.64
   5   9  -3  691.78   13.54
  -5  -9   3  708.56   13.90
  -5  -9   3  752.47   13.97
   5  -9   3  700.61   11.85
   5  -9   3  710.19   12.25
  -5   9   3  701.68   13.57
   5  -9  -3  674.13   13.28
   5   9   3  699.28   13.57
  -5   9   3  718.19   14.80
   5   9   3  697.35    9.41
   5  -9   3  719.25   12.82
  -5  -9   3  716.08   14.20
   5  -9   3  741.25    9.98
   5  -9  -3  677.13   13.77
  -5  -9  -3  699.48   13.67
   5   9   3  727.85   12.40
  -5 -10   3    3.75    1.23
   5 -10   3    4.07    0.64
   5 -10  -3    3.16    1.08
   5 -10   3    3.48    0.84
   5  10   3    2.76    0.81
   5  10   3    3.42    0.98
   5  10  -3    2.50    1.04
   5  10   3    4.21    1.11
  -5  10   3    3.90    1.07
   5 -10  -3    3.08    1.04
  -5 -10   3    5.37    1.25
   5 -10   3    4.09    0.96
   5  10   3    4.37    0.94
  -5 -10   3    3.36    0.61
   5  10  -3    1.48    0.83
  -5 -10  -3    4.14    1.31
  -5 -10  -3    3.10    0.87
  -5 -10   3    4.40    1.14
  -5 -10  -3    3.26    0.81
  -5 -10   3    3.20    1.08
   5 -10   3    3.60    0.81
  -5 -10  -3    3.10    0.89
   5 -10  -3    2.81    0.95
  -5  10   3    4.23    1.28
   5  10   3    3.45    0.64
   5 -10   3    3.98    1.06
   5 -11   3  304.27    6.98
   5  11  -3  311.53    8.64
   5  11   3  301.34    8.25
   5 -11  -3  310.80    8.51
   5 -11   3  303.57    7.98
  -5 -11  -3  301.88    7.75
  -5 -11   3  289.64    8.40
   5  11   3  303.83    7.59
   5  11  -3  314.14    8.68
  -5  11   3  307.05    8.60
  -5 -11  -3  304.48    7.49
  -5 -11  -3  309.98    7.85
  -5  11  -3  307.06    8.14
  -5 -11   3  312.86    8.82
   5 -11   3  307.57    7.44
   5  11   3  309.06    8.38
   5 -11  -3  304.25    8.41
  -5  11   3  331.11    9.64
   5  11   3  320.00    6.52
   5 -11   3  303.07    7.99
  -5 -11   3  289.59    8.41
  -5 -11   3  313.51    6.03
  -5 -11   3  312.69    8.96
  -5 -11  -3  306.57    8.62
   5  11   3  306.15    7.61
   5 -11   3  311.73    5.98
   5 -11  -3  300.87    8.77
   5  12   3   16.16    1.87
  -5 -12   3   17.03    2.13
  -5  12  -3   16.49    1.87
   5  12  -3   14.78    1.87
   5  12   3   16.49    1.92
  -5 -12   3   16.54    2.01
   5 -12   3   20.47    2.01
   5 -12   3   18.20    1.77
  -5  12   3   17.91    2.09
   5 -12  -3   14.77    1.83
   5  12   3   17.14    1.77
  -5 -12  -3   12.75    1.53
   5  12  -3   15.58    1.96
  -5 -12   3   16.57    1.93
  -5 -12  -3   15.78    1.69
  -5 -12   3   18.48    2.14
  -5 -12  -3   13.93    1.64
   5  12   3   19.37    1.63
   5 -12   3   19.03    1.99
  -5  12   3   20.72    2.47
  -5 -12   3   16.01    1.24
   5 -12  -3   14.67    1.83
   5  12   3   19.53    1.86
   5 -12   3   16.72    1.31
  -5 -13   3  201.43    7.22
   5 -13   3  195.51    6.59
  -5 -13  -3  185.58    6.26
   5  13   3  188.94    6.19
   5  13  -3  193.80    6.95
  -5 -13  -3  202.17    6.29
   5  13   3  193.04    6.25
   5 -13   3  190.50    6.06
  -5  13  -3  196.82    6.52
   5  13   3  194.58    6.51
  -5  13   3  196.75    7.61
  -5  13   3  196.87    7.10
   5  13   3  196.78    5.89
  -5 -13   3  194.02    4.69
   5 -13   3  194.06    6.57
  -5 -13  -3  190.07    6.33
  -5 -13   3  197.14    7.27
   5  13  -3  200.70    7.07
   5 -13   3  194.47    4.99
   5  13   3  187.90    6.43
  -5 -14   3    1.53    1.06
   5  14   3    1.86    0.87
  -5 -14   3    2.94    1.10
   5 -14   3    1.05    0.56
   5  14  -3    1.98    0.99
   5  14   3    1.80    0.84
  -5  14  -3    3.22    1.10
  -5  14   3    0.52    0.86
  -5 -14   3    1.40    0.51
   5 -14   3    3.51    1.22
   5  14   3    1.58    0.97
  -5 -14  -3    1.62    0.79
   5  14  -3    1.87    1.00
  -5 -14  -3    2.41    1.05
  -5 -14  -3    1.24    0.90
   5  14   3    1.81    0.79
  -5  14   3    0.68    1.00
   5  14   3    1.01    0.81
   5 -14   3    4.56    1.24
   5 -15   3  326.70    7.38
   5  15   3  316.50    8.72
  -5 -15  -3  331.73    9.11
   5  15   3  336.11    8.98
   5  15  -3  337.38    9.82
  -5 -15  -3  334.47    8.92
  -5  15  -3  337.63    9.05
  -5 -15   3  338.31   10.07
   5  15   3  332.76    8.94
  -5  15   3  342.26   10.69
  -5  15   3  336.89    9.99
   5  15   3  353.03    9.19
  -5 -15   3  345.55   10.22
   5  15   3  331.51    8.81
  -5 -15  -3  327.49    9.06
   5  15  -3  338.67    9.82
   5  16   3   11.32    1.71
  -5 -16   3   13.39    2.16
   5  16   3   12.54    1.72
  -5  16  -3   13.09    1.86
  -5  16  -3   12.86    1.81
   5  16   3   12.81    1.83
  -5 -16  -3   10.99    1.65
  -5 -16   3   13.23    2.05
   5  16   3   12.93    1.66
  -5  16  -3   13.49    1.97
  -5  16   3   12.65    2.13
   5  16   3   12.54    1.80
   5  17   3   20.42    2.31
  -5  17   3   22.42    2.88
  -5  17  -3   18.36    2.22
  -5  17  -3   14.77    1.88
   5  17   3   22.21    2.41
   5  17   3   17.67    2.02
  -5 -17  -3   20.18    2.26
  -5 -17   3   18.67    2.51
  -5  17  -3   15.81    2.11
   5  17   3   21.49    2.36
  -5  18  -3    8.29    1.51
   5  18   3    8.09    1.48
  -5 -18  -3   10.43    1.78
  -5 -18   3    5.89    1.91
  -5  18   3   10.77    2.20
  -5 -19  -3  352.61   10.30
  -5  19  -3  351.32    9.94
  -5 -20  -3    3.38    1.43
   6   0   3   34.94    2.26
   6   0   3   35.06    2.79
   6   0   3   35.31    2.27
   6   0  -3   32.25    2.56
   6   0   3   34.09    1.80
   6   0  -3   34.22    2.65
  -6   0   3   33.76    2.71
  -6   0   3   33.36    2.33
  -6   0  -3   32.65    1.83
  -6   0   3   34.96    2.74
   6   0  -3   33.80    2.69
   6   0   3   37.13    2.88
   6   0  -3   33.53    2.70
  -6   0  -3   34.83    1.79
  -6   0   3   36.65    2.78
   6  -1   3  413.29    9.91
   6   1   3  404.78   10.05
   6   1   3  402.70    8.41
   6   1  -3  384.01    9.45
   6  -1   3  405.54    8.55
   6  -1  -3  400.85    9.68
   6  -1   3  409.59    8.59
   6   1   3  395.76    7.22
   6  -1   3  398.34    7.29
   6  -1  -3  392.27    9.60
  -6  -1   3  393.60    9.79
  -6   1   3  397.13    9.87
  -6  -1  -3  389.84    7.45
   6   1  -3  397.18    9.58
  -6   1   3  385.22    8.73
  -6   1  -3  384.15    7.29
  -6  -1   3  416.04    9.69
  -6   1   3  385.75    9.54
   6   1  -3  387.78    9.53
   6  -1   3  412.60    9.93
   6  -1  -3  383.98    9.65
   6   1   3  405.58   10.05
   6   1   3  407.32    8.46
   6   1  -3  389.16    9.73
   6  -1  -3  376.18    9.61
  -6  -1  -3  386.64    7.18
  -6  -1   3  393.45    9.75
  -6   1  -3  386.39    6.72
  -6   1   3  399.79    9.86
   6   2  -3   10.31    1.65
  -6  -2  -3   10.55    1.12
   6  -2  -3   11.74    1.71
  -6  -2   3   10.22    1.72
  -6   2   3    8.45    1.49
  -6   2   3    9.37    1.40
   6  -2   3   11.70    1.35
   6  -2   3    9.95    1.62
   6   2   3   11.98    1.81
   6   2   3    9.89    1.23
   6  -2   3   12.07    1.66
   6   2  -3   11.62    1.71
   6  -2   3   10.53    1.06
   6   2  -3   10.34    1.60
   6  -2  -3   10.57    1.56
   6  -2   3    8.89    1.22
  -6  -2   3    8.80    1.56
  -6  -2  -3   10.77    1.13
  -6   2   3   10.46    1.67
   6   2   3    9.04    1.61
  -6   2  -3    9.58    1.07
   6  -2   3    9.36    1.22
  -6   2  -3   10.16    0.71
  -6   2   3    9.04    1.54
   6   2   3   10.66    1.26
   6   2  -3   13.72    1.86
   6  -2  -3   11.89    1.74
   6  -2  -3   10.74    1.62
   6  -2   3   10.79    1.35
  -6   2  -3    9.55    0.88
  -6   3   3  714.18   14.09
  -6   3  -3  709.63    9.90
   6  -3   3  723.96   12.62
   6  -3   3  728.29   13.88
   6   3   3  729.83   12.38
  -6   3   3  721.71   14.14
   6   3  -3  731.95   13.89
   6   3   3  733.49   14.51
   6  -3  -3  721.22   13.98
   6  -3   3  716.07   12.65
   6   3   3  722.85   12.35
   6   3  -3  737.43   13.91
   6  -3   3  717.29   11.17
  -6  -3  -3  697.41   11.43
   6  -3  -3  724.97   14.01
  -6   3   3  730.48   14.32
  -6   3   3  694.42   13.02
  -6  -3   3  702.55   14.05
   6  -3   3  717.88   12.58
   6  -3   3  730.26   13.95
   6   3  -3  718.76   13.69
   6  -3  -3  720.03   14.31
  -6   3  -3  732.53   10.00
   6   3   3  738.82   14.59
   6  -3   3  716.54   12.65
   6   3  -3  706.03   14.23
  -6  -3  -3  732.84   11.57
   6  -3  -3  722.40   14.19
  -6  -3   3  725.26   14.31
  -6   4   3   60.88    3.59
   6  -4   3   53.17    3.27
   6  -4   3   52.39    2.93
   6   4   3   58.98    2.92
   6   4  -3   61.43    3.50
   6   4   3   68.11    3.93
   6   4   3   57.44    2.87
   6  -4  -3   58.07    3.48
   6   4  -3   57.94    3.40
   6  -4   3   55.25    2.97
  -6  -4   3   52.89    3.32
  -6  -4  -3   56.77    2.58
   6  -4   3   58.09    2.52
   6  -4  -3   50.50    3.26
  -6  -4   3   56.57    3.41
   6  -4   3   58.36    3.05
  -6   4   3   51.82    3.10
   6  -4   3   60.70    3.09
  -6  -4   3   60.07    3.60
   6  -4   3   55.70    3.36
  -6   4   3   57.14    3.61
   6   4  -3   54.99    3.31
  -6   4   3   60.01    3.62
   6   4   3   63.09    3.80
  -6   4  -3   54.75    2.19
  -6  -4  -3   53.45    2.58
   6  -4  -3   55.82    3.49
  -6  -4   3   61.79    3.76
   6  -5  -3   16.05    1.95
   6  -5   3   11.67    1.51
   6  -5  -3   14.75    1.84
  -6  -5   3   12.55    1.88
  -6   5   3    9.76    1.57
   6   5   3   14.27    1.50
  -6   5   3   13.07    1.64
   6  -5  -3   15.72    1.87
   6  -5   3   12.24    1.63
  -6  -5   3   12.16    1.74
   6  -5   3   12.11    1.45
   6   5   3   13.77    1.90
   6  -5   3   13.43    1.52
   6   5  -3   14.60    1.80
  -6  -5  -3   14.71    1.39
  -6  -5  -3   12.11    1.44
   6   5   3   12.66    1.37
   6  -5   3   12.56    1.24
   6   5  -3   11.81    1.69
  -6  -5   3   12.44    1.68
  -6  -5  -3   14.60    1.59
   6  -5  -3   18.00    2.03
  -6  -5   3    9.08    1.40
  -6   5   3   13.37    1.78
   6   5   3   12.55    1.87
   6   5  -3   17.91    1.99
   6  -5  -3   15.09    1.80
  -6   5  -3   16.33    1.30
   6  -5   3   11.16    1.39
  -6   5   3   16.95    2.03
  -6  -5  -3   13.65    1.77
  -6  -5  -3   16.65    1.53
  -6  -6   3   16.88    2.06
   6  -6  -3    9.86    1.59
  -6  -6  -3   12.22    1.30
  -6   6   3   15.37    1.90
  -6  -6   3   11.43    1.62
   6  -6   3   16.45    1.83
   6  -6   3   15.45    1.65
  -6   6   3   13.91    1.75
   6  -6  -3   11.00    1.59
   6   6   3   13.53    1.46
   6   6   3   14.02    1.94
   6   6  -3   12.27    1.68
   6   6   3   14.73    1.50
  -6  -6   3   13.64    1.78
  -6  -6  -3   12.09    1.50
  -6  -6  -3   10.29    1.54
  -6  -6   3   13.28    1.79
   6  -6   3   13.28    1.28
   6  -6  -3   11.70    1.69
  -6   6   3   11.57    1.73
   6   6   3   14.40    2.01
   6   6  -3   13.81    1.82
   6  -6  -3   11.57    1.64
  -6  -6  -3   11.23    1.42
   6  -6  -3   11.10    1.66
   6  -6   3   13.24    1.53
  -6   6   3   16.78    2.09
   6  -6   3   13.15    1.62
  -6   6  -3   11.76    1.23
  -6   7   3  614.87   13.15
  -6  -7  -3  605.65   12.88
   6   7   3  617.41   11.47
   6  -7  -3  609.64   12.67
   6   7  -3  616.37   12.89
   6  -7   3  603.88   11.82
   6   7   3  614.59   13.35
  -6  -7   3  586.90   12.65
   6   7   3  625.92   11.54
  -6  -7   3  616.69   12.88
   6   7  -3  600.59   12.78
  -6  -7  -3  598.81   11.68
  -6  -7  -3  596.36   10.75
  -6  -7   3  613.97   13.06
   6  -7   3  623.19   10.82
  -6   7   3  625.59   13.25
   6  -7   3  619.72   12.18
  -6   7   3  603.83   12.59
   6  -7  -3  605.72   12.63
  -6  -7  -3  597.81   11.67
  -6   7   3  622.19   13.45
   6  -7   3  612.85   11.88
   6   7   3  611.59   13.41
  -6   7  -3  620.40   10.70
   6  -7   3  600.94    8.82
   6  -7   3  609.50   12.08
  -6  -7   3  603.30   13.22
   6  -7  -3  609.71   13.03
   6  -8   3    5.46    0.66
  -6  -8   3    4.73    1.27
   6  -8  -3    5.38    1.33
   6  -8   3    6.06    1.12
   6   8   3    4.52    0.93
  -6   8   3    4.05    1.12
   6  -8  -3    5.47    1.29
   6   8   3    4.39    1.18
   6  -8   3    4.46    0.96
   6   8  -3    4.09    1.05
  -6  -8   3    4.05    1.07
   6   8   3    4.70    0.91
  -6  -8  -3    7.88    1.35
  -6  -8   3    5.45    1.28
  -6  -8   3    5.70    1.32
  -6  -8  -3    7.31    1.24
   6  -8   3    5.17    1.06
  -6  -8  -3    5.77    1.20
  -6  -8  -3    6.40    1.09
  -6   8   3    6.44    1.53
   6  -8   3    5.36    0.91
   6  -8  -3    5.67    1.31
   6   8  -3    6.09    1.29
  -6   8   3    5.38    1.39
   6  -8   3    5.25    1.08
   6   8   3    6.05    1.45
  -6   8  -3    6.02    0.99
   6   9   3   81.09    3.77
  -6  -9   3   84.99    3.19
   6  -9   3   84.64    3.57
  -6  -9  -3   78.95    3.52
   6   9  -3   83.83    4.40
   6  -9  -3   86.13    4.38
   6  -9   3   84.37    4.02
   6   9   3   82.84    4.51
   6   9   3   80.21    3.76
  -6  -9   3   77.49    4.22
  -6  -9  -3   88.42    4.05
   6   9  -3   85.40    4.44
  -6  -9   3   82.73    4.45
  -6  -9  -3   84.23    3.96
   6  -9   3   86.29    3.90
  -6   9   3   79.07    4.26
   6  -9  -3   87.34    4.40
  -6   9   3   83.26    4.68
   6   9   3   83.42    4.48
   6  -9   3   85.20    4.04
  -6   9  -3   88.65    3.76
   6  -9   3   86.25    3.89
  -6  -9   3   81.29    4.34
   6  -9   3   84.60    2.66
  -6  -9   3   84.50    4.55
   6  -9  -3   79.38    4.34
  -6 -10   3   10.32    1.73
   6 -10   3    7.51    0.83
   6  10   3    8.71    1.30
   6  10  -3   10.49    1.67
  -6  10   3    8.82    1.70
   6  10   3    7.00    1.46
   6 -10  -3    8.38    1.47
   6 -10   3    7.00    1.31
   6 -10   3    8.28    1.26
   6  10   3    9.53    1.45
   6  10   3   10.61    1.74
   6  10  -3    9.97    1.68
  -6 -10   3    7.35    0.96
  -6 -10  -3   10.70    1.51
  -6 -10   3    7.21    1.35
  -6 -10  -3    9.14    1.44
  -6 -10   3    8.51    1.54
  -6 -10   3    6.99    1.52
   6 -10   3    8.44    1.21
  -6 -10  -3    9.65    1.37
   6  10   3    7.13    0.49
   6 -10  -3   10.02    1.69
  -6  10   3    7.15    1.63
  -6  10  -3    7.86    1.27
   6 -10   3    6.99    1.31
   6  11  -3  351.13    9.72
   6  11   3  337.50    9.56
   6 -11   3  327.20    8.96
   6  11   3  336.07    8.62
  -6 -11  -3  341.40    8.82
   6  11  -3  361.84    9.84
  -6 -11   3  351.09    9.86
  -6 -11  -3  353.56    8.95
   6 -11   3  325.03    8.15
   6 -11   3  348.28    8.13
  -6  11   3  343.56    9.69
   6  11   3  338.65    9.59
   6  11   3  348.47    5.80
   6 -11   3  328.78    8.96
  -6  11  -3  352.47    8.71
  -6  11   3  351.41   10.33
  -6 -11   3  341.26    9.97
   6 -11   3  353.59    6.67
  -6 -11  -3  341.40    8.39
  -6 -11   3  339.84    7.12
   6  11   3  336.52    8.61
  -6 -12  -3    0.53    0.68
  -6 -12   3    1.28    1.07
   6 -12   3    2.98    1.40
   6 -12   3    1.29    0.61
   6  12   3    1.19    0.82
  -6  12  -3    1.15    0.88
   6  12  -3    0.99    0.95
   6  12   3    1.58    1.08
  -6  12   3    1.24    0.95
   6  12   3    0.17    0.90
   6 -12   3    0.92    0.80
   6  12   3    0.36    0.73
  -6 -12   3    1.00    0.45
   6  12  -3    1.15    0.84
  -6 -12  -3   -0.33    0.97
  -6 -12   3    0.87    0.90
   6 -12   3    1.26    0.80
  -6 -12  -3   -0.19    0.77
  -6  12   3    1.87    1.20
   6  12   3    1.02    0.48
  -6  12  -3    1.56    0.91
   6 -12   3    2.01    1.05
   6  13  -3  205.15    7.54
   6  13   3  196.10    7.12
   6  13   3  194.71    6.64
  -6 -13  -3  195.10    6.77
   6  13  -3  205.92    7.57
  -6 -13  -3  195.44    6.49
  -6 -13   3  194.90    7.40
  -6 -13  -3  193.04    6.72
  -6  13  -3  193.29    6.93
  -6  13   3  194.16    7.43
  -6  13   3  207.15    8.09
   6  13   3  223.88    5.49
  -6  13  -3  193.78    6.74
  -6 -13   3  197.55    5.20
  -6 -13   3  191.01    7.57
   6 -13   3  195.59    5.66
   6  13   3  199.25    6.72
  -6 -14   3   16.09    2.21
   6  14   3   16.68    2.05
   6  14  -3   13.65    2.00
  -6  14  -3   16.16    2.04
   6  14   3   20.88    2.23
   6  14  -3   15.53    2.15
  -6 -14  -3   19.19    2.13
  -6 -14   3   18.25    2.36
  -6  14   3   19.16    2.58
  -6  14  -3   17.66    2.17
   6  14   3   19.00    2.10
   6  15   3   54.91    3.74
  -6  15  -3   53.49    3.70
  -6 -15  -3   55.31    3.58
   6  15   3   54.81    3.64
  -6 -15   3   51.61    3.98
  -6  15   3   53.88    4.22
  -6  15  -3   57.05    3.86
   6  15   3   52.28    3.54
   6  16   3    3.24    1.25
  -6  16  -3    3.84    1.30
   6  16   3    2.84    0.97
  -6 -16  -3    3.72    1.26
  -6 -16   3    4.12    1.40
   6  16   3    1.33    0.82
  -6  16   3    3.00    1.25
  -6  16  -3    1.78    1.22
  -6 -17   3  318.20   10.59
  -6 -17  -3  315.47    9.50
  -6  17  -3  299.82    9.40
  -6  17   3  324.28   11.07
  -6  17  -3  332.37   10.22
   6  17   3  305.79    9.17
  -6 -18  -3   12.36    2.02
  -6  18  -3   16.84    2.47
  -6 -19  -3   -0.30    0.79
  -6  19  -3   -0.02    1.23
   7   0  -3    0.78    0.92
  -7   0  -3   -0.05    0.53
  -7   0   3    1.09    1.00
   7   0   3   -0.89    0.95
   7   0   3   -0.17    0.68
   7   0  -3   -0.40    0.95
  -7   0   3    0.78    0.75
   7   0   3    0.80    0.59
   7   0  -3   -1.90    1.10
   7   0   3    0.12    0.48
  -7   0   3   -0.53    0.84
  -7   0  -3   -0.27    0.62
   7   0   3   -1.02    0.90
  -7   0   3   -0.18    0.72
   7  -1  -3  576.96   12.86
   7   1   3  568.90   11.31
   7  -1   3  547.70   12.98
   7   1  -3  558.57   12.60
   7   1   3  553.54   13.20
   7  -1   3  567.42   11.41
   7  -1  -3  559.55   12.70
   7  -1   3  560.98    9.92
   7   1   3  569.23   11.32
   7   1  -3  564.28   12.66
  -7   1  -3  554.50    9.98
   7  -1   3  582.63   11.53
  -7  -1   3  543.39   12.65
  -7  -1  -3  557.94   10.17
  -7   1   3  552.18   11.67
   7   1   3  545.86    9.85
  -7  -1   3  563.19   12.23
   7  -1   3  546.06   13.03
   7   1   3  554.60   13.24
  -7   1   3  549.90   12.73
   7   1  -3  546.98   12.72
   7  -1  -3  559.82   12.70
  -7  -1  -3  545.44    9.80
  -7  -1   3  553.26   12.74
  -7   1  -3  560.45    9.38
  -7   1   3  580.22   12.90
  -7   1   3  567.63   12.42
  -7   2  -3   41.26    2.03
  -7  -2  -3   43.56    2.47
  -7   2  -3   43.55    2.32
   7  -2   3   43.72    2.83
   7   2   3   44.81    2.79
   7  -2   3   44.81    3.36
   7   2  -3   42.55    3.13
   7   2   3   42.28    3.51
   7  -2  -3   49.18    3.44
   7  -2   3   43.54    2.82
   7   2   3   42.46    2.70
   7  -2   3   43.15    2.32
  -7  -2   3   46.74    3.41
   7  -2  -3   43.27    3.26
  -7   2   3   43.20    2.98
   7  -2   3   40.15    2.71
   7   2  -3   43.56    3.18
  -7   2   3   46.43    3.21
  -7   2  -3   41.41    1.32
   7  -2   3   46.80    3.47
   7   2   3   51.28    3.79
   7  -2   3   45.90    2.88
  -7   2   3   45.99    3.41
   7   2  -3   42.03    3.27
   7  -2  -3   42.16    3.21
  -7  -2  -3   41.64    2.29
  -7  -2   3   42.82    3.26
  -7   2   3   37.80    3.02
  -7   3   3  125.78    5.59
  -7   3  -3  133.88    3.64
   7  -3   3  130.94    5.73
   7  -3   3  130.67    5.02
   7   3   3  134.77    4.88
   7  -3   3  137.58    5.84
   7   3  -3  141.78    5.77
  -7  -3  -3  136.84    4.47
  -7  -3   3  129.16    5.71
   7   3   3  134.95    6.20
   7  -3  -3  139.00    5.80
   7  -3   3  125.69    4.95
   7   3   3  134.77    4.88
  -7   3   3  132.30    5.73
   7  -3   3  132.73    4.27
   7  -3  -3  142.22    5.87
   7  -3   3  128.29    4.98
  -7   3   3  123.55    5.16
   7  -3   3  130.07    5.02
  -7   3   3  129.49    5.52
   7   3  -3  134.71    5.61
  -7   3  -3  135.46    3.18
   7   3   3  125.96    5.99
   7   3  -3  132.82    5.82
   7  -3  -3  132.63    5.70
  -7  -3  -3  129.83    4.32
  -7  -3   3  132.73    5.79
  -7  -4  -3   13.85    1.43
   7  -4  -3   14.61    2.00
  -7  -4   3   15.78    2.06
  -7   4   3   14.95    2.02
  -7   4   3   14.93    1.80
   7  -4   3   14.61    1.70
   7  -4   3   13.78    2.02
   7   4   3   16.74    2.27
   7   4   3   14.91    1.66
   7   4  -3   15.04    1.92
   7  -4  -3   13.34    1.85
   7  -4   3   14.12    1.93
   7   4   3   16.98    1.74
   7  -4   3   15.33    1.44
   7  -4   3   14.10    1.68
   7   4  -3   12.44    1.79
   7  -4  -3   11.49    1.75
   7  -4   3   15.92    1.76
  -7  -4   3   11.30    1.72
  -7  -4  -3   14.44    1.46
  -7   4   3   14.38    2.02
   7  -4   3   15.02    1.76
  -7   4  -3   15.11    1.16
  -7   4   3   14.23    1.92
   7   4   3   15.83    2.24
  -7   5   3  470.36   11.62
   7  -5  -3  475.84   11.44
   7  -5   3  480.51   11.44
   7  -5   3  479.58   10.62
   7   5   3  484.76   10.32
   7   5  -3  482.45   11.57
  -7  -5  -3  494.70    9.65
   7   5   3  469.69   12.37
   7   5   3  487.24   10.34
   7  -5  -3  480.64   11.71
   7   5  -3  486.35   11.62
   7  -5   3  476.85   10.71
  -7  -5   3  481.57   11.60
  -7  -5   3  470.33   11.66
  -7   5   3  479.96   11.75
   7  -5  -3  481.46   11.73
   7  -5   3  472.25   10.69
  -7  -5   3  497.64   11.79
  -7   5   3  453.30   10.97
   7  -5   3  478.52    9.40
   7  -5  -3  465.80   11.34
   7  -5   3  490.91   10.71
  -7   5   3  485.57   11.79
   7  -5   3  488.49   11.56
  -7   5  -3  492.77    8.43
   7   5   3  474.81   12.45
  -7  -5  -3  480.16    9.69
   7  -5  -3  472.97   11.57
  -7  -5   3  466.55   11.79
  -7   6   3   26.22    2.58
  -7  -6   3   25.04    2.57
  -7  -6  -3   28.34    2.09
   7  -6   3   27.78    2.55
  -7  -6  -3   29.82    2.47
   7   6   3   27.88    2.24
   7  -6  -3   28.84    2.69
   7  -6   3   26.47    2.33
   7   6  -3   26.79    2.54
  -7  -6   3   26.51    2.67
   7   6   3   27.41    2.90
   7   6   3   27.27    2.24
   7   6  -3   28.70    2.70
   7  -6  -3   30.57    2.81
  -7  -6   3   25.55    2.54
   7  -6   3   28.53    2.41
   7  -6   3   27.22    2.01
  -7   6   3   27.34    2.67
   7  -6  -3   29.32    2.72
   7  -6   3   26.71    2.31
  -7   6   3   28.29    2.57
   7  -6  -3   24.31    2.45
   7  -6   3   25.73    2.51
   7  -6   3   31.48    2.50
  -7   6   3   28.17    2.77
  -7   6  -3   27.34    1.81
  -7  -6  -3   28.27    2.18
  -7  -6   3   27.44    2.75
  -7  -7  -3    8.50    1.31
  -7  -7   3    5.26    1.27
  -7   7   3    7.96    1.54
   7  -7   3    7.26    1.46
  -7   7   3    8.56    1.60
   7  -7  -3    6.38    1.30
  -7  -7  -3    7.66    1.24
   7  -7   3    6.37    1.29
   7   7   3    6.43    1.15
   7   7  -3    8.61    1.70
   7   7   3    9.82    1.40
   7   7  -3    7.89    1.57
  -7  -7  -3    5.64    1.16
   7  -7  -3    6.67    1.37
  -7  -7   3    7.21    1.46
   7  -7   3    8.29    1.17
  -7  -7  -3    4.57    1.13
   7  -7  -3    6.03    1.34
  -7   7   3    6.31    1.46
   7  -7  -3    7.95    1.53
   7  -7   3    8.68    1.39
  -7   7   3    6.38    1.50
  -7   7  -3    6.33    0.99
   7   7   3    6.64    1.63
   7  -7   3    7.67    1.48
   7   8   3   25.17    2.27
   7   8  -3   23.33    2.48
   7  -8   3   24.25    2.30
   7   8   3   27.61    3.01
   7  -8   3   28.82    2.53
   7   8   3   26.87    2.27
   7   8  -3   25.89    2.60
  -7  -8  -3   26.29    2.34
   7  -8  -3   23.84    2.54
  -7  -8  -3   26.60    2.10
  -7  -8   3   29.10    2.81
   7  -8   3   27.22    2.10
  -7  -8  -3   26.18    2.33
  -7   8   3   27.71    2.69
  -7   8   3   30.02    2.88
   7  -8   3   25.98    2.41
  -7   8  -3   26.11    1.99
  -7   8   3   26.58    2.74
  -7  -8  -3   26.11    2.21
   7  -8   3   26.07    1.53
  -7  -8   3   24.53    2.60
   7  -8   3   27.53    2.45
   7   9   3  400.70    9.65
  -7  -9   3  402.14    8.50
   7   9  -3  407.11   10.86
   7  -9   3  386.32    9.75
   7  -9   3  400.67   10.13
  -7  -9   3  388.15   10.76
   7   9   3  404.40   11.31
   7   9   3  408.16    9.75
   7   9  -3  407.07   10.86
  -7  -9  -3  399.16    9.84
   7  -9   3  395.98   10.05
  -7  -9  -3  394.37    9.09
   7  -9   3  394.02    8.98
  -7  -9  -3  389.38    9.77
  -7   9   3  387.10   10.58
  -7   9   3  406.75   11.18
  -7   9  -3  409.55    9.05
  -7  -9  -3  393.81    9.60
   7  -9   3  405.20    9.86
   7  -9   3  398.12    7.26
  -7  -9   3  386.97   10.98
  -7 -10   3    0.43    0.89
   7 -10   3    0.64    0.77
   7 -10   3   -0.05    0.55
   7  10   3    1.28    0.73
  -7  10   3   -0.48    1.01
   7  10  -3   -0.95    1.19
   7 -10   3   -0.42    0.74
   7  10   3   -0.08    0.67
  -7 -10  -3    1.72    0.90
   7  10  -3   -1.55    1.15
  -7 -10   3    0.69    0.58
   7 -10   3    1.20    0.88
   7  10   3    0.66    1.22
  -7 -10  -3    2.54    0.96
  -7 -10   3    0.47    0.82
  -7 -10  -3    0.32    0.80
  -7  10   3    1.91    1.14
  -7  10  -3   -0.18    0.77
   7 -10   3    0.35    0.80
   7  11   3  114.96    5.09
  -7 -11   3  124.09    5.89
   7  11  -3  128.54    5.96
   7  11   3  120.31    5.98
   7  11   3  113.93    5.09
   7  11  -3  114.89    5.67
  -7 -11  -3  116.32    5.18
  -7 -11  -3  114.39    4.80
  -7 -11  -3  113.92    5.15
  -7  11   3  116.61    5.68
   7 -11   3  127.25    5.04
  -7  11  -3  116.09    4.87
  -7 -11   3  119.04    5.91
  -7  11   3  125.74    6.16
  -7 -11   3  115.37    4.18
  -7  12  -3   15.43    2.07
   7  12   3   13.89    1.88
   7 -12   3   15.00    1.71
   7  12   3   13.87    1.83
   7  12   3   16.61    2.32
  -7 -12  -3   14.64    1.79
  -7 -12   3   14.17    2.07
  -7  12   3   15.73    2.36
  -7  12  -3   15.66    1.94
   7  13   3  118.31    5.99
   7  13   3  123.43    5.49
  -7 -13  -3  107.24    4.98
  -7 -13   3  117.04    5.99
  -7  13  -3  115.34    5.63
   7 -13   3  127.96    4.82
  -7  13   3  128.05    6.50
  -7  13  -3  118.87    5.33
   7  13   3  131.07    5.65
   7  14   3    3.00    1.14
  -7  14  -3    1.99    1.15
   7  14   3    0.02    0.98
   7  14   3    1.20    1.03
  -7 -14  -3    3.84    1.16
  -7 -14   3    0.55    0.81
  -7  14   3    4.71    1.67
  -7  14  -3    2.37    1.02
  -7 -15  -3  234.25    7.98
   7  15   3  236.43    8.58
  -7  15   3  262.01    9.66
   7  15   3  242.10    8.23
  -7 -15   3  243.85    9.11
  -7  15  -3  246.50    8.39
   7  15   3  236.78    8.16
  -7 -16  -3   16.83    2.32
  -7  16  -3   15.80    2.26
  -7 -17  -3   22.19    2.56
  -7  17  -3   24.91    2.86
  -7 -18  -3    8.75    1.79
  -7  18  -3   11.75    2.25
   8   0  -3   61.98    4.13
   8   0   3   65.64    3.71
   8   0  -3   60.46    4.06
   8   0   3   60.68    4.38
   8   0   3   65.44    3.72
   8   0   3   66.78    3.18
  -8   0   3   66.04    4.31
  -8   0  -3   60.19    3.12
  -8   0   3   66.64    4.07
  -8   0  -3   59.63    2.89
  -8   0   3   64.35    4.20
   8   1   3  163.68    5.97
   8   1  -3  164.89    6.79
   8  -1   3  166.68    6.10
   8  -1   3  164.43    7.26
   8  -1  -3  166.20    6.86
   8   1   3  151.25    7.07
   8   1   3  165.93    5.17
   8  -1   3  161.14    5.09
   8   1   3  165.75    6.01
   8   1  -3  165.17    6.80
   8  -1   3  157.53    5.95
  -8  -1   3  171.06    7.04
  -8   1   3  168.70    6.98
  -8   1   3  167.16    6.34
  -8  -1  -3  163.75    5.32
  -8   1  -3  164.55    5.26
   8  -1  -3  177.05    7.08
  -8   1   3  161.98    6.42
  -8  -1  -3  168.57    5.11
  -8  -1   3  159.64    6.73
  -8   1  -3  169.26    4.86
  -8   1   3  161.71    6.75
   8   2   3    5.82    1.77
  -8  -2  -3    3.24    0.87
  -8  -2   3    4.95    1.46
  -8   2   3    4.19    1.15
  -8   2  -3    2.81    0.70
  -8   2   3    3.87    1.13
   8  -2   3    6.49    1.34
   8   2   3    5.14    1.15
   8   2  -3    1.87    0.99
   8  -2   3    4.74    1.19
   8  -2   3    4.68    0.94
   8   2   3    5.11    1.11
   8   2  -3    5.23    1.37
   8  -2  -3    3.27    1.13
  -8  -2   3    5.13    1.45
  -8  -2  -3    2.96    0.91
  -8   2   3    5.29    1.56
  -8   2  -3    2.76    0.75
   8  -2   3    4.11    1.15
   8  -2   3    8.29    1.87
   8  -2   3    3.21    1.01
   8  -2  -3    3.43    1.20
  -8   2   3    3.32    1.08
  -8   3   3  363.31   10.46
  -8   3  -3  365.66    7.37
   8  -3   3  369.08    9.59
   8   3   3  384.99    9.48
   8   3  -3  358.96   10.46
   8  -3   3  360.40   10.80
   8  -3  -3  374.95   10.70
   8  -3   3  367.39    9.54
   8   3   3  342.53   11.12
   8   3   3  373.43    9.38
   8  -3   3  368.15    8.35
   8  -3  -3  370.55   10.66
   8  -3   3  384.75    9.73
  -8  -3   3  365.62   10.62
  -8  -3  -3  371.73    8.65
  -8   3   3  386.72   10.85
  -8   3   3  369.09    9.98
  -8   3  -3  370.34    8.39
   8  -3   3  370.09    9.56
   8   3  -3  365.14   10.48
  -8   3   3  362.13   10.13
  -8   3  -3  359.30    5.86
  -8  -3  -3  371.33    8.43
  -8  -3   3  367.33   10.69
  -8   4   3   25.95    2.69
  -8   4  -3   33.21    1.92
   8   4   3   24.63    2.91
   8  -4   3   29.42    2.57
   8   4   3   27.09    2.37
   8  -4   3   29.24    2.94
   8   4  -3   31.98    2.98
  -8   4   3   27.13    2.71
   8  -4   3   26.24    2.05
   8  -4  -3   34.27    3.10
   8  -4   3   28.64    2.56
   8   4   3   29.34    2.46
   8   4  -3   27.95    2.85
  -8  -4   3   30.99    3.06
  -8  -4  -3   32.93    2.41
   8  -4  -3   35.09    3.16
  -8   4   3   29.15    2.71
   8  -4   3   31.25    2.70
  -8   4   3   30.15    3.03
   8  -4   3   30.36    2.62
  -8   4  -3   33.78    1.67
  -8  -4  -3   33.96    2.40
  -8  -4   3   29.54    2.94
   8   5   3   17.67    2.60
  -8  -5  -3   14.72    1.68
  -8  -5   3   16.70    2.28
  -8   5   3   13.96    2.09
  -8   5   3   15.40    2.12
   8   5   3   17.96    1.98
   8  -5   3   16.19    1.97
   8   5  -3   17.01    2.24
   8  -5   3   21.69    2.47
   8  -5   3   18.64    2.10
   8   5   3   17.66    2.00
   8  -5   3   16.17    1.59
   8  -5  -3   16.22    2.27
   8   5  -3   14.04    2.08
   8  -5   3   19.04    2.15
   8  -5  -3   16.41    2.28
  -8  -5   3   19.55    2.50
  -8  -5  -3   15.05    1.69
  -8   5   3   14.02    2.03
  -8   5  -3   17.50    1.37
   8  -5   3   16.41    1.99
  -8   5   3   17.29    2.20
  -8  -6   3   11.10    1.99
  -8   6   3   11.44    1.81
   8  -6  -3   18.12    2.33
  -8   6   3   14.69    2.01
   8  -6   3   14.04    1.87
   8  -6   3   12.82    2.00
   8   6   3   13.17    1.77
   8   6  -3   20.83    2.42
   8   6  -3   23.19    2.55
   8  -6  -3   18.34    2.31
   8  -6   3   12.79    1.76
  -8  -6  -3   20.11    1.95
   8   6   3   13.54    1.72
   8  -6   3   14.44    1.57
   8  -6   3    9.44    1.54
  -8  -6   3   10.89    1.90
  -8   6   3   14.19    2.06
  -8   6  -3   19.95    1.54
   8  -6   3   13.00    1.83
  -8   6   3   13.88    2.08
  -8  -6  -3   20.81    2.04
   8   6   3   15.64    2.53
  -8   7   3  497.51   12.71
   8  -7   3  501.98   12.37
   8   7   3  494.83   11.39
   8   7  -3  505.37   12.77
   8  -7   3  505.22   11.91
   8   7   3  472.51   13.52
   8   7   3  499.04   11.44
   8   7  -3  524.46   12.98
   8  -7  -3  510.51   12.93
   8  -7   3  503.68   11.86
   8  -7   3  500.77   10.59
  -8  -7  -3  512.06   10.82
  -8  -7   3  507.49   12.82
  -8   7   3  521.39   13.11
   8  -7  -3  510.03   12.91
   8  -7   3  495.59   11.79
  -8   7   3  488.10   12.36
   8  -7   3  492.04   11.79
  -8   7   3  512.40   12.87
  -8   7  -3  511.03    9.66
  -8  -7  -3  493.45   10.93
  -8  -7   3  499.88   12.98
  -8  -8   3   19.74    2.51
   8   8   3   21.14    2.21
   8   8  -3   18.44    2.40
   8   8  -3   21.77    2.52
   8   8   3   24.81    2.38
   8  -8  -3   20.32    2.53
   8  -8  -3   20.64    2.55
   8  -8   3   20.87    2.25
  -8  -8  -3   18.74    1.97
  -8  -8  -3   17.40    2.09
   8  -8   3   24.72    2.49
  -8  -8   3   21.68    2.62
  -8  -8  -3   17.14    2.05
  -8   8   3   25.17    2.79
  -8   8   3   22.22    2.61
  -8   8  -3   22.39    1.91
  -8   8   3   21.72    2.61
  -8  -8  -3   20.49    2.10
   8   8   3   19.69    2.74
   8  -8   3   22.41    2.42
   8   9   3   22.37    2.25
  -8  -9   3   23.69    2.04
  -8  -9  -3   20.57    2.06
   8  -9   3   20.76    2.30
  -8   9   3   21.24    2.52
   8   9   3   20.96    2.18
   8  -9  -3   18.42    2.43
  -8  -9   3   21.31    2.60
   8  -9  -3   19.57    2.43
  -8   9  -3   22.25    1.98
  -8   9   3   26.68    2.87
   8   9   3   17.71    2.59
  -8  -9  -3   20.31    2.20
   8  -9   3   22.40    2.36
   8  10   3   33.54    2.88
   8  10   3   31.38    2.79
  -8 -10  -3   27.76    2.43
  -8 -10   3   34.26    3.31
   8 -10   3   34.52    2.91
  -8  10   3   33.03    3.21
  -8  10  -3   27.50    2.33
   8 -10   3   34.22    2.90
  -8 -10  -3   28.25    2.61
   8  11   3  240.12    7.97
   8  11   3  236.76    7.93
  -8 -11  -3  233.83    7.40
  -8 -11   3  238.94    8.85
  -8  11   3  242.55    8.94
  -8  11  -3  241.76    7.32
   8 -11   3  237.04    7.65
  -8 -11  -3  236.47    7.95
  -8 -12  -3    1.46    1.14
   8  12   3    0.96    1.03
   8 -12   3    0.64    0.76
   8  12   3    1.61    1.23
  -8 -12  -3    1.62    0.97
  -8 -12   3    0.64    1.07
  -8  12   3    1.26    1.11
  -8  12  -3    0.71    0.77
   8  13   3  158.81    6.68
  -8 -13  -3  161.67    6.38
  -8 -13   3  155.42    7.28
  -8  13   3  163.89    7.51
  -8  13  -3  157.93    6.33
   8  13   3  159.84    6.69
  -8 -14  -3   19.57    2.29
  -8  14  -3   17.54    2.23
  -8  15  -3   52.02    3.85
  -8 -15  -3   50.05    3.74
  -8 -16  -3   10.24    1.86
  -8  16  -3   11.81    2.06
  -8 -17  -3  270.10    9.37
  -8  17  -3  282.92    9.79
  -9   0  -3   -0.56    0.67
  -9   0   3    0.41    0.94
   9   0   3   -1.55    1.17
   9   0  -3   -1.04    1.36
   9   0   3   -1.17    1.10
   9   0  -3   -1.09    1.34
  -9   0   3    0.83    0.96
  -9   0  -3   -1.16    0.83
  -9   0   3   -0.06    1.05
   9   0   3   -0.97    1.26
  -9  -1  -3  177.07    6.01
   9   1   3  185.92    6.90
   9   1  -3  173.59    7.53
   9  -1   3  174.91    6.76
   9  -1  -3  179.88    7.62
   9  -1   3  171.50    7.97
   9   1   3  174.72    6.69
  -9   1  -3  179.28    5.94
   9   1  -3  180.37    7.70
   9  -1   3  170.81    6.70
   9  -1  -3  182.92    7.66
  -9  -1   3  181.56    7.69
  -9   1   3  176.20    7.01
  -9   1   3  176.98    7.62
  -9   1   3  183.78    7.18
  -9  -1  -3  177.37    5.68
  -9   1  -3  176.33    5.43
  -9   1   3  177.19    7.46
  -9   2   3   53.69    4.05
   9  -2   3   50.96    3.60
   9   2   3   51.23    3.56
  -9  -2  -3   55.60    3.34
   9  -2   3   49.97    4.30
   9  -2   3   49.76    3.56
   9   2   3   52.71    3.59
  -9   2   3   48.33    3.67
  -9  -2   3   56.28    4.27
  -9   2   3   52.64    4.16
  -9   2  -3   51.77    3.10
  -9   2   3   52.74    3.81
  -9  -2  -3   53.64    3.11
   9   3   3   99.65    4.94
   9  -3   3   95.88    5.78
  -9   3   3   96.07    5.21
   9  -3   3   90.84    4.86
   9   3   3   96.26    4.86
  -9   3  -3  100.22    4.39
   9  -3   3  100.21    5.10
  -9  -3   3   99.22    5.68
  -9  -3  -3  100.90    4.56
  -9   3   3   99.41    5.62
  -9   3   3   98.15    5.23
  -9  -3  -3   99.89    4.37
  -9  -4  -3    1.32    0.95
  -9   4   3    0.95    1.04
   9   4   3    0.14    0.87
   9  -4   3    1.28    1.21
   9  -4   3   -0.35    0.75
   9   4   3    1.15    1.06
   9  -4   3    0.46    0.96
  -9  -4   3    1.43    1.34
  -9  -4  -3    0.34    0.72
  -9   4   3   -0.70    1.22
  -9   4   3   -1.12    1.12
   9   5   3  402.17   10.59
   9  -5   3  413.91   12.13
   9  -5   3  407.84   10.96
   9   5   3  407.33   10.65
  -9  -5   3  397.98   11.85
  -9  -5  -3  400.93    9.86
   9  -5   3  413.82   11.04
  -9   5   3  402.75   11.45
  -9   5   3  398.70   11.80
  -9   5   3  405.56   11.31
  -9  -5  -3  391.28    9.64
  -9  -6  -3   10.75    1.70
  -9   6   3   10.85    1.99
   9   6   3   13.80    1.89
  -9   6   3    6.91    1.69
   9  -6   3   13.15    2.35
   9   6   3    9.70    1.71
   9  -6   3    9.25    1.67
  -9  -6   3   11.28    2.06
  -9  -6  -3   12.47    1.70
   9  -6   3   13.03    1.98
  -9   6   3   12.53    2.15
  -9  -7  -3   -0.53    0.86
   9  -7   3    0.72    1.14
   9   7   3    0.55    0.85
   9   7   3    0.86    0.77
   9  -7   3    2.17    1.06
   9  -7   3    0.94    1.20
  -9  -7   3    2.84    1.44
  -9   7   3   -0.55    1.21
  -9  -7  -3    0.11    0.70
  -9   7   3    2.45    1.12
   9  -8   3   31.38    3.10
   9   8   3   30.50    2.82
   9   8   3   30.36    2.90
   9  -8   3   28.77    2.90
  -9  -8  -3   29.41    2.59
  -9  -8   3   27.24    3.12
   9  -8   3   30.76    2.93
  -9   8   3   30.19    3.24
  -9   8   3   30.56    3.15
  -9  -8  -3   26.38    2.48
   9   9   3  250.67    8.39
   9   9   3  248.96    8.37
   9  -9   3  254.07    8.68
   9  -9   3  251.38    8.66
  -9  -9  -3  246.28    7.73
  -9  -9  -3  228.21    7.79
  -9  -9   3  246.65    9.24
  -9   9   3  251.79    9.17
   9  -9   3  247.90    8.71
  -9 -10  -3    2.58    1.46
   9  10   3    4.41    1.44
   9  10   3    3.82    1.26
  -9 -10  -3    5.42    1.30
  -9 -10   3    4.73    1.53
   9 -10   3    4.64    1.33
  -9  10   3    6.33    1.77
  -9 -11  -3   86.10    4.67
  -9  11   3   85.33    5.41
   9 -11   3   83.57    4.70
  -9 -11  -3   77.97    4.65
  -9 -12  -3   43.76    3.45
  -9 -13  -3  110.79    5.50
  -9 -14  -3    2.39    1.17
  10   0   3   50.13    3.79
  10   0   3   54.43    3.95
 -10   0   3   53.42    4.03
 -10   0   3   54.58    4.44
 -10   0  -3   56.42    3.51
  10   1   3  125.00    6.03
  10  -1   3  120.70    5.92
  10   1   3  118.51    5.83
  10  -1   3  129.23    6.12
 -10  -1   3  128.68    6.88
 -10   1   3  126.45    6.28
 -10   1   3  121.30    6.70
 -10   1   3  131.97    6.28
 -10  -1  -3  120.75    5.25
  10   2   3    3.54    1.12
  10  -2   3    1.00    1.23
  10   2   3    4.59    1.31
  10  -2   3    4.24    1.28
 -10  -2   3    2.18    1.51
 -10  -2  -3    3.73    1.10
 -10   2   3    5.25    1.76
 -10   2   3    4.94    1.48
  10   3   3  269.39    8.96
  10  -3   3  271.61    9.21
  10   3   3  269.05    8.95
  10  -3   3  274.69    9.28
 -10  -3   3  263.51   10.06
 -10  -3  -3  269.25    8.24
 -10   3   3  278.38   10.23
 -10   3   3  274.82    9.40
  10   4   3   26.85    2.79
  10   4   3   27.48    2.85
 -10  -4   3   33.96    3.50
 -10   4   3   29.86    3.36
 -10   4   3   31.56    3.16
 -10  -5   3   12.26    2.31
 -10   5   3   16.18    2.49
 -10   5   3   16.47    2.39
 -10   6   3   19.86    2.63
 -10   7   3  240.74    9.01
 -10   8   3   11.06    2.16
 -10   9   3   37.09    3.60
 -11   3   3   36.00    3.46
 -11   4   3   15.78    2.42
 -11   5   3  254.60    9.50
   0   0  -4 1748.22   20.24
   0   0   4 1732.09   20.19
   0   0  -4 1698.93   22.53
   0   0  -4 1662.27   22.46
   0   0  -4 1718.20   20.57
   0   0  -4 1709.90   21.28
   0   1  -4    0.11    0.31
   0  -1  -4    0.00    0.40
   0  -1   4    0.42    0.39
   0  -1  -4    0.05    0.36
   0   1  -4    0.00    0.11
   0   1  -4   -0.20    0.26
   0   1  -4    0.61    0.60
   0   1   4    0.42    0.42
   0   1  -4    0.14    0.27
   0  -1  -4   -0.17    0.32
   0  -1   4    0.23    0.32
   0   1   4   -0.30    0.40
   0   1   4    0.04    0.57
   0   1  -4    0.66    0.61
   0  -1  -4   -0.10    0.49
   0   1  -4   -0.04    0.10
   0  -1  -4   -0.13    0.55
   0  -2   4   41.33    1.79
   0   2   4   40.58    1.89
   0   2  -4   46.41    1.21
   0  -2   4   46.21    1.69
   0  -2   4   43.11    1.27
   0   2  -4   45.95    2.32
   0  -2  -4   46.61    1.81
   0  -2   4   41.42    1.24
   0  -2  -4   48.60    2.42
   0   2   4   44.28    2.32
   0   2  -4   46.15    2.37
   0  -2  -4   46.22    2.38
   0  -2  -4   44.45    1.96
   0   2  -4   46.57    1.53
   0   2  -4   46.20    1.20
   0   2  -4   46.58    1.89
   0  -2  -4   48.09    2.19
   0   3  -4   -0.07    0.35
   0  -3  -4    0.21    0.15
   0  -3   4    0.08    0.38
   0  -3  -4    0.54    0.55
   0  -3  -4   -0.44    0.64
   0  -3  -4   -0.14    0.39
   0   3  -4    0.36    0.27
   0   3  -4    0.02    0.20
   0  -3  -4    0.15    0.16
   0  -3   4   -0.09    0.27
   0   3   4   -0.10    0.38
   0  -3  -4    0.28    0.18
   0  -3   4    0.03    0.24
   0  -3   4    0.30    0.32
   0  -3  -4    0.10    0.16
   0  -3  -4    0.40    0.35
   0   3  -4    0.29    0.52
   0   3   4    1.00    0.63
   0  -3  -4   -0.52    0.65
   0   3  -4    0.17    0.21
   0  -4  -4  669.65   10.90
   0   4   4  693.33   10.78
   0  -4   4  714.78    9.29
   0   4  -4  656.07    8.91
   0  -4  -4  658.58    8.37
   0  -4   4  698.18    9.22
   0  -4   4  715.18    9.88
   0  -4  -4  657.83   10.20
   0  -4  -4  672.66   11.15
   0   4  -4  646.44   11.41
   0   4   4  691.85   11.37
   0  -4  -4  658.62   11.31
   0  -4  -4  645.44   10.52
   0   4  -4  657.14    8.91
   0   4  -4  644.09    8.15
   0  -4  -4  661.12    8.37
   0  -4   4  691.71    9.89
   0  -5  -4    0.40    0.33
   0  -5   4   -0.13    0.40
   0  -5  -4    1.98    0.69
   0  -5  -4    0.29    0.57
   0  -5  -4    0.89    0.61
   0   5  -4    0.81    0.39
   0  -5   4    0.44    0.39
   0   5  -4    0.22    0.14
   0  -5  -4    0.46    0.32
   0  -5   4    0.16    0.35
   0   5   4    0.83    0.60
   0  -5   4    0.06    0.39
   0  -5  -4    0.39    0.43
   0   5   4    0.48    0.75
   0  -5  -4   -0.34    0.64
   0   5  -4    0.71    0.40
   0  -6  -4  469.53    8.79
   0   6   4  437.78    6.89
   0  -6   4  411.09    7.18
   0   6  -4  451.34    7.20
   0  -6  -4  448.86    6.72
   0  -6   4  407.62    7.16
   0  -6   4  407.18    7.58
   0  -6  -4  467.26    8.20
   0   6   4  432.93    6.86
   0   6   4  432.73    8.82
   0  -6  -4  448.64    8.60
   0  -6  -4  462.16    8.59
   0  -6  -4  454.59    9.10
   0   6  -4  456.53    7.23
   0  -6  -4  457.96    6.75
   0  -6   4  420.14    7.47
   0   6   4  406.79    8.30
   0  -7   4    0.32    0.47
   0  -7  -4    0.55    0.38
   0  -7  -4   -0.50    0.69
   0  -7  -4    0.68    0.58
   0   7   4   -0.32    0.36
   0  -7   4    0.11    0.39
   0  -7  -4    0.07    0.50
   0  -7  -4    0.43    0.58
   0   7  -4    0.17    0.41
   0  -7  -4    0.10    0.38
   0   7   4    0.29    0.50
   0  -7   4    0.29    0.39
   0  -7  -4   -0.07    0.64
   0  -7   4   -0.03    0.47
   0   7   4    0.17    0.32
   0   7   4    0.95    0.84
   0  -7  -4    0.76    0.75
   0   7  -4    0.54    0.42
   0  -8  -4  383.86    8.28
   0  -8   4  354.62    7.02
   0   8   4  362.42    6.70
   0   8  -4  383.24    7.06
   0  -8  -4  371.05    6.59
   0  -8   4  351.10    7.00
   0  -8   4  363.50    7.36
   0  -8  -4  374.57    7.63
   0  -8  -4  376.80    7.74
   0   8   4  361.53    6.71
   0   8   4  379.25    8.61
   0  -8  -4  383.51    8.19
   0  -8  -4  390.36    8.57
   0   8  -4  378.79    7.04
   0  -8  -4  377.88    7.72
   0  -8   4  366.89    7.24
   0  -8  -4  378.72    6.62
   0   8   4  378.92    8.18
   0  -9   4    0.42    0.59
   0  -9  -4    0.22    0.51
   0  -9  -4    0.49    0.76
   0  -9  -4    1.44    0.77
   0   9   4    0.38    0.50
   0  -9   4    0.32    0.58
   0  -9  -4    0.16    0.65
   0   9  -4    0.40    0.52
   0  -9  -4    0.57    0.52
   0   9   4    1.02    0.87
   0  -9   4    0.84    0.59
   0   9  -4    0.42    0.62
   0  -9   4    0.34    0.56
   0  -9  -4    0.54    0.61
   0   9   4    0.40    0.46
   0  -9  -4   -1.32    0.74
   0   9   4    0.34    0.89
   0   9  -4    0.91    0.69
   0 -10  -4 1133.80   16.70
   0 -10   4 1131.28   16.63
   0  10   4 1159.18   16.15
   0  10  -4 1160.83   16.53
   0 -10  -4 1129.13   15.93
   0 -10   4 1118.19   16.60
   0 -10   4 1152.68   16.94
   0  10  -4 1125.83   16.48
   0 -10  -4 1108.06   17.07
   0 -10  -4 1139.84   16.72
   0  10   4 1154.53   16.11
   0  10   4 1170.78   19.00
   0 -10  -4 1156.96   17.97
   0  10  -4 1156.61   16.52
   0 -10   4 1177.04   16.88
   0 -10  -4 1104.27   15.86
   0  10   4 1172.78   18.09
   0 -11   4    0.65    0.72
   0 -11  -4    0.73    0.59
   0 -11  -4    1.47    0.72
   0  11   4    1.26    0.59
   0 -11   4    0.41    0.57
   0 -11  -4    0.76    0.70
   0  11  -4   -0.14    0.62
   0 -11  -4    0.60    0.60
   0 -11  -4    0.35    0.58
   0  11  -4    0.28    0.18
   0  11   4    1.47    0.90
   0 -11   4    0.12    0.50
   0 -11   4    0.71    0.68
   0 -11  -4    1.84    0.83
   0  11   4    1.36    0.65
   0  11   4    2.52    1.24
   0  11  -4    0.59    0.67
   0  11  -4    0.03    0.53
   0 -12   4   38.40    2.43
   0  12   4   42.53    2.40
   0  12   4   38.28    2.29
   0  12  -4   40.32    2.49
   0 -12  -4   39.17    2.28
   0 -12  -4   36.90    2.21
   0 -12   4   37.56    2.40
   0 -12   4   42.10    2.57
   0  12  -4   37.10    2.16
   0 -12  -4   37.02    2.50
   0 -12  -4   37.03    2.70
   0  12   4   38.56    3.03
   0 -12  -4   38.72    2.29
   0  12  -4   37.14    2.39
   0 -12   4   42.44    2.58
   0  12  -4   37.43    1.21
   0 -12  -4   39.79    2.29
   0  12   4   39.01    2.78
   0 -13   4    1.06    0.82
   0  13  -4   -0.38    0.58
   0 -13  -4    0.36    0.62
   0 -13  -4    0.07    0.53
   0 -13   4    0.38    0.59
   0  13   4    0.91    0.71
   0 -13  -4   -0.14    0.67
   0  13  -4    0.90    0.70
   0 -13  -4   -0.29    0.54
   0 -13  -4    0.31    0.70
   0  13  -4    0.33    0.26
   0  13   4    0.46    0.82
   0 -13   4    0.55    0.57
   0 -13  -4   -0.14    0.54
   0  13   4    0.17    0.53
   0  13   4    1.91    1.23
   0 -13   4    0.90    0.64
   0  13  -4    0.28    0.59
   0 -14   4  632.75   12.48
   0  14   4  656.34   12.11
   0  14  -4  645.02   12.42
   0 -14  -4  626.31   11.89
   0 -14   4  638.20   12.52
   0 -14   4  642.74   12.54
   0  14  -4  644.65   10.92
   0 -14  -4  666.14   11.41
   0  14   4  648.75   12.06
   0  14   4  660.14   14.78
   0  14  -4  634.07   12.34
   0 -14  -4  661.85   11.39
   0  14  -4  647.32    8.81
   0  14   4  640.25   13.38
   0 -14  -4  631.20   11.90
   0 -15  -4    0.27    0.68
   0 -15   4    0.97    0.82
   0  15   4    1.32    0.73
   0  15  -4    0.17    0.51
   0  15  -4    0.32    0.71
   0 -15  -4    0.52    0.63
   0 -15  -4   -0.23    0.61
   0 -15   4    0.23    0.63
   0  15   4    1.19    1.01
   0  15  -4    0.21    0.32
   0 -15   4   -0.14    0.67
   0  15   4    1.75    0.87
   0  15   4   -0.21    1.09
   0  15  -4   -0.11    0.65
   0 -15  -4    0.83    0.65
   0 -16   4   61.99    3.66
   0  16   4   61.86    3.45
   0  16  -4   52.50    3.29
   0 -16  -4   53.58    3.21
   0 -16   4   62.83    3.67
   0  16   4   63.44    3.50
   0  16  -4   51.58    2.52
   0  16   4   69.70    4.71
   0  16  -4   49.59    3.21
   0  16   4   57.62    3.81
   0 -16  -4   58.57    2.91
   0 -16  -4   53.60    3.19
   0  17  -4   -0.77    0.59
   0 -17  -4    0.73    0.86
   0  17   4   -0.04    0.69
   0  17  -4    0.10    0.69
   0 -17  -4   -0.66    0.77
   0  17   4    1.41    0.98
   0  17   4   -0.34    0.70
   0  17   4    0.74    1.06
   0  17  -4   -0.47    0.82
   0  18   4  282.28    8.40
   0  18  -4  283.39    8.64
   0  18   4  282.57    8.39
   0  18   4  313.13   10.84
   0  18  -4  293.73    8.76
   0  19   4    2.38    1.30
   0  19   4    1.06    0.76
   0  19   4    2.14    1.69
   0 -20   4  174.80    7.15
   0  20   4  190.30    8.84
   0 -21   4   -0.86    0.94
   0  21   4   -0.57    1.22
   1   0  -4    1.47    0.62
  -1   0  -4    0.85    0.36
  -1   0   4    0.63    0.51
   1   0  -4    0.48    0.31
   1   0  -4    1.04    0.31
  -1   0  -4    0.77    0.41
  -1   0  -4   -0.62    0.52
   1   0  -4    1.24    0.33
  -1   0  -4    0.45    0.45
  -1   0   4    0.62    0.35
   1   0  -4    1.18    0.47
  -1   0   4    2.55    0.54
  -1   0   4    2.97    0.98
  -1   0  -4    1.62    0.53
   1   0  -4    0.67    0.53
   1   1  -4    2.29    0.53
  -1   1  -4    3.35    0.44
   1  -1  -4    2.94    0.72
  -1  -1  -4    4.13    0.91
  -1  -1  -4    4.50    0.62
  -1  -1   4    2.93    0.64
  -1   1   4    3.72    0.79
   1  -1  -4    2.94    0.39
   1   1  -4    3.95    0.49
   1  -1  -4    2.90    0.54
   1   1  -4    3.55    0.43
  -1   1  -4    3.88    0.84
   1  -1  -4    3.68    0.49
  -1  -1  -4    4.13    0.67
  -1   1  -4    4.03    0.60
  -1   1   4    3.56    0.54
   1   1  -4    2.59    0.36
  -1  -1  -4    4.73    0.93
  -1  -1   4    3.41    0.48
   1  -1  -4    3.78    0.49
   1   1  -4    3.18    0.61
  -1  -1  -4    3.64    0.34
   1  -1  -4    3.21    0.63
  -1  -1   4    3.56    0.67
  -1   1   4    3.73    0.68
   1  -1   4    0.43    0.11
   1  -1  -4    3.36    0.40
  -1   1   4    3.71    0.83
  -1   1  -4    4.08    0.78
   1   1  -4    3.56    0.83
  -1  -1  -4    4.29    0.77
   1  -1  -4    3.47    0.82
  -1  -2  -4 1188.45   15.49
   1   2  -4 1180.34   14.36
   1  -2  -4 1179.54   14.12
   1  -2  -4 1207.96   14.48
   1   2  -4 1192.26   14.38
  -1  -2   4 1163.24   14.62
   1   2  -4 1166.03   15.65
  -1  -2  -4 1173.17   13.88
   1  -2  -4 1158.08   15.90
   1  -2  -4 1233.80   14.52
  -1  -2   4 1167.39   15.67
   1  -2   4 1156.15   13.49
  -1   2   4 1171.50   15.63
  -1  -2   4 1151.22   14.60
  -1  -2  -4 1177.95   17.00
   1   2  -4 1203.71   13.92
   1   2   4 1199.65   16.09
  -1   2  -4 1174.47   16.38
   1  -2  -4 1185.73   14.12
  -1   2   4 1160.46   17.29
   1   2  -4 1165.69   17.33
   1  -2  -4 1185.28   15.50
  -1   2  -4 1191.31   16.87
   1  -2  -4 1193.65   17.38
  -1  -2  -4 1185.70   16.19
  -1  -2  -4 1181.45   16.98
  -1  -2  -4 1191.95   15.92
  -1   2  -4 1187.17   14.27
   1   2  -4 1200.93   16.21
  -1   2   4 1127.06   15.43
   1  -2  -4 1178.84   16.76
  -1   2  -4 1175.45   14.89
  -1  -2   4 1140.41   16.09
   1  -3   4    5.72    0.51
   1   3  -4    4.86    0.80
  -1  -3   4    5.80    0.85
   1  -3  -4    4.90    0.85
  -1  -3  -4    5.68    0.78
  -1  -3  -4    5.06    0.92
  -1   3  -4    5.24    0.43
   1   3  -4    5.37    0.60
   1  -3   4    5.83    0.46
   1  -3  -4    4.57    0.75
   1  -3  -4    5.54    0.59
   1  -3  -4    6.64    0.68
  -1   3  -4    6.44    1.02
  -1  -3  -4    5.52    0.84
   1   3  -4    5.46    0.60
  -1   3   4    6.72    0.83
   1  -3   4    5.88    0.47
  -1   3  -4    5.73    0.61
  -1  -3   4    6.67    0.73
   1  -3   4    6.38    0.53
   1  -3  -4    6.58    0.68
   1   3  -4    5.84    0.80
  -1  -3  -4    6.77    1.00
  -1  -3   4    6.90    0.72
  -1  -3   4    7.28    0.88
   1  -3  -4    5.97    0.89
  -1  -3  -4    5.93    0.60
  -1   3   4    7.28    0.89
  -1   3  -4    5.25    0.43
  -1   3  -4    5.86    0.93
   1   3   4    5.85    0.87
   1   3  -4    4.08    0.89
  -1   3   4    5.56    1.05
   1  -3  -4    5.70    0.60
   1  -3  -4    5.76    1.04
  -1  -3  -4    5.52    0.86
   1   3  -4    5.29    0.40
   1  -4   4  304.25    4.64
  -1  -4  -4  286.07    5.94
  -1   4  -4  283.07    4.87
   1   4   4  290.12    6.32
   1  -4   4  286.20    4.62
  -1   4  -4  281.99    4.56
  -1  -4  -4  274.94    3.97
   1  -4  -4  289.96    4.91
  -1  -4   4  304.54    5.56
   1  -4   4  310.03    4.90
   1   4  -4  282.27    5.15
   1  -4   4  291.85    4.65
  -1  -4  -4  275.48    3.98
  -1  -4   4  309.94    5.60
  -1  -4   4  298.82    6.10
   1  -4  -4  282.27    6.20
  -1  -4  -4  288.65    5.19
  -1  -4  -4  283.95    6.52
   1   4  -4  282.85    6.93
   1   4   4  307.19    6.25
  -1   4  -4  289.91    6.49
  -1   4   4  298.17    7.09
  -1   4  -4  289.93    4.59
   1  -4  -4  283.88    6.03
   1  -4  -4  293.81    7.02
   1  -4  -4  285.83    4.88
  -1  -4  -4  283.98    6.20
  -1  -4  -4  277.72    6.16
  -1  -4  -4  289.55    6.57
  -1   4   4  299.02    6.14
  -1  -4   4  303.27    6.24
   1   4  -4  288.05    5.18
   1  -4  -4  278.00    6.57
   1  -5  -4   28.91    1.98
  -1  -5  -4   30.07    1.80
   1  -5   4   32.74    1.38
   1   5  -4   32.08    2.24
   1   5   4   36.91    2.13
  -1  -5  -4   29.40    1.11
   1   5   4   31.67    1.16
  -1   5  -4   30.82    1.35
   1  -5  -4   30.65    1.43
  -1  -5   4   35.08    1.74
   1   5  -4   29.61    1.52
   1   5   4   33.84    1.20
   1  -5   4   32.44    1.38
  -1  -5  -4   29.07    1.10
   1  -5  -4   29.39    1.96
  -1  -5   4   31.82    1.66
   1  -5   4   33.76    1.50
  -1  -5   4   34.03    1.90
   1  -5  -4   30.65    1.94
  -1  -5  -4   29.77    1.54
  -1  -5  -4   30.62    2.03
  -1   5  -4   32.37    2.01
   1   5   4   30.26    1.86
   1  -5  -4   30.47    1.86
  -1   5   4   36.49    2.41
  -1   5  -4   31.21    1.36
   1  -5  -4   30.93    2.21
  -1  -5  -4   28.66    1.86
   1  -5  -4   31.68    1.45
  -1  -5  -4   29.96    1.89
  -1   5   4   35.62    2.00
   1   5  -4   30.18    1.52
  -1  -5  -4   30.19    2.01
  -1  -5   4   35.50    2.00
   1  -5   4   32.59    1.30
   1  -6  -4  543.08   10.14
  -1  -6  -4  534.61    9.78
   1  -6   4  530.81    8.11
  -1  -6  -4  525.73    7.51
   1   6   4  521.31    9.75
   1   6   4  540.61    7.58
  -1   6  -4  521.33    8.05
   1  -6  -4  529.55    8.14
  -1  -6   4  532.16    8.81
   1   6  -4  525.54    8.51
   1  -6   4  521.90    8.07
  -1  -6  -4  525.73    7.51
  -1  -6   4  528.26    8.76
   1  -6   4  543.90    8.29
   1  -6  -4  516.00    9.48
   1  -6  -4  546.33    9.77
  -1  -6  -4  526.48    8.57
  -1  -6   4  538.30    9.38
  -1  -6  -4  530.69    9.78
   1   6  -4  530.02   10.49
  -1   6  -4  521.65    9.45
   1   6   4  533.09    7.56
   1  -6  -4  529.03    9.56
   1   6   4  534.78    9.53
  -1   6  -4  526.42    8.07
   1  -6  -4  524.56   10.54
  -1  -6  -4  514.81    9.48
   1  -6  -4  535.34    8.17
  -1  -6  -4  530.84    9.73
  -1   6   4  556.04   10.74
  -1   6   4  531.79    9.64
   1   6  -4  524.39    8.50
  -1  -6   4  536.27    9.41
   1  -6   4  535.46    7.71
   1  -7  -4   26.59    2.04
   1  -7   4   30.16    1.61
  -1  -7  -4   28.59    1.40
   1   7   4   28.66    2.05
  -1  -7  -4   26.29    1.94
   1   7   4   27.44    1.38
  -1   7  -4   28.28    1.55
  -1  -7   4   27.83    1.73
   1  -7  -4   28.75    1.57
   1   7  -4   27.55    1.67
   1  -7   4   28.66    1.57
  -1  -7  -4   28.05    1.39
  -1  -7   4   28.32    1.74
   1  -7   4   27.85    1.60
  -1  -7   4   27.90    1.89
   1  -7  -4   28.14    2.01
   1  -7  -4   28.18    1.91
  -1  -7  -4   30.70    1.75
  -1  -7  -4   27.40    1.99
  -1   7  -4   29.96    1.94
   1  -7  -4   30.53    2.03
   1   7   4   29.51    1.42
   1   7   4   29.92    2.01
  -1   7  -4   30.66    1.61
   1  -7  -4   29.88    2.32
  -1  -7  -4   28.18    1.99
   1  -7  -4   27.62    1.54
  -1  -7  -4   26.59    1.97
   1   7  -4   27.95    1.66
  -1   7   4   31.05    2.07
  -1  -7   4   29.02    1.90
   1  -7   4   29.94    1.44
  -1   7   4   33.03    2.53
   1  -8  -4  909.33   15.08
   1  -8   4  903.04   13.15
  -1  -8  -4  920.08   12.54
   1   8   4  912.01   14.87
   1  -8  -4  904.00   14.55
   1   8   4  909.30   12.57
  -1  -8  -4  903.84   14.29
  -1  -8   4  916.10   13.68
  -1   8  -4  929.29   13.12
   1  -8  -4  915.47   13.05
   1   8  -4  917.50   13.53
   1  -8   4  911.61   13.20
  -1  -8  -4  901.11   12.49
  -1  -8   4  905.73   13.64
  -1  -8   4  904.43   14.24
  -1  -8  -4  898.82   13.46
   1  -8  -4  938.49   14.06
   1  -8   4  915.13   13.23
   1  -8  -4  917.07   14.66
  -1   8  -4  931.06   13.97
   1   8   4  910.93   12.58
  -1  -8  -4  926.45   14.36
  -1   8   4  927.02   15.89
  -1   8  -4  917.63   13.08
   1  -8  -4  916.29   15.75
  -1  -8  -4  909.71   14.75
   1  -8  -4  908.64   13.02
   1   8   4  931.01   14.66
   1   8  -4  906.48   13.49
  -1   8   4  930.54   14.77
   1  -8   4  905.44   12.60
  -1  -8   4  930.16   14.32
  -1   8  -4  907.09   11.60
   1  -9   4   29.50    1.84
   1  -9  -4   27.85    2.21
   1   9   4   31.28    2.31
  -1  -9  -4   31.05    1.71
  -1   9   4   28.99    1.81
  -1  -9   4   30.36    1.95
   1   9   4   29.21    1.66
  -1   9  -4   33.26    1.91
   1  -9  -4   29.20    1.77
  -1  -9  -4   29.54    2.09
   1   9  -4   31.01    1.93
   1  -9   4   30.83    1.89
  -1  -9  -4   31.97    1.73
  -1  -9   4   29.25    1.92
   1  -9   4   29.22    1.82
  -1  -9   4   28.87    2.04
   1  -9  -4   31.87    2.20
  -1   9  -4   30.33    1.30
  -1   9   4   29.69    1.83
   1  -9  -4   31.98    2.27
   1  -9  -4   33.80    2.05
  -1   9  -4   30.74    1.97
   1   9   4   30.93    1.72
  -1   9   4   31.84    2.62
   1   9   4   31.21    2.27
  -1   9  -4   33.16    1.88
  -1  -9  -4   30.42    2.09
   1  -9  -4   32.85    2.54
  -1  -9  -4   30.93    2.25
   1  -9  -4   30.42    1.80
   1   9  -4   31.09    1.92
   1  -9   4   27.86    1.65
  -1   9   4   28.90    2.15
  -1  -9   4   26.35    1.98
   1 -10   4  153.10    4.51
   1  10   4  152.14    5.24
  -1 -10  -4  147.25    4.12
   1 -10  -4  147.84    5.21
  -1  10   4  157.06    4.58
  -1 -10   4  146.98    4.65
   1  10   4  155.73    4.23
  -1  10  -4  143.51    4.34
   1  10  -4  141.00    4.47
   1 -10  -4  143.71    4.30
   1 -10   4  151.94    4.50
  -1 -10  -4  146.18    4.11
  -1 -10  -4  148.65    4.68
  -1 -10   4  158.20    4.79
  -1 -10   4  156.67    4.99
   1 -10  -4  146.17    4.48
   1 -10  -4  146.50    5.01
  -1  10   4  158.03    4.58
   1 -10  -4  146.56    5.07
  -1  10  -4  146.27    3.19
   1  10   4  153.96    4.21
  -1  10   4  162.77    6.01
   1  10   4  165.99    5.58
  -1  10  -4  148.42    4.40
  -1  10  -4  143.01    4.37
   1 -10  -4  143.02    4.44
  -1 -10  -4  145.43    5.10
  -1 -10  -4  146.92    4.65
   1  10  -4  145.23    4.53
   1 -10  -4  144.15    4.30
   1 -10   4  154.05    4.32
  -1 -10   4  155.07    5.01
  -1  10   4  158.33    5.28
   1 -11   4   14.76    1.46
   1  11   4   14.61    1.75
  -1 -11  -4   13.35    1.33
   1 -11  -4   15.17    1.78
  -1  11   4   15.96    1.53
  -1 -11   4   14.06    1.50
   1  11   4   14.97    1.36
  -1  11  -4   16.51    1.55
   1 -11  -4   14.52    1.69
   1  11  -4   15.69    1.55
   1 -11  -4   13.48    1.34
  -1 -11  -4   15.55    1.56
   1 -11   4   14.56    1.46
  -1 -11  -4   14.79    1.40
  -1 -11  -4   13.61    1.48
  -1 -11   4   14.10    1.46
  -1  11  -4   13.50    1.35
   1 -11  -4   15.86    1.73
   1 -11  -4   14.99    1.45
  -1  11   4   16.03    1.53
   1  11   4   15.34    1.40
  -1  11  -4   15.13    0.99
  -1  11  -4   14.82    1.45
  -1 -11  -4   13.88    1.68
  -1  11  -4   14.51    1.37
  -1 -11   4   15.13    1.65
  -1  11   4   13.74    1.94
   1  11   4   14.26    1.79
   1  11  -4   15.01    1.54
   1 -11  -4   14.40    1.39
   1 -11  -4   14.42    1.41
   1 -11   4   14.71    1.43
  -1 -11   4   14.55    1.70
  -1  11   4   14.07    1.76
   1 -12   4  800.37   13.61
   1  12   4  825.37   14.98
  -1 -12  -4  795.88   12.98
   1 -12  -4  803.40   14.97
  -1  12  -4  824.27   12.81
  -1 -12   4  807.69   13.92
  -1  12   4  825.17   13.61
   1  12   4  825.33   13.20
  -1  12  -4  808.03   13.53
   1  12  -4  810.24   13.76
   1 -12  -4  799.92   13.30
   1 -12   4  810.41   13.68
  -1 -12  -4  786.47   12.96
  -1 -12   4  809.65   13.95
  -1 -12   4  817.23   14.31
   1 -12  -4  800.36   14.46
  -1 -12  -4  817.07   13.50
   1 -12  -4  832.91   13.01
  -1  12   4  824.62   13.60
   1 -12  -4  808.23   14.76
   1  12   4  820.40   13.17
  -1  12   4  826.33   16.39
   1  12   4  828.17   15.68
  -1  12  -4  807.29   13.53
  -1  12  -4  808.47   11.02
  -1 -12  -4  809.41   14.85
  -1  12  -4  806.90   12.71
   1  12  -4  809.45   13.78
  -1 -12  -4  812.26   13.51
  -1 -12   4  808.71   14.41
   1 -12  -4  795.42   13.28
  -1  12   4  822.03   14.90
   1 -12  -4  811.58   12.92
  -1 -13   4    1.58    0.83
   1 -13  -4    1.14    0.70
   1  13   4    1.15    0.94
   1 -13  -4    0.95    0.89
  -1  13  -4    0.70    0.54
   1 -13   4    2.01    0.77
  -1 -13  -4    0.55    0.48
   1 -13  -4    0.65    0.50
  -1  13   4    1.44    0.69
   1 -13  -4    1.71    0.70
   1 -13  -4    1.14    0.76
   1  13   4    1.56    0.68
  -1  13  -4    1.97    0.78
  -1 -13  -4    0.48    0.74
  -1 -13   4    1.16    0.75
  -1 -13  -4    0.47    0.74
  -1  13  -4    1.03    0.36
   1  13  -4    2.67    0.93
   1 -13  -4    1.43    0.71
  -1 -13  -4    2.35    0.83
  -1  13   4    1.58    0.69
   1 -13   4    0.92    0.71
  -1 -13  -4    0.97    0.67
  -1 -13   4    0.60    0.61
   1  13   4    1.58    0.95
  -1 -13   4    0.35    0.66
  -1  13  -4    0.96    0.54
  -1  13   4    0.75    0.58
   1  13   4    2.49    0.73
  -1  13   4    1.73    1.00
  -1  13  -4    1.50    0.70
   1  13  -4    1.16    0.73
  -1 -14   4    5.48    1.23
   1 -14  -4    1.35    0.61
  -1  14  -4    2.15    0.69
   1 -14   4    5.57    1.10
  -1 -14  -4    2.59    0.79
  -1  14   4    3.71    0.90
   1 -14  -4    2.22    0.64
   1  14   4    3.76    0.91
  -1  14  -4    4.22    0.87
  -1 -14   4    3.84    1.02
   1  14  -4    4.72    1.14
  -1  14  -4    3.07    0.58
   1 -14  -4    3.00    0.95
  -1 -14  -4    2.61    0.90
  -1  14   4    5.25    1.18
   1 -14   4    5.99    1.21
  -1 -14  -4    1.83    0.77
  -1 -14   4    4.11    0.99
   1  14   4    5.17    1.23
   1 -14  -4    2.91    0.74
  -1 -14   4    5.11    1.26
  -1  14  -4    3.90    0.78
  -1  14   4    5.86    1.12
   1  14   4    3.68    0.88
  -1  14   4    3.13    1.31
   1  14   4    5.00    1.28
  -1  14  -4    3.17    0.96
   1  14  -4    4.25    1.02
  -1 -15  -4   13.52    1.65
  -1 -15   4   11.25    1.66
   1 -15  -4    7.33    1.24
  -1  15  -4   11.35    1.19
   1 -15  -4    9.40    1.14
   1 -15   4    9.03    1.44
  -1 -15  -4   10.42    1.41
  -1  15   4   12.89    1.62
   1  15   4   10.62    1.42
  -1  15  -4   10.55    1.48
  -1 -15   4    8.17    1.44
   1 -15  -4   11.65    1.26
   1  15  -4   11.94    1.67
   1 -15  -4    9.70    1.43
  -1  15   4   10.84    1.70
   1 -15   4   11.21    1.64
  -1 -15  -4    9.53    1.38
  -1 -15   4   11.05    1.54
   1  15   4    8.63    1.58
  -1 -15   4   11.91    1.74
  -1  15   4    9.76    1.46
   1  15   4   11.08    1.44
  -1  15  -4   10.74    1.02
  -1  15   4    9.61    1.91
   1  15   4   12.49    2.01
  -1  15  -4    9.96    1.49
  -1  15  -4    8.83    1.05
   1  15  -4    9.31    1.41
   1  16   4  448.27   11.38
   1 -16   4  447.08   10.60
  -1 -16  -4  435.77   10.04
  -1  16  -4  452.35    8.40
  -1  16   4  449.32   10.47
   1  16   4  449.76   10.20
  -1  16  -4  460.93   10.61
   1  16  -4  469.69   10.80
  -1 -16   4  457.55   10.98
   1 -16  -4  455.68   10.38
   1  16  -4  466.92   10.78
   1 -16   4  442.07   10.59
  -1 -16  -4  458.93   10.25
   1  16  -4  465.08    8.92
   1 -16  -4  464.50    8.84
  -1  16   4  451.02   10.48
  -1  16  -4  468.81    8.53
   1  16   4  447.90   10.21
  -1  16  -4  461.84   10.60
   1  16   4  436.45   12.30
  -1  16   4  466.95   12.92
  -1  16  -4  453.80    7.92
   1 -16  -4  470.85    8.90
  -1 -16   4  442.79   10.95
  -1  16   4  446.98   11.30
   1 -16  -4  438.77   10.22
  -1 -17  -4    2.39    0.95
  -1  17   4    2.45    1.06
   1  17   4    2.44    0.91
  -1  17  -4    3.15    1.07
   1  17  -4    1.71    0.84
   1 -17  -4    2.65    0.75
  -1 -17  -4    4.33    1.13
  -1 -17   4    2.04    1.01
  -1  17   4    2.39    1.02
   1  17   4    3.61    1.01
  -1  17   4    4.91    1.89
  -1  17  -4    2.40    1.01
   1  17   4    3.37    1.47
   1  17  -4    2.28    1.04
  -1  18   4  118.78    5.31
   1  18   4  118.43    5.16
  -1  18  -4  115.19    5.32
   1  18  -4  118.43    5.44
  -1  18   4  118.58    5.32
   1  18   4  119.66    5.18
  -1  18  -4  116.15    5.32
  -1  18   4  130.22    6.94
   1  18   4  117.83    6.49
   1  18  -4  113.35    5.36
  -1 -18   4  120.54    5.62
  -1  19   4   -0.17    0.84
   1  19   4    0.95    0.97
  -1 -19   4    1.52    1.09
  -1  19   4    1.92    1.00
   1  19   4   -0.10    0.95
  -1  19   4    1.20    1.47
   1  19   4    1.27    1.35
  -1 -20   4  151.31    6.76
  -1  20   4  159.32    8.11
   1  20   4  159.07    8.06
  -1 -21   4    3.08    1.42
  -1  21   4    2.49    1.75
   1  21   4    2.45    1.19
   1  22   4  190.03    9.35
  -2   0   4  968.62   14.47
  -2   0  -4  935.48   13.38
  -2   0  -4  916.36   14.34
   2   0  -4  914.87   12.75
   2   0  -4  930.80   12.79
   2   0  -4  912.29   13.83
  -2   0   4  984.34   14.11
   2   0  -4  921.15   12.29
  -2   0   4  977.80   15.31
  -2   0  -4  903.23   14.32
  -2   0  -4  892.80   12.86
   2   0  -4  906.02   14.92
  -2   0   4  974.21   12.32
   2   0  -4  915.62   14.37
  -2   0  -4  924.84   11.44
  -2  -1  -4   20.14    1.08
  -2  -1  -4   19.77    1.45
   2  -1  -4   19.50    1.80
  -2   1   4   22.01    1.72
  -2   1  -4   19.87    1.63
  -2   1  -4   19.77    1.37
  -2  -1  -4   20.74    1.69
   2   1  -4   19.01    1.25
   2  -1  -4   19.38    1.29
   2   1  -4   17.83    1.24
   2   1  -4   21.65    1.58
   2  -1  -4   21.72    1.60
   2  -1  -4   20.76    1.34
  -2  -1   4   22.45    1.63
   2  -1  -4   20.63    1.29
  -2   1  -4   19.78    1.65
  -2   1   4   22.44    1.92
  -2   1  -4   19.66    1.34
  -2  -1  -4   19.86    1.68
   2   1  -4   23.29    1.94
  -2  -1  -4   19.40    1.31
  -2   1   4   22.57    1.31
  -2   1   4   23.34    1.69
  -2  -1   4   21.14    1.09
  -2   1  -4   20.36    0.77
   2   1  -4   18.75    1.57
   2  -1  -4   21.85    1.75
  -2  -1   4   24.43    1.76
  -2   2  -4  113.55    3.85
  -2  -2  -4  121.14    2.98
  -2   2   4  110.31    3.83
  -2   2  -4  107.47    3.18
   2  -2  -4  113.80    3.11
  -2  -2  -4  113.39    3.95
   2   2  -4  121.85    3.25
  -2  -2   4  108.98    3.61
   2  -2   4   84.09    1.70
   2  -2  -4  115.21    3.24
   2   2  -4  118.42    3.20
   2  -2   4  102.68    1.92
  -2  -2   4  106.94    3.16
   2   2  -4  114.77    3.72
  -2   2   4  109.91    4.19
   2  -2  -4  119.97    3.85
   2  -2  -4  112.24    3.21
  -2   2   4  102.02    3.56
   2  -2   4  104.31    1.92
  -2  -2   4  109.64    3.19
   2  -2  -4  114.06    3.25
   2  -2  -4  110.58    3.07
  -2   2  -4  116.17    3.94
  -2   2  -4  112.95    3.39
   2   2  -4  117.35    4.27
  -2  -2  -4  111.86    3.96
   2  -2  -4  119.67    4.34
  -2  -2  -4  116.08    3.22
  -2   2   4  107.65    3.14
   2   2  -4  110.89    3.79
  -2  -2   4  103.99    2.28
   2  -2  -4  112.41    4.02
  -2  -2  -4  113.41    3.58
  -2  -2   4  104.75    3.71
   2  -2   4   85.19    1.70
   2   3  -4    0.97    0.63
  -2  -3   4    0.28    0.59
   2  -3  -4    0.15    0.66
   2  -3   4    0.68    0.23
  -2   3   4    1.49    0.74
  -2  -3  -4    1.35    0.47
   2  -3  -4    1.10    0.55
  -2   3  -4    1.12    0.68
   2  -3  -4    0.78    0.44
  -2  -3  -4    0.51    0.65
   2   3  -4    0.61    0.40
  -2   3   4    1.18    0.53
  -2  -3  -4    1.59    0.68
   2  -3   4    1.03    0.27
  -2  -3  -4    1.29    0.58
   2   3  -4    0.44    0.40
  -2  -3   4    0.78    0.19
  -2  -3   4    0.80    0.48
   2  -3  -4    1.25    0.52
   2   3  -4    0.47    0.47
  -2  -3   4    0.45    0.48
   2  -3  -4    0.05    0.53
   2  -3  -4    0.83    0.46
  -2  -3  -4    0.74    0.22
  -2   3   4    0.97    0.58
  -2   3  -4    0.87    0.54
   2  -3  -4    0.86    0.45
   2   3  -4    0.63    0.59
  -2   3   4    0.38    0.75
   2  -3  -4    1.10    0.73
  -2  -3  -4    1.26    0.56
  -2   3  -4    0.21    0.57
  -2  -3   4    0.95    0.49
   2   4  -4 1089.91   14.52
   2  -4  -4 1052.50   14.26
   2   4   4 1032.91   12.23
  -2  -4  -4 1082.92   16.14
   2  -4   4 1058.15   12.97
  -2  -4   4 1063.11   14.88
   2   4  -4 1080.54   14.50
  -2  -4  -4 1060.22   12.52
   2   4  -4 1060.47   15.43
   2  -4   4 1061.19   12.35
  -2  -4   4 1061.08   15.60
   2  -4  -4 1049.14   15.98
  -2  -4   4 1040.61   14.80
  -2  -4  -4 1062.82   12.52
  -2   4   4 1067.03   15.53
   2  -4  -4 1077.48   15.11
  -2   4  -4 1052.87   15.72
   2   4   4 1080.82   14.28
   2   4  -4 1054.59   16.74
   2  -4  -4 1064.55   14.28
  -2   4   4 1062.01   16.97
  -2  -4  -4 1099.18   16.19
   2  -4  -4 1052.74   16.92
   2   4   4 1032.07   12.23
  -2  -4  -4 1056.59   14.44
  -2  -4  -4 1083.70   13.09
  -2   4   4 1042.86   15.03
   2   4  -4 1063.03   15.83
  -2  -4  -4 1082.87   15.66
   2  -4   4 1062.87   12.98
  -2  -4   4 1035.92   15.79
   2  -4  -4 1084.88   16.50
  -2   4  -4 1056.91   15.73
  -2  -5   4    2.26    0.67
  -2  -5   4    1.75    0.77
   2  -5   4    2.14    0.41
   2  -5   4    2.16    0.49
   2  -5  -4    1.88    0.93
  -2   5  -4    4.76    1.04
   2  -5  -4    4.24    0.94
  -2   5  -4    2.76    0.56
   2   5  -4    2.94    0.74
   2  -5  -4    3.18    0.71
  -2  -5  -4    2.98    0.95
   2   5   4    1.58    0.34
  -2   5   4    4.35    0.90
   2  -5   4    3.73    0.60
  -2  -5  -4    1.77    0.73
  -2  -5  -4    2.52    0.45
   2   5  -4    2.30    0.63
  -2  -5   4    1.06    0.60
   2   5   4    3.27    0.98
  -2  -5   4    2.80    0.87
   2  -5  -4    1.43    0.74
  -2  -5  -4    2.28    0.52
  -2  -5  -4    2.88    0.92
  -2   5  -4    2.83    0.52
   2   5  -4    0.98    0.77
  -2  -5  -4    2.04    0.43
   2   5   4    2.37    0.61
  -2   5   4    4.60    1.30
   2  -5  -4    2.38    0.61
  -2   5  -4    3.24    0.89
   2  -5  -4    1.46    0.86
  -2  -5  -4    2.39    0.67
   2   5   4    2.07    0.36
   2   6  -4  807.83   12.25
  -2   6  -4  811.95   11.36
   2  -6  -4  804.25   11.96
   2   6   4  830.08   10.72
  -2  -6  -4  813.85   10.82
  -2  -6   4  810.64   12.63
   2  -6   4  819.54   11.30
   2   6  -4  818.22   12.30
  -2  -6  -4  819.27   13.51
  -2   6  -4  807.93   11.35
  -2  -6  -4  820.26   10.84
   2  -6   4  830.42   10.98
  -2  -6   4  795.75   12.57
  -2  -6   4  836.65   13.34
   2  -6  -4  813.99   13.66
   2  -6  -4  807.77   12.96
  -2   6  -4  805.57   12.92
   2   6   4  811.90   13.33
   2   6  -4  814.73   14.31
   2   6   4  802.81   12.06
  -2   6   4  820.74   14.60
   2  -6  -4  809.08   11.98
   2  -6  -4  815.82   14.54
   2   6   4  809.13   10.67
  -2  -6  -4  815.86   13.48
  -2  -6  -4  810.63   11.97
  -2   6   4  812.07   13.04
  -2  -6  -4  799.21   13.22
  -2  -6   4  823.57   13.52
   2  -6   4  819.89   11.30
  -2   6  -4  820.56   12.96
   2  -6  -4  833.01   13.99
  -2  -7   4   13.46    1.47
   2  -7  -4   16.32    1.66
  -2   7  -4   13.95    1.16
  -2   7  -4   14.52    1.41
  -2  -7  -4   13.05    1.01
   2  -7  -4   13.65    1.22
   2   7   4   13.36    0.99
  -2  -7  -4   13.12    1.49
  -2  -7  -4   12.55    1.49
   2  -7   4   13.42    1.11
   2   7  -4   13.11    1.28
  -2  -7  -4   13.35    1.45
  -2  -7   4   11.85    1.26
  -2  -7  -4   14.27    1.07
   2  -7  -4   15.02    1.60
  -2  -7   4   12.78    1.27
  -2  -7   4   14.07    1.48
   2  -7  -4   15.46    1.52
  -2   7  -4   14.95    1.18
   2   7   4   12.80    1.21
   2  -7  -4   15.01    1.27
   2   7   4   13.91    0.99
   2   7  -4   15.14    1.76
  -2   7   4   13.80    1.87
  -2   7   4   14.50    1.50
   2  -7  -4   15.25    1.83
  -2   7  -4   13.61    1.38
   2  -7   4   13.10    1.10
   2  -7   4   12.92    0.68
   2   7  -4   13.49    1.29
   2  -8  -4  283.37    7.38
  -2   8  -4  274.01    6.38
   2   8   4  280.07    7.09
  -2  -8  -4  273.91    5.47
  -2   8  -4  278.46    5.85
   2   8   4  275.63    5.39
   2  -8  -4  289.22    6.21
  -2  -8   4  270.96    6.46
   2  -8   4  261.21    5.70
   2   8  -4  273.04    6.28
  -2  -8  -4  281.32    5.52
  -2  -8   4  270.97    6.45
  -2  -8   4  275.68    6.89
   2  -8  -4  271.21    7.13
  -2   8  -4  278.67    6.42
  -2   8  -4  273.89    5.80
   2   8   4  273.35    6.21
  -2   8   4  277.85    7.91
   2   8   4  265.22    5.33
   2  -8  -4  278.43    6.11
   2  -8  -4  281.76    7.87
  -2  -8  -4  279.87    6.87
  -2  -8  -4  278.31    6.84
  -2   8   4  267.79    6.80
  -2  -8  -4  275.83    7.02
   2  -8   4  262.82    4.52
  -2  -8   4  267.37    6.94
   2  -8   4  262.36    5.71
   2   8  -4  277.80    6.33
   2  -8  -4  271.32    6.81
   2  -9   4    5.16    0.67
  -2  -9   4    4.16    0.96
   2   9  -4    4.04    0.90
  -2   9  -4    4.66    0.91
   2  -9   4    5.25    0.92
   2  -9  -4    5.59    1.20
  -2   9  -4    5.11    0.81
   2  -9  -4    4.48    1.03
  -2   9  -4    5.48    0.98
  -2   9  -4    4.93    0.93
  -2  -9  -4    4.61    0.75
   2   9   4    5.64    0.81
   2  -9  -4    5.12    0.90
  -2  -9  -4    6.82    1.21
  -2  -9  -4    6.55    1.21
  -2   9   4    6.16    1.17
  -2  -9   4    5.85    1.02
   2   9  -4    4.27    0.88
   2  -9   4    5.78    0.91
  -2  -9  -4    3.94    0.72
   2  -9  -4    4.24    0.87
  -2  -9   4    6.13    1.02
   2   9   4    6.89    1.27
  -2  -9   4    5.19    1.12
   2  -9  -4    3.67    1.00
  -2   9  -4    3.70    0.74
  -2   9   4    6.38    1.51
   2   9   4    7.13    1.14
  -2  -9  -4    4.68    1.12
   2  -9  -4    4.80    1.25
   2   9   4    5.91    0.84
   2  -9  -4    4.90    0.95
   2 -10  -4  666.61   12.91
   2  10   4  627.50   12.38
  -2  10  -4  666.45   11.17
  -2 -10  -4  655.99   10.61
  -2  10  -4  661.80   11.16
   2  10   4  650.20   10.56
  -2 -10   4  642.79   11.74
   2 -10  -4  662.15   11.30
   2  10  -4  661.21   11.66
   2 -10   4  628.03   10.98
  -2 -10  -4  653.68   10.61
  -2 -10   4  653.26   11.82
  -2 -10   4  656.17   12.34
   2 -10  -4  650.39   11.14
  -2  10  -4  660.47   10.12
   2 -10  -4  669.12   12.49
  -2  10  -4  667.36   11.16
  -2  10  -4  675.48   11.22
  -2  10   4  652.65   13.82
  -2 -10  -4  673.99   12.05
   2  10   4  656.50   11.88
   2  10   4  652.68   10.56
   2 -10  -4  661.11   13.58
   2 -10  -4  656.93   11.27
  -2 -10  -4  672.36   12.67
  -2  10   4  659.36   12.45
   2 -10   4  666.95   10.02
  -2 -10  -4  662.03   11.98
  -2 -10   4  638.25   12.39
   2  10  -4  666.57   11.68
   2 -10  -4  650.15   12.60
   2 -10   4  640.13   11.04
  -2 -11   4    9.92    1.47
   2  11  -4   11.92    1.44
   2 -11  -4   11.10    1.55
   2 -11   4   11.34    1.31
   2 -11  -4   12.30    1.61
   2 -11  -4   10.41    1.22
  -2  11  -4   11.92    1.29
  -2  11  -4   11.91    1.32
   2 -11  -4   13.21    1.44
  -2 -11  -4   10.05    1.16
  -2  11  -4   10.77    1.19
   2  11   4    9.55    1.10
  -2 -11  -4   14.05    1.73
  -2 -11   4   11.57    1.46
   2  11  -4   12.84    1.47
  -2  11   4   12.00    1.64
  -2 -11  -4   12.95    1.59
   2 -11   4   10.04    1.25
  -2 -11  -4   10.93    1.19
  -2 -11   4   10.44    1.41
   2  11   4    9.75    1.50
  -2 -11  -4   13.88    1.57
  -2 -11   4    9.01    1.36
  -2  11  -4   10.59    1.04
   2 -11  -4   11.52    1.59
  -2  11  -4   12.07    1.35
  -2  11   4   11.57    1.90
   2  11   4   10.45    1.49
   2  11   4   10.34    1.16
   2 -11  -4   11.83    1.34
   2 -12  -4   21.80    2.23
   2  12   4   20.49    2.07
  -2 -12  -4   20.32    1.65
  -2  12   4   21.61    1.91
  -2  12  -4   20.24    1.78
   2  12   4   17.72    1.55
  -2 -12   4   21.84    2.00
  -2  12  -4   20.07    1.60
   2  12   4   18.17    1.56
   2 -12  -4   20.40    1.79
   2  12  -4   20.63    1.86
   2 -12   4   18.77    1.72
  -2 -12  -4   19.29    1.61
  -2 -12   4   21.58    1.99
  -2 -12   4   23.51    2.18
   2 -12  -4   18.15    1.96
  -2  12   4   21.52    1.91
  -2  12  -4   22.05    1.48
  -2  12  -4   21.57    1.85
   2 -12  -4   20.64    1.65
  -2  12  -4   21.15    1.66
   2  12   4   21.59    2.11
  -2 -12  -4   24.70    2.23
  -2  12   4   21.46    2.55
   2 -12  -4   20.38    1.78
  -2  12   4   19.55    2.03
   2  12  -4   20.33    1.85
  -2 -12   4   23.70    2.18
   2 -12   4   18.89    1.73
  -2 -12  -4   24.78    2.05
   2 -13  -4    0.54    0.72
   2  13  -4    0.17    0.69
  -2 -13   4    0.45    0.80
   2 -13  -4    0.64    0.58
   2 -13  -4    2.45    1.03
   2 -13   4    0.74    0.72
  -2  13   4    1.05    0.73
   2 -13  -4    1.68    0.92
  -2  13  -4    0.63    0.46
  -2  13  -4    0.66    0.62
  -2  13  -4    0.12    0.54
  -2 -13  -4    1.29    0.68
   2  13   4    0.18    0.57
  -2 -13   4    0.50    0.67
   2 -13  -4    1.56    0.79
   2  13  -4    0.10    0.61
  -2  13   4    0.07    0.62
   2 -13   4   -0.06    0.55
  -2  13  -4   -0.26    0.56
  -2 -13  -4    3.31    1.14
  -2 -13  -4    0.53    0.55
  -2 -13   4    0.58    0.62
   2  13   4   -1.24    0.90
   2 -13  -4    0.40    0.52
  -2 -13   4    1.19    0.82
  -2  13   4    0.70    0.76
  -2  13  -4    0.26    0.58
  -2  13   4    0.02    0.95
   2  13   4    0.46    0.91
   2  13   4    0.18    0.49
   2  14   4  623.45   13.22
  -2 -14  -4  598.34   11.48
   2 -14  -4  607.01   10.60
  -2  14   4  621.80   12.37
  -2  14  -4  610.12   11.96
  -2 -14   4  622.36   12.71
   2  14   4  636.54   11.75
   2  14  -4  602.82   12.30
   2 -14  -4  584.18   11.84
   2 -14   4  620.40   12.14
  -2  14  -4  603.32   10.43
  -2 -14  -4  585.88   11.43
  -2 -14   4  624.73   12.72
  -2 -14   4  614.50   12.93
  -2  14   4  638.82   12.47
  -2  14  -4  619.04   12.01
  -2  14  -4  600.59   10.14
  -2  14   4  653.25   14.98
   2  14   4  624.40   13.64
   2  14   4  642.66   11.79
  -2  14  -4  608.36   10.47
   2  14  -4  611.14   12.35
   2 -14  -4  603.74   11.97
  -2  14   4  615.82   13.12
  -2 -14   4  646.80   13.31
   2 -14  -4  596.49   10.53
   2 -14   4  620.94   12.15
   2 -15  -4    3.97    1.03
  -2 -15   4    3.64    1.20
   2 -15   4    5.44    1.15
   2 -15  -4    3.37    0.73
  -2  15   4    4.15    1.08
   2 -15  -4    3.69    0.75
  -2  15  -4    3.59    1.03
  -2 -15  -4    4.15    1.04
   2  15   4    4.35    1.02
  -2  15  -4    3.55    0.76
  -2  15  -4    2.95    0.80
  -2  15  -4    3.66    0.82
  -2 -15   4    4.17    1.21
   2  15  -4    4.63    1.21
   2 -15  -4    2.70    0.91
  -2  15   4    4.49    1.25
   2 -15   4    6.19    1.31
  -2 -15  -4    3.18    0.94
  -2 -15   4    5.93    1.29
   2  15   4    3.26    1.10
  -2 -15   4    4.14    1.19
  -2  15   4    3.58    1.04
  -2  15  -4    4.50    1.17
  -2  15   4    3.15    1.39
   2  15   4    1.14    0.91
   2  15   4    3.81    0.92
   2  15  -4    6.56    1.29
   2  16   4   48.80    3.55
  -2 -16  -4   48.10    3.04
  -2  16   4   48.63    3.28
  -2  16  -4   52.52    3.39
   2  16   4   51.59    3.14
   2  16  -4   53.84    3.47
   2 -16  -4   53.96    2.53
   2 -16  -4   53.03    3.30
   2 -16   4   49.65    3.25
  -2 -16  -4   55.43    3.26
  -2 -16   4   48.77    3.42
  -2  16   4   50.55    3.35
  -2  16  -4   51.78    3.31
  -2  16   4   56.93    4.40
   2  16   4   48.20    3.05
   2  16   4   51.43    3.91
   2 -16  -4   56.23    2.59
  -2  16  -4   56.16    2.61
   2  16  -4   55.49    3.52
  -2  16  -4   54.73    2.50
  -2 -16   4   48.28    3.49
  -2  16   4   48.87    3.56
   2 -16  -4   53.15    3.30
   2 -16   4   52.77    3.34
  -2 -17   4    8.44    1.64
  -2  17   4    6.68    1.42
  -2  17  -4    7.44    1.43
  -2 -17  -4    9.59    1.49
   2  17   4    6.22    1.25
   2  17  -4    6.42    1.42
  -2 -17  -4    6.98    1.28
  -2 -17   4    7.90    1.53
  -2  17   4    9.08    1.59
  -2  17  -4    6.97    1.40
  -2  17   4    6.62    1.84
   2  17   4    7.54    1.68
   2  17   4    6.34    1.26
   2  17  -4    7.04    1.47
  -2  18   4  288.74    8.79
  -2  18  -4  278.56    8.53
   2  18   4  274.85    8.20
   2  18  -4  266.57    8.60
  -2 -18   4  278.16    9.04
  -2  18   4  279.90    8.64
  -2  18  -4  275.89    8.48
   2  18   4  281.98    8.29
  -2  18   4  296.16   10.55
   2  18   4  252.20    9.61
   2  18  -4  272.36    8.69
  -2 -18   4  277.82    9.07
  -2 -19   4    2.40    1.30
   2  19   4    3.84    1.21
  -2 -19   4    3.99    1.40
  -2  19   4    2.01    1.33
   2  19   4    1.29    1.32
   2  19   4    0.68    0.82
  -2 -20   4  151.60    6.94
  -2  20   4  164.64    8.23
   2  21   4    1.48    1.44
   2  22   4   57.92    5.07
   3   0  -4    0.51    0.70
   3   0   4   -0.25    0.60
  -3   0  -4    0.26    0.16
  -3   0   4    0.29    0.67
  -3   0  -4    4.90    1.09
   3   0   4    1.05    0.23
  -3   0   4    0.92    0.41
  -3   0  -4    3.98    1.02
   3   0   4    1.12    0.27
   3   0  -4   -0.27    0.63
   3   0   4    0.53    0.19
  -3   0  -4    1.74    0.65
   3   0  -4    0.49    0.57
   3   0  -4    0.22    0.58
  -3   0   4    0.15    0.64
  -3   0   4    0.54    0.84
  -3   0  -4    0.13    0.37
   3   0   4    0.86    0.21
   3   0  -4    0.57    0.60
  -3   1   4   65.38    3.21
  -3  -1  -4   76.85    1.97
   3   1   4   67.99    1.56
  -3  -1  -4   78.71    3.14
   3   1   4   65.43    1.60
   3  -1  -4   73.03    3.24
   3  -1   4   65.51    1.67
   3   1  -4   72.12    2.88
   3  -1   4   65.19    1.76
   3  -1  -4   74.01    2.92
   3   1   4   67.38    1.56
  -3   1  -4   76.83    3.35
  -3  -1  -4   78.23    3.40
   3   1  -4   73.67    2.90
   3   1  -4   73.27    3.24
   3  -1  -4   73.70    2.92
  -3  -1   4   70.92    3.21
  -3   1   4   67.00    3.14
   3  -1   4   61.68    3.01
   3   1   4   59.22    2.99
   3  -1   4   66.91    1.78
   3   1   4   66.64    1.61
  -3   1   4   65.73    3.41
  -3   1  -4   71.11    2.37
   3   1  -4   77.21    3.65
   3  -1  -4   75.97    3.64
  -3  -1  -4   74.78    2.23
   3  -1   4   65.24    1.67
  -3   1   4   65.06    2.43
  -3  -1   4   66.87    2.15
  -3   1  -4   71.58    3.25
  -3  -1  -4   73.76    3.28
   3   1  -4   75.16    3.39
   3  -1  -4   76.91    3.48
  -3  -1   4   67.83    3.24
  -3   2   4  878.06   14.62
  -3  -2  -4  900.06   13.97
   3   2  -4  869.10   13.31
   3  -2   4  881.02   10.94
   3   2   4  889.47   10.53
   3  -2  -4  880.02   13.38
  -3   2  -4  877.59   14.14
   3  -2   4  891.45   11.18
   3   2  -4  869.82   13.32
  -3  -2  -4  892.25   14.42
   3   2  -4  854.60   14.13
   3  -2  -4  873.88   14.33
  -3  -2   4  904.42   14.37
   3  -2   4  896.66   14.18
   3  -2  -4  881.22   13.38
   3  -2   4  897.39   11.20
  -3   2   4  893.90   14.37
   3   2   4  883.50   14.34
  -3   2  -4  880.48   12.38
  -3   2   4  895.57   15.19
   3   2  -4  872.31   15.02
   3  -2  -4  884.34   15.22
  -3  -2  -4  878.38   11.50
  -3   2   4  874.61   12.73
  -3  -2   4  844.27   11.26
   3  -2   4  879.61   10.94
  -3   2  -4  847.25   14.03
  -3  -2  -4  886.24   14.38
   3   2  -4  883.90   14.49
   3  -2  -4  874.11   14.72
  -3  -2   4  886.37   14.53
   3   2   4  899.48   10.54
  -3  -3  -4   15.40    1.51
  -3   3   4   15.03    1.63
   3  -3  -4   14.58    1.65
   3  -3  -4   14.67    1.34
   3   3  -4   14.87    1.38
   3  -3   4   17.22    0.95
  -3   3  -4   13.66    1.53
   3   3   4   15.30    0.78
  -3  -3  -4   16.04    1.71
  -3   3  -4   13.92    1.55
   3   3  -4   15.78    1.39
  -3  -3   4   14.75    1.37
  -3  -3  -4   13.92    1.56
  -3  -3  -4   12.01    0.55
   3  -3   4   17.22    1.62
   3  -3  -4   13.01    1.28
   3  -3  -4   15.13    1.63
  -3  -3  -4   13.11    0.58
  -3  -3   4   14.83    1.37
   3   3  -4   12.79    1.43
   3   3   4   16.24    1.63
   3  -3  -4   14.37    1.35
   3  -3  -4   14.72    1.35
  -3   3   4   15.98    1.56
  -3  -3  -4   11.90    0.86
  -3   3   4   15.94    1.38
  -3  -3   4   16.95    0.85
   3  -3   4   16.63    0.93
  -3   3   4   18.30    1.90
   3   3  -4   13.35    1.61
   3  -3  -4   13.30    1.71
  -3  -3   4   16.98    1.63
   3   3  -4   14.26    1.57
   3   3   4   16.81    0.81
  -3  -3   4   16.73    1.66
   3  -4   4  381.27    2.82
  -3   4   4  401.17    7.82
   3   4  -4  411.47    6.73
   3  -4  -4  401.02    6.54
   3  -4   4  395.18    4.81
   3   4   4  406.13    4.21
  -3   4  -4  389.22    7.20
   3   4  -4  417.50    6.78
  -3  -4   4  404.36    6.97
   3  -4  -4  406.87    7.86
  -3  -4  -4  403.50    4.70
   3   4  -4  401.67    7.47
  -3  -4  -4  403.18    3.97
  -3  -4   4  421.92    7.69
   3  -4  -4  409.22    6.76
  -3  -4   4  411.44    7.02
  -3  -4  -4  419.38    7.77
  -3   4   4  407.81    7.52
  -3  -4  -4  413.26    4.76
   3  -4  -4  413.25    7.02
   3   4   4  412.44    7.59
   3  -4  -4  412.53    7.02
   3  -4  -4  405.97    6.57
   3   4  -4  398.73    8.06
  -3   4   4  408.52    8.51
   3  -4  -4  414.34    8.55
  -3   4  -4  399.83    7.30
  -3   4   4  402.21    6.63
  -3  -4  -4  400.83    4.63
   3  -4   4  397.35    4.82
  -3  -4   4  389.02    3.23
  -3  -4  -4  412.61    7.75
   3   4  -4  406.13    7.71
   3   4   4  410.98    4.23
  -3  -4   4  412.14    7.84
   3  -4  -4  408.75    8.08
  -3  -4  -4  406.37    7.35
   3   5  -4   16.86    1.48
   3  -5  -4   18.87    1.51
   3  -5   4   22.51    1.28
   3   5   4   22.04    1.12
  -3   5  -4   16.02    1.61
  -3  -5  -4   16.32    1.71
  -3   5  -4   17.27    1.64
  -3  -5   4   22.68    1.73
  -3  -5  -4   19.28    1.17
   3   5  -4   18.08    1.54
   3  -5   4   24.38    1.01
   3   5  -4   18.99    1.75
  -3  -5  -4   19.19    1.05
  -3  -5   4   26.24    2.05
   3   5   4   23.22    1.98
   3  -5  -4   18.54    1.86
  -3  -5  -4   19.73    1.18
   3  -5  -4   21.92    1.75
  -3   5   4   24.40    2.01
  -3  -5   4   22.12    1.72
  -3  -5  -4   16.74    1.74
   3   5   4   22.63    1.18
   3  -5  -4   18.93    1.51
   3   5  -4   19.96    1.94
  -3   5   4   26.62    2.48
   3  -5  -4   18.64    1.98
  -3   5   4   23.26    1.75
   3  -5   4   23.36    1.30
   3   5   4   23.32    1.14
  -3  -5   4   22.67    1.95
  -3  -5  -4   18.84    1.69
   3  -5  -4   19.21    1.92
   3   6  -4  634.75   10.97
   3  -6  -4  637.74   10.79
   3  -6   4  603.56    9.56
   3   6   4  645.57    9.13
  -3  -6  -4  636.66    9.53
  -3  -6   4  630.79   11.26
   3   6  -4  627.50   10.95
  -3   6  -4  632.04   11.20
  -3  -6   4  630.74   11.74
  -3  -6  -4  655.99    9.57
  -3  -6   4  638.99   11.28
   3  -6  -4  629.89   12.04
   3  -6  -4  635.64   11.29
   3   6   4  617.71   11.53
   3   6  -4  639.86   12.42
   3   6   4  652.00    9.16
   3  -6  -4  629.40   10.73
  -3   6   4  629.79   12.87
  -3  -6  -4  635.56   11.76
   3  -6  -4  632.15   12.79
  -3   6  -4  628.61   11.19
  -3   6   4  632.15   11.17
   3  -6   4  630.80    8.70
   3  -6   4  605.80    9.58
   3   6   4  632.07    9.09
  -3  -6  -4  631.35   11.79
  -3  -6  -4  631.71   11.67
  -3  -6   4  642.98   12.06
   3  -6  -4  647.21   12.36
   3   7   4    4.62    0.68
   3  -7   4    3.93    0.70
  -3   7  -4    6.62    1.21
  -3  -7   4    5.87    1.25
   3  -7  -4    5.10    1.12
   3  -7  -4    5.58    1.10
   3   7   4    5.57    1.11
   3   7  -4    4.47    0.88
   3  -7  -4    4.71    0.92
  -3   7  -4    4.07    0.99
  -3   7   4    5.53    1.12
   3   7   4    5.19    0.72
   3  -7   4    4.78    0.78
  -3  -7  -4    5.97    1.32
  -3  -7  -4    5.44    1.09
  -3  -7  -4    6.48    0.85
   3   7  -4    5.44    1.02
  -3  -7   4    6.22    1.09
  -3  -7  -4    4.37    0.76
  -3  -7   4    5.61    1.08
  -3  -7   4    4.74    1.07
   3  -7  -4    3.71    0.90
  -3  -7  -4    7.64    1.44
   3  -7   4    5.53    0.68
   3   7  -4    4.11    1.10
   3   7   4    5.08    0.78
  -3   7   4    5.10    1.33
   3  -7  -4    6.50    1.02
   3  -7  -4    5.02    1.48
   3   8  -4  572.88   10.54
  -3   8  -4  546.86    9.60
   3  -8  -4  541.91   10.17
   3   8   4  568.51    8.98
  -3  -8  -4  555.32    9.19
   3  -8   4  543.60    9.42
  -3  -8   4  550.84   10.67
   3   8  -4  562.84   10.50
  -3   8  -4  561.02   10.28
  -3  -8  -4  556.62    9.19
  -3  -8   4  549.71   10.65
  -3  -8   4  559.33   11.16
   3  -8  -4  571.52   11.56
   3  -8  -4  561.31   10.84
   3  -8   4  556.78    8.73
   3   8   4  555.57   10.75
  -3   8  -4  552.71    9.62
   3   8   4  549.24    9.03
  -3   8   4  561.52   12.45
   3  -8  -4  549.25   10.23
   3  -8  -4  570.78   12.40
  -3   8  -4  556.76   10.22
  -3   8   4  546.87   10.79
   3   8   4  564.82    8.95
   3  -8   4  547.24    9.44
  -3  -8  -4  550.68   11.10
  -3  -8  -4  551.71   10.93
  -3  -8   4  566.85   11.49
  -3  -8  -4  568.68   11.14
   3  -8  -4  548.57   11.55
   3  -9   4   16.40    0.72
   3   9   4   15.06    1.62
  -3   9  -4   15.80    1.43
   3  -9  -4   15.84    1.56
  -3  -9  -4   19.45    1.50
   3   9   4   17.02    1.36
   3  -9   4   16.32    1.44
  -3  -9   4   16.49    1.65
  -3  -9  -4   17.14    1.78
   3   9  -4   14.83    1.59
  -3  -9  -4   18.15    1.95
  -3   9  -4   17.53    1.62
  -3  -9  -4   16.25    1.36
  -3  -9   4   18.72    1.92
   3  -9  -4   16.09    1.88
  -3  -9   4   14.75    1.59
   3  -9  -4   15.63    1.70
  -3   9  -4   16.78    1.51
   3   9   4   18.48    1.45
   3  -9  -4   18.07    1.71
  -3   9  -4   17.59    1.62
  -3   9   4   16.26    1.73
  -3   9   4   19.72    2.38
   3   9   4   16.42    1.33
   3  -9   4   16.46    1.46
   3  -9   4   16.12    0.79
  -3  -9   4   17.57    1.92
   3   9  -4   15.24    1.63
   3  -9  -4   18.62    1.99
   3 -10  -4  105.52    4.75
  -3 -10  -4  121.65    4.71
   3 -10   4  107.86    2.47
  -3  10  -4  115.47    4.01
  -3 -10  -4  118.53    3.85
   3 -10  -4  115.50    4.27
   3  10   4  106.80    3.59
  -3 -10   4  108.00    4.38
   3 -10   4  107.24    3.83
   3  10  -4  112.59    4.36
  -3 -10  -4  110.98    3.75
  -3 -10   4  100.59    4.23
  -3 -10   4  110.12    4.65
  -3  10  -4  116.16    3.88
   3  10   4  103.59    4.21
   3 -10  -4  111.07    4.53
  -3  10  -4  115.31    4.01
  -3  10   4  109.41    5.29
   3  10   4  111.33    3.81
   3 -10  -4  115.83    4.27
  -3  10   4  104.88    4.47
   3  10   4  109.10    3.61
  -3  10  -4  111.34    3.99
  -3 -10  -4  112.11    4.69
  -3  10  -4  112.92    3.99
   3 -10   4  110.69    2.77
   3 -10   4  109.49    3.87
  -3 -10   4  109.05    4.71
   3  10  -4  102.37    4.18
   3 -11  -4   24.21    2.31
  -3 -11  -4   22.99    2.23
  -3  11  -4   20.88    1.83
  -3 -11  -4   22.26    1.73
   3 -11  -4   22.69    1.97
   3  11   4   19.68    1.59
  -3 -11   4   19.75    1.96
   3 -11   4   21.31    1.79
   3  11  -4   21.45    2.00
  -3 -11  -4   23.57    1.78
  -3 -11   4   19.77    1.94
  -3 -11   4   21.60    2.16
  -3  11  -4   21.50    1.74
   3  11   4   18.93    1.82
  -3  11  -4   22.89    1.73
   3 -11  -4   25.51    2.29
  -3  11  -4   21.47    1.85
   3  11   4   21.37    1.81
   3 -11  -4   21.93    1.93
   3  11   4   22.07    1.69
  -3  11   4   20.62    2.07
  -3  11   4   21.68    2.58
  -3  11  -4   22.03    1.77
  -3 -11  -4   22.88    2.17
   3 -11   4   20.76    1.75
  -3 -11   4   19.73    2.11
   3  11  -4   23.19    2.05
   3 -12  -4  727.80   14.73
  -3  12  -4  727.93   12.94
  -3 -12  -4  717.05   12.44
   3 -12  -4  710.84   13.23
   3  12   4  740.01   12.43
  -3 -12   4  737.62   13.92
   3 -12   4  708.84   12.81
   3  12  -4  717.91   13.55
  -3 -12  -4  722.32   12.46
  -3 -12   4  721.28   13.77
  -3 -12   4  731.89   14.33
   3 -12  -4  741.34   12.21
   3  12   4  708.33   13.01
   3 -12  -4  730.35   14.20
  -3  12  -4  734.83   12.22
  -3  12  -4  748.67   12.17
  -3  12  -4  721.21   12.90
  -3  12   4  758.26   16.03
   3  12   4  720.79   13.19
   3 -12  -4  714.29   13.27
   3  12   4  737.26   12.41
  -3  12   4  734.82   14.26
  -3 -12  -4  734.12   14.35
  -3  12  -4  742.09   12.25
  -3 -12   4  735.17   14.59
   3 -12   4  714.04   12.83
   3  12  -4  727.08   13.58
  -3 -13   4    1.09    0.90
   3  13  -4    2.03    0.97
   3 -13   4    2.34    0.85
   3 -13  -4    0.80    0.61
  -3  13  -4    1.04    0.64
  -3  13  -4    1.37    0.76
   3  13   4    2.04    0.69
  -3 -13  -4    0.31    0.53
   3 -13  -4    2.71    0.99
  -3  13   4    2.26    1.06
  -3  13  -4    1.24    0.62
  -3 -13   4    1.04    0.84
   3  13  -4    0.34    0.70
   3 -13   4    1.46    0.72
  -3  13  -4    2.07    0.74
  -3 -13  -4    2.52    0.87
  -3 -13   4    2.15    0.89
  -3 -13   4    1.42    0.95
  -3  13  -4    1.11    0.83
  -3  13   4    2.53    1.50
   3  13   4    2.24    0.96
   3  13   4    1.02    0.54
   3 -13  -4    2.62    0.91
   3  13   4    1.16    0.74
   3  14  -4    8.74    1.41
  -3 -14   4    7.76    1.49
   3 -14   4    5.91    1.18
  -3  14  -4    6.41    1.04
  -3  14  -4    7.44    1.32
   3  14   4    4.61    1.00
  -3 -14  -4    8.33    1.27
   3 -14  -4    5.30    0.91
   3 -14  -4    6.55    1.29
  -3  14   4    8.33    1.54
  -3 -14   4    5.65    1.28
   3  14  -4    7.66    1.43
   3 -14   4    5.98    1.24
  -3  14  -4    6.36    1.07
  -3  14  -4    7.58    1.10
   3  14   4    5.42    1.04
  -3 -14  -4    4.11    0.93
  -3 -14   4    6.81    1.41
  -3 -14   4    6.63    1.39
  -3  14  -4    5.90    1.22
  -3  14   4    5.67    1.64
   3  14   4    6.19    1.33
   3  14   4    6.08    1.10
   3 -14  -4    6.12    1.22
   3  15  -4    3.35    0.97
  -3 -15   4    9.36    1.72
   3 -15   4    8.20    1.42
   3 -15  -4    4.76    0.85
  -3  15  -4    5.79    1.41
  -3  15  -4    4.84    0.89
   3  15   4   11.68    1.54
  -3 -15  -4    5.48    1.19
   3 -15  -4    2.99    0.93
   3  15  -4    5.05    1.25
  -3  15   4    6.08    1.46
   3 -15   4    7.24    1.29
  -3  15  -4    4.64    0.97
  -3 -15  -4    4.19    1.13
   3 -15  -4    5.14    0.86
  -3 -15   4    7.43    1.51
  -3  15  -4    5.06    1.23
  -3  15   4    6.77    1.78
   3  15   4    6.74    1.46
   3  15   4    7.67    1.28
   3 -15  -4    4.99    1.20
  -3  16  -4  426.64   10.44
  -3 -16  -4  412.34    9.97
   3  16   4  437.74   10.19
   3  16  -4  433.37   10.86
  -3 -16  -4  416.81   10.01
  -3 -16   4  440.60   11.44
   3 -16  -4  449.64    8.40
  -3  16  -4  422.59   10.40
  -3  16  -4  427.83    9.07
  -3  16   4  476.82   13.27
   3  16   4  427.49   11.49
   3  16   4  445.95   10.25
  -3  16   4  423.14   11.32
   3  16  -4  436.63   10.90
  -3 -16   4  429.37   11.46
   3  17  -4   15.80    2.09
  -3 -17   4   13.54    2.10
  -3  17  -4   12.10    1.81
  -3  17  -4   12.07    1.43
   3  17   4   11.28    1.61
   3  17  -4   13.31    1.95
  -3 -17   4   12.97    2.09
  -3  17  -4   16.11    2.05
  -3  17   4   10.40    2.10
   3  17   4   12.96    2.17
   3  17   4   12.05    1.73
  -3  18  -4   88.23    4.68
   3  18   4   87.93    4.49
  -3 -18   4   90.48    5.18
  -3  18  -4   83.98    4.60
  -3  18   4   91.70    5.84
   3  18   4   85.51    5.28
   3  18   4   86.40    4.47
  -3 -18   4   86.28    5.06
   3  19   4    3.93    1.22
  -3 -19   4    4.88    1.36
  -3  19   4    6.83    2.01
   3  19   4    4.77    1.54
   3  19   4    3.95    1.15
  -3 -20   4  126.77    6.53
   3  20   4  129.40    7.03
  -4   0  -4  841.12    9.88
   4   0   4  844.99   11.43
   4   0   4  840.31   11.48
   4   0  -4  901.02   14.12
   4   0   4  851.21   11.51
   4   0  -4  873.51   14.77
   4   0  -4  890.05   14.08
  -4   0   4  829.78   14.52
   4   0   4  835.00   11.40
  -4   0   4  842.97   15.23
   4   0   4  819.02   14.28
  -4   0   4  840.13   12.31
  -4   0  -4  861.72   10.68
   4   0  -4  886.60   15.53
  -4   0  -4  872.19   14.56
  -4   0  -4  824.62    9.89
   4   0  -4  908.78   15.22
  -4   0  -4  883.65   14.65
  -4   0   4  836.96   14.84
   4   1  -4    8.22    1.29
   4  -1  -4    9.68    1.47
  -4  -1   4    9.75    1.44
  -4   1   4   10.97    1.51
   4  -1   4    9.67    0.83
  -4   1  -4   10.61    1.49
   4   1   4    9.70    0.80
   4  -1   4   11.64    1.48
  -4  -1  -4   12.58    1.62
   4  -1   4    9.76    0.86
   4   1   4   11.61    1.50
  -4   1  -4    9.65    1.40
  -4  -1  -4   10.72    1.51
   4   1  -4    9.58    1.23
   4  -1   4   10.33    0.91
   4   1   4    9.88    0.83
   4  -1  -4    9.40    1.30
  -4  -1  -4    9.91    1.31
   4   1  -4    8.05    1.15
   4  -1  -4   10.19    1.41
  -4  -1   4    9.23    1.38
  -4   1   4   11.11    1.46
  -4  -1   4   13.11    1.75
   4  -1   4   11.15    0.87
  -4   1  -4    9.78    0.78
  -4  -1   4   11.60    1.04
  -4   1   4   11.65    1.17
   4   1  -4    8.75    1.36
  -4  -1  -4    8.85    0.56
   4  -1  -4    8.49    1.34
  -4   1   4    9.32    1.49
   4   1  -4   10.64    1.56
   4  -1  -4   11.92    1.66
  -4  -1  -4    9.40    0.71
  -4   2   4  133.86    4.97
  -4  -2  -4  129.18    4.60
   4   2   4  133.60    3.13
   4  -2   4  129.55    3.23
   4   2  -4  119.78    4.29
   4  -2  -4  124.13    4.41
   4  -2   4  132.58    3.40
   4   2   4  131.62    3.10
   4   2  -4  125.07    4.37
   4   2  -4  120.75    4.62
   4  -2  -4  121.54    4.74
  -4  -2   4  131.95    4.86
   4  -2  -4  123.01    4.38
   4  -2   4  126.25    3.34
  -4   2   4  122.30    4.71
   4  -2   4  123.84    4.56
  -4   2  -4  123.88    3.17
  -4  -2   4  124.10    3.25
  -4   2   4  124.60    5.06
   4   2  -4  124.80    4.99
   4  -2   4  127.97    3.22
  -4   2   4  125.55    3.91
   4  -2  -4  123.15    5.05
   4   2   4  123.84    4.67
  -4   2  -4  124.89    4.59
  -4  -2  -4  124.56    4.71
   4   2  -4  122.91    4.78
  -4   2  -4  117.79    4.48
   4  -2  -4  122.70    4.88
  -4  -2  -4  127.55    4.79
  -4  -2   4  136.01    4.99
  -4   3   4   26.12    2.28
   4   3   4   24.76    1.29
  -4  -3  -4   26.21    2.09
   4  -3   4   24.53    1.39
   4   3  -4   29.08    2.06
   4   3   4   24.39    1.28
   4  -3  -4   29.21    2.17
   4   3  -4   29.60    2.08
   4  -3   4   25.92    1.51
  -4  -3  -4   27.02    1.02
  -4  -3   4   23.84    1.91
   4   3  -4   25.97    2.20
   4  -3  -4   28.80    2.31
  -4  -3   4   22.08    1.96
   4  -3  -4   26.55    2.09
  -4   3   4   23.96    2.14
   4  -3   4   23.96    1.45
  -4  -3   4   25.81    1.96
   4  -3   4   26.46    2.05
  -4  -3   4   24.12    1.27
  -4   3   4   27.70    2.43
   4   3  -4   26.27    2.30
  -4   3   4   24.75    1.80
   4  -3   4   23.78    1.37
   4  -3  -4   29.14    2.51
   4   3   4   26.07    2.16
  -4   3  -4   29.01    2.24
   4   3  -4   26.73    2.21
  -4   3  -4   25.20    2.13
  -4  -3  -4   29.30    2.37
   4  -3  -4   30.78    2.46
  -4  -3  -4   27.31    2.33
  -4  -3   4   22.89    2.10
   4   4   4  647.73    9.30
  -4   4   4  642.78   12.45
  -4  -4  -4  620.58   11.87
   4  -4  -4  637.36   11.38
   4   4  -4  627.27   11.47
   4  -4   4  633.63    9.71
   4   4   4  645.54    9.30
   4   4  -4  632.44   11.50
  -4  -4   4  642.51   11.69
   4  -4  -4  634.88   11.73
   4   4  -4  624.84   12.08
   4  -4   4  627.02    7.85
  -4  -4  -4  622.01    8.57
  -4  -4   4  620.77   12.12
   4  -4  -4  623.37   12.37
   4   4   4  648.27   12.19
   4  -4   4  637.83   11.70
  -4   4   4  634.49   12.16
  -4  -4   4  635.70   11.64
   4  -4  -4  637.57   11.74
   4  -4  -4  623.54   11.27
  -4  -4   4  644.21    8.74
  -4   4   4  639.86   13.02
   4   4  -4  638.63   12.60
  -4   4   4  637.44   11.08
   4  -4  -4  642.00   13.03
   4   4   4  632.79   12.06
   4  -4   4  631.86    9.69
  -4   4  -4  622.40   11.69
   4   4  -4  635.91   12.40
  -4   4  -4  607.33   11.61
   4  -4  -4  648.11   12.73
  -4  -4   4  634.11   12.48
  -4  -4  -4  624.25   12.17
   4  -5   4   15.68    1.63
  -4  -5   4   15.30    1.83
   4  -5  -4   13.22    1.80
  -4  -5  -4   11.00    1.45
  -4   5   4   12.30    1.65
   4  -5  -4   11.04    1.35
   4  -5   4   12.59    1.13
   4   5  -4   11.19    1.41
   4   5   4   12.39    1.00
  -4   5  -4   13.06    1.57
  -4  -5   4   13.28    1.53
  -4  -5  -4   12.90    1.82
  -4  -5  -4   11.21    1.07
   4   5   4   14.12    1.70
   4   5  -4   11.64    1.47
  -4  -5  -4   12.47    0.94
   4  -5   4   12.15    0.79
   4  -5  -4   11.72    1.49
   4   5   4   13.27    1.58
   4   5  -4   11.51    1.54
  -4  -5   4   11.02    1.41
  -4  -5   4   12.00    1.58
   4  -5  -4   11.14    1.61
  -4  -5  -4    9.78    1.02
   4  -5  -4   12.18    1.48
  -4   5   4   12.40    1.59
  -4  -5   4   13.49    0.80
  -4   5   4   13.89    1.51
   4  -5  -4   12.82    1.45
   4  -5   4   13.94    1.18
  -4   5  -4   13.91    1.61
   4   5  -4   11.66    1.57
  -4   5   4   14.02    2.00
   4  -5  -4   13.78    1.94
   4   5   4   12.82    1.03
  -4  -6  -4  307.19    8.07
  -4  -6   4  300.82    4.51
   4   6  -4  317.63    7.57
   4  -6  -4  304.78    7.32
   4  -6   4  307.81    6.30
   4   6   4  311.87    5.94
  -4  -6   4  300.83    7.53
   4   6  -4  303.04    7.44
  -4  -6  -4  308.03    6.28
   4   6  -4  303.27    7.92
  -4  -6  -4  311.90    5.69
  -4  -6   4  302.33    7.97
   4  -6   4  298.76    7.29
   4  -6  -4  313.14    8.28
   4  -6   4  315.61    5.41
  -4  -6   4  303.11    7.54
  -4  -6  -4  304.04    6.29
   4   6   4  298.56    7.79
  -4   6   4  317.22    8.07
  -4  -6   4  295.66    4.44
   4  -6  -4  297.22    7.22
  -4   6   4  310.68    8.74
  -4   6   4  307.82    7.41
   4   6   4  300.43    7.75
   4  -6   4  302.28    6.26
  -4   6  -4  301.67    7.40
  -4   6  -4  300.21    7.38
  -4  -6   4  306.89    8.23
   4   6   4  308.47    5.93
   4  -6  -4  308.48    8.26
  -4  -6  -4  308.02    7.86
  -4  -7   4   11.54    1.63
   4  -7  -4    9.62    1.54
   4   7  -4   12.34    1.52
  -4  -7   4    0.07    0.06
   4  -7  -4   10.87    1.31
   4  -7   4   11.38    1.15
  -4   7   4   11.44    1.44
  -4  -7  -4   12.19    1.21
   4   7   4    9.44    0.96
  -4   7  -4   11.96    1.51
  -4  -7  -4   11.03    1.02
   4   7   4   10.20    1.47
  -4  -7  -4    9.53    1.40
  -4  -7  -4   13.04    1.80
   4   7  -4    9.84    1.36
  -4  -7   4   13.78    1.57
   4  -7   4   10.78    0.94
  -4  -7  -4   11.86    1.20
  -4  -7   4   10.92    1.43
  -4  -7   4   12.67    1.63
   4  -7  -4   12.07    1.63
  -4   7  -4   13.02    1.60
   4   7   4    9.96    0.67
   4  -7  -4   12.70    1.46
   4  -7   4   11.66    1.17
  -4   7   4   11.37    1.97
  -4  -7   4    8.91    0.45
   4   7   4    9.81    0.98
  -4  -8   4  370.12    9.18
   4   8  -4  382.16    8.74
  -4  -8  -4  392.75    9.35
   4  -8  -4  367.69    8.44
   4  -8   4  362.77    7.56
   4   8   4  375.78    7.18
  -4  -8  -4  371.98    7.51
  -4  -8   4  370.32    8.83
   4   8  -4  372.20    8.66
  -4  -8  -4  371.45    7.08
  -4  -8  -4  379.83    7.59
  -4  -8   4  366.46    8.80
   4  -8   4  368.82    6.83
   4   8   4  369.66    5.88
   4  -8  -4  374.85    8.51
  -4   8   4  365.89   10.03
   4   8   4  362.94    8.79
  -4   8   4  366.50    8.72
   4  -8   4  362.93    7.55
  -4   8  -4  360.04    8.21
   4   8   4  378.31    7.19
  -4  -8   4  365.14    9.41
  -4  -8  -4  373.69    9.14
  -4   8  -4  368.28    8.33
   4  -8  -4  365.66    9.43
   4   9   4    1.94    0.64
  -4  -9   4    1.40    0.89
   4  -9  -4    3.42    1.08
   4   9  -4    2.36    0.91
   4  -9  -4    3.42    1.00
  -4   9   4    3.66    1.08
   4  -9   4    3.37    0.78
   4   9   4    1.41    0.55
   4   9   4    4.45    1.15
  -4   9  -4    2.46    1.01
  -4  -9  -4    1.94    0.81
   4   9  -4    2.57    0.86
  -4  -9  -4    1.58    0.69
  -4  -9   4    3.06    0.98
  -4  -9  -4    3.35    0.85
  -4  -9  -4    2.84    0.74
  -4  -9   4    2.01    0.81
  -4  -9   4    3.42    1.16
   4  -9   4    2.26    0.60
  -4   9  -4    6.59    1.26
   4   9   4    2.95    0.58
  -4   9   4    2.59    1.32
   4  -9  -4    3.81    1.02
   4  -9   4    3.41    0.82
   4  10  -4  731.58   11.42
   4 -10  -4  714.38   10.98
   4 -10   4  721.21   10.04
   4  10   4  742.10    9.43
  -4 -10  -4  698.14    9.60
  -4 -10   4  732.93   11.73
   4  10  -4  740.26   11.49
  -4 -10  -4  720.14    9.31
  -4 -10   4  730.98   12.18
  -4 -10   4  716.77   11.60
   4 -10   4  731.76    8.96
  -4 -10  -4  702.65    9.64
   4  10   4  735.73   11.39
   4  10   4  762.15    8.08
  -4  10   4  743.86   13.80
   4 -10  -4  700.20   10.89
  -4  10   4  728.04   11.78
   4 -10   4  723.29   10.04
   4  10   4  730.02    9.34
  -4 -10  -4  708.59   11.92
  -4 -10   4  730.22   12.60
   4 -10   4  681.97    4.16
  -4  10  -4  717.11   10.23
   4 -10  -4  719.99   12.55
  -4 -11   4   16.78    2.01
  -4  11  -4   18.44    1.78
   4  11  -4   13.65    1.68
   4 -11  -4   16.51    1.79
   4  11   4   14.94    1.48
   4 -11   4   15.20    1.61
   4  11   4   16.90    1.85
  -4  11   4   16.13    1.93
  -4 -11  -4   14.19    1.50
   4  11  -4   13.29    1.67
  -4 -11   4   11.33    1.58
  -4 -11  -4   15.81    1.49
  -4  11  -4   16.43    1.66
  -4 -11  -4   12.46    1.40
  -4 -11   4   12.98    1.70
   4 -11   4   16.24    1.47
  -4 -11   4   14.22    1.86
  -4  11  -4   16.25    1.66
   4  11   4   15.93    1.36
  -4  11   4   15.46    2.26
   4  11   4   13.34    1.42
   4 -11   4   13.24    1.55
   4 -11  -4   14.48    1.70
   4 -11   4   15.16    0.85
  -4  11  -4   17.63    1.73
   4 -12   4    5.47    1.08
  -4 -12   4    5.45    1.34
   4 -12   4    5.08    0.60
   4  12  -4    5.59    1.19
  -4  12  -4    7.04    1.21
  -4  12  -4    4.80    1.05
   4  12   4    5.60    1.17
   4 -12  -4    6.38    1.21
  -4  12   4    5.79    1.30
   4  12   4    5.34    1.01
   4 -12   4    5.51    1.02
  -4 -12  -4    4.90    1.00
   4  12  -4    6.35    1.25
  -4 -12   4    4.82    1.20
  -4  12  -4    7.50    1.22
  -4 -12  -4    5.86    1.04
  -4 -12   4    5.91    1.22
  -4 -12   4    7.46    1.44
   4 -12   4    5.88    0.98
  -4  12  -4    4.56    0.98
  -4  12   4    3.56    1.34
   4  12   4    7.17    1.12
   4 -12  -4    6.11    1.30
   4  12   4    5.64    1.01
   4 -13   4   11.22    0.98
   4 -13   4   10.95    1.50
  -4 -13   4   14.77    2.05
   4  13  -4   10.50    1.62
  -4  13  -4   13.37    1.59
  -4  13  -4   10.40    1.46
   4  13   4   12.38    1.62
   4 -13  -4   12.88    1.71
  -4  13   4   13.35    1.96
   4  13   4   13.19    1.53
   4 -13   4   13.56    1.64
  -4 -13  -4   10.59    1.47
   4  13  -4   11.13    1.65
  -4 -13   4   11.04    1.68
  -4 -13  -4    9.50    1.34
  -4 -13   4   11.46    1.73
  -4 -13   4   15.50    2.12
   4 -13   4   12.27    1.45
  -4  13  -4   11.30    1.56
   4  13   4   13.71    1.54
  -4  13   4   13.86    2.17
   4  13   4   12.28    1.43
   4 -13  -4   12.04    1.70
  -4  14  -4  556.03   11.88
  -4 -14  -4  552.06   11.42
   4  14   4  545.86   11.26
   4 -14   4  549.50   11.77
   4  14  -4  563.36   12.56
  -4 -14  -4  550.59   11.41
  -4 -14   4  551.85   13.00
   4 -14  -4  588.06   10.41
   4 -14   4  525.44   10.86
   4  14   4  526.61   11.41
  -4  14  -4  566.89   11.22
  -4  14  -4  551.19   11.82
  -4  14   4  585.81   14.55
   4  14   4  576.88   11.53
  -4  14   4  544.79   12.86
   4  14   4  542.04   11.24
   4 -14   4  541.09   11.70
  -4 -14   4  549.80   13.20
   4  14  -4  570.49   12.61
  -4 -15   4    7.56    1.57
   4  15   4    7.73    1.38
   4  15  -4    9.51    1.83
   4 -15  -4    6.84    1.02
  -4  15  -4    6.45    1.32
  -4  15  -4    6.44    1.17
   4  15   4    8.66    1.39
  -4  15   4    7.19    1.53
  -4 -15  -4    6.23    1.25
   4  15  -4    7.27    1.43
  -4 -15  -4    5.76    1.21
  -4 -15   4    8.47    1.70
  -4  15  -4    5.94    1.31
  -4  15   4    5.85    1.78
   4  15   4    8.00    1.42
   4  15   4    7.69    1.31
  -4  16  -4   28.45    2.63
  -4 -16  -4   28.80    2.52
   4  16   4   31.92    2.58
   4  16  -4   36.55    3.10
  -4 -16  -4   30.47    2.60
  -4 -16   4   37.71    3.36
   4  16   4   33.12    2.56
  -4  16  -4   32.37    2.78
  -4  16  -4   32.25    2.45
  -4  16   4   39.34    3.79
   4  16   4   36.89    2.96
   4  16   4   34.85    2.70
  -4 -16   4   32.91    3.21
   4  16  -4   30.82    2.85
  -4  17  -4    1.98    0.89
  -4  17  -4    2.65    0.87
   4  17   4    2.47    1.02
   4  17   4    4.10    1.11
  -4 -17   4    5.19    1.48
  -4  17  -4    2.16    0.87
  -4  17   4    7.13    1.80
   4  17   4    6.85    1.53
   4  17   4    3.87    1.04
   4  18   4  227.86    7.66
  -4 -18   4  248.06    9.06
  -4  18   4  252.92    9.91
   4  18   4  228.63    7.66
  -4 -19   4    0.53    1.07
   5   0  -4    0.03    0.88
  -5   0  -4    0.78    0.23
  -5   0   4    0.61    0.84
   5   0   4    0.39    0.76
   5   0   4   -0.02    0.45
  -5   0   4   -0.02    0.50
   5   0   4    0.10    0.53
   5   0  -4    0.28    0.72
   5   0   4   -0.27    0.59
   5   0   4   -0.54    0.90
   5   0  -4    0.25    0.77
   5   0  -4    0.19    0.74
  -5   0   4   -0.89    0.93
   5   0   4   -0.40    0.51
  -5   0   4    1.61    1.05
   5   1  -4    9.75    1.67
   5  -1  -4   13.43    1.79
  -5  -1   4   11.79    1.67
   5  -1   4   11.23    1.53
  -5   1   4   12.76    1.69
   5   1   4   11.10    1.63
   5  -1   4   13.31    1.18
   5   1   4   11.50    1.09
   5  -1   4   10.77    1.10
   5   1  -4    8.51    1.39
  -5   1  -4   11.86    1.86
   5   1   4   11.85    1.12
  -5  -1  -4   12.03    1.82
   5  -1  -4    9.85    1.45
   5  -1   4   10.83    1.10
   5  -1   4   13.10    1.69
   5   1  -4    9.19    1.42
  -5  -1  -4    9.17    0.59
   5   1   4   13.70    1.83
   5  -1  -4    9.99    1.40
   5   1  -4    9.48    1.49
   5  -1  -4   10.10    1.51
  -5  -1   4   12.05    1.74
  -5  -1   4   12.07    1.23
  -5   1   4   14.31    1.88
  -5   1   4   12.36    1.32
   5  -1   4   13.47    1.20
  -5  -1   4   11.37    1.73
  -5   1  -4    8.11    0.56
  -5   1  -4    8.83    0.56
  -5   1   4   13.64    1.87
  -5  -1  -4    8.85    0.73
  -5   2   4  764.30   14.67
  -5   2  -4  774.77   14.29
  -5  -2  -4  793.77   14.68
   5  -2   4  754.00   11.79
   5   2   4  780.34   11.64
   5   2  -4  787.67   13.98
   5  -2  -4  790.43   14.14
   5  -2   4  776.04   12.00
   5   2   4  788.48   11.67
   5   2  -4  795.42   14.00
   5   2  -4  750.70   14.47
   5  -2  -4  758.36   14.59
   5  -2  -4  796.42   14.17
   5  -2   4  803.75   12.11
  -5  -2   4  777.51   14.57
  -5   2   4  801.76   14.77
  -5  -2  -4  772.57    9.93
   5  -2   4  769.12   14.19
   5   2   4  762.42   14.36
  -5  -2   4  777.11   11.92
  -5   2  -4  764.06   10.22
  -5   2   4  756.86   12.75
   5  -2   4  766.13   11.83
  -5   2   4  795.00   15.13
   5  -2   4  766.50   14.15
   5   2   4  756.88   14.28
  -5  -2  -4  771.79   10.83
   5   2  -4  777.92   14.76
   5  -2  -4  783.12   14.89
  -5  -2   4  755.29   14.67
   5   3  -4    6.20    1.42
   5  -3  -4    9.15    1.56
  -5  -3   4    8.45    1.57
  -5   3   4    6.84    1.34
   5   3   4    8.89    1.51
  -5  -3   4    9.02    0.99
  -5   3   4    9.19    1.30
   5  -3   4    7.86    1.00
   5   3   4    9.26    1.00
   5   3  -4    7.17    1.24
   5  -3   4    7.64    1.35
  -5   3  -4    8.81    1.63
   5   3   4    7.49    0.89
   5  -3   4    7.95    0.57
   5  -3  -4    8.59    1.48
   5  -3   4    8.34    1.04
   5   3  -4    8.32    1.38
  -5  -3  -4    7.59    0.71
  -5  -3  -4    7.40    1.32
   5   3  -4    5.73    1.26
   5  -3  -4    9.21    1.48
   5  -3  -4    7.28    1.37
   5  -3   4    7.75    1.03
  -5  -3   4    8.63    1.52
   5   3   4   12.07    1.74
  -5   3   4    7.44    1.36
   5  -3   4    7.36    0.94
  -5   3   4    7.16    1.51
  -5   4   4  144.58    5.66
  -5   4  -4  158.80    5.57
  -5  -4  -4  154.61    5.59
   5   4   4  152.78    4.10
   5  -4  -4  163.04    5.43
   5  -4   4  144.34    4.21
   5   4  -4  160.29    5.50
   5   4   4  155.93    4.15
   5  -4  -4  159.35    5.57
   5   4  -4  163.11    5.52
   5  -4   4  150.32    4.48
  -5  -4   4  143.05    5.26
  -5  -4  -4  162.05    3.64
  -5  -4   4  138.42    5.44
   5  -4  -4  166.54    5.71
  -5   4   4  147.36    5.63
   5  -4   4  149.89    4.47
  -5  -4   4  142.86    5.26
   5   4   4  152.36    5.66
  -5  -4   4  153.87    3.95
   5  -4  -4  164.16    5.44
  -5   4   4  149.98    5.94
  -5   4   4  145.23    4.93
   5  -4   4  156.03    5.42
   5  -4   4  151.18    4.31
   5  -4   4  152.42    3.17
   5   4   4  144.07    5.49
   5   4  -4  161.24    5.93
   5  -4  -4  169.10    6.08
  -5  -4   4  152.45    5.82
  -5   5   4   36.61    2.85
  -5  -5  -4   32.96    2.60
   5   5   4   36.00    1.95
  -5   5  -4   37.12    2.70
   5  -5  -4   31.68    2.38
   5   5  -4   30.90    2.44
   5  -5   4   35.21    2.03
   5   5   4   35.65    1.94
   5   5  -4   30.64    2.41
  -5  -5   4   36.54    2.65
   5  -5  -4   36.11    2.64
   5   5   4   37.01    2.74
  -5  -5  -4   33.42    1.68
   5  -5   4   34.59    1.53
  -5  -5   4   33.91    2.68
  -5   5   4   35.20    2.74
  -5  -5   4   32.97    2.53
   5  -5  -4   31.56    2.50
  -5  -5   4   38.18    1.79
   5  -5  -4   30.06    2.35
   5  -5   4   36.53    2.56
  -5   5   4   36.92    3.06
  -5   5   4   36.31    2.49
   5  -5   4   35.23    2.03
   5   5   4   33.71    2.65
   5  -5  -4   31.34    2.63
  -5  -5   4   41.89    3.05
   5   6   4  424.30    7.95
  -5  -6  -4  402.44    9.81
  -5   6   4  426.19   10.39
  -5   6  -4  419.07    9.54
   5   6  -4  415.68    9.62
   5  -6  -4  402.18    9.34
   5  -6   4  408.30    8.24
   5   6   4  415.88    7.91
   5   6  -4  404.81    9.51
  -5  -6   4  393.01    9.56
  -5  -6  -4  405.79    8.25
   5  -6  -4  410.01    9.73
  -5  -6  -4  410.66    7.36
  -5  -6   4  420.05   10.16
   5  -6   4  412.00    6.99
  -5  -6   4  419.15    9.80
  -5   6   4  407.63   10.05
  -5  -6  -4  410.57    8.29
  -5  -6   4  428.77    7.00
   5  -6  -4  418.87    9.82
   5   6   4  406.70    9.92
   5  -6   4  416.91    9.38
   5  -6  -4  411.20    9.42
  -5   6   4  435.05   10.95
  -5   6   4  411.13    9.32
   5  -6   4  429.10    8.38
   5   6   4  407.76    9.90
  -5  -6   4  420.10   10.39
   5  -6  -4  419.22   10.39
  -5  -7   4    3.28    1.11
   5  -7  -4    2.10    0.88
   5  -7   4    2.40    0.90
   5   7   4    2.95    1.13
  -5  -7   4    1.45    0.41
   5   7   4    1.37    0.61
   5  -7  -4    3.17    1.05
  -5   7   4    0.87    0.72
   5   7  -4    1.46    0.86
   5  -7   4    2.55    0.75
   5   7   4    2.40    0.71
  -5   7  -4    4.79    1.33
  -5  -7  -4    2.28    1.06
   5   7  -4    1.09    0.81
  -5  -7   4    1.70    0.90
  -5  -7  -4    0.83    0.55
  -5  -7   4    1.41    0.35
  -5  -7  -4    1.32    0.57
  -5  -7   4    2.36    0.97
  -5  -7   4    1.04    0.87
  -5  -7  -4    1.41    0.67
   5  -7   4    1.51    0.52
   5   7   4    2.67    1.14
  -5   7   4    2.19    1.13
   5  -7  -4    1.44    0.94
  -5   7   4    2.45    1.33
   5  -7   4    1.92    0.63
   5   8  -4  553.41   11.82
   5  -8  -4  544.69   11.49
   5  -8   4  553.40   10.50
   5   8   4  559.40   10.04
  -5  -8   4  547.19   11.83
   5   8  -4  561.14   11.89
  -5  -8  -4  551.95   10.40
  -5  -8  -4  563.67    9.68
  -5  -8   4  553.18   12.23
  -5  -8   4  576.19   12.07
   5  -8   4  547.58    9.39
  -5  -8  -4  550.13   10.38
   5  -8   4  549.82   11.09
  -5  -8   4  581.25    8.27
   5   8   4  548.74   12.00
   5  -8  -4  563.75   11.63
  -5   8   4  576.01   13.32
  -5   8   4  553.16   11.71
   5  -8   4  548.58   10.47
   5   8   4  545.98   11.93
  -5  -8   4  561.11   12.60
   5   8   4  554.42    9.99
   5  -8  -4  540.12   12.40
  -5  -8  -4  561.53   12.21
  -5  -8   4  556.25    7.90
   5   9  -4   19.01    2.06
  -5  -9   4   14.61    1.96
   5   9   4   15.33    1.82
  -5  -9  -4   18.21    1.54
   5  -9   4   16.25    1.61
   5  -9  -4   16.57    1.88
  -5   9   4   16.27    1.87
   5   9   4   17.25    1.58
  -5  -9  -4   16.92    1.61
   5   9  -4   20.15    2.10
  -5  -9   4   15.10    1.80
   5  -9   4   14.33    1.64
  -5  -9  -4   18.57    1.71
  -5  -9   4   16.24    0.98
   5  -9   4   15.00    1.35
   5   9   4   16.57    1.96
  -5  -9   4   14.42    1.78
  -5  -9   4   16.33    2.01
   5  -9   4   15.90    1.63
   5  -9  -4   16.57    1.86
  -5   9   4   15.27    2.23
  -5  -9   4   14.69    0.86
   5   9   4   15.63    1.48
   5  10  -4   61.80    3.67
   5 -10  -4   58.57    3.52
   5 -10   4   58.10    3.14
   5  10   4   62.83    3.04
  -5 -10  -4   61.48    3.17
  -5 -10   4   59.57    3.65
   5  10  -4   64.45    3.75
  -5 -10  -4   66.50    3.05
  -5 -10   4   55.97    3.66
  -5 -10  -4   60.62    3.15
  -5 -10   4   63.03    3.76
   5 -10   4   60.20    2.80
   5  10   4   61.07    3.62
   5  10   4   59.62    1.73
  -5  10   4   63.35    4.28
   5 -10  -4   62.58    3.64
  -5  10   4   58.51    3.60
   5 -10   4   57.89    3.15
   5  10   4   59.61    3.64
  -5 -10   4   57.90    1.67
   5  10   4   60.30    2.99
  -5 -10   4   64.92    4.05
   5  11   4    5.91    1.06
  -5 -11   4    7.71    1.56
   5  11   4    4.62    1.13
   5  11  -4    7.67    1.44
   5 -11  -4    8.92    1.55
  -5  11   4    9.90    1.65
   5 -11   4    5.52    1.17
   5  11   4    6.43    1.12
   5  11  -4    8.40    1.47
  -5 -11  -4    6.19    1.19
  -5 -11   4    5.84    1.36
   5  11   4    7.29    1.52
  -5 -11  -4    7.44    1.25
  -5 -11  -4    6.77    1.08
  -5 -11   4    4.98    1.27
  -5 -11   4    7.97    1.71
   5 -11   4    7.05    1.04
  -5 -11   4    6.41    0.52
   5  11   4    6.38    0.70
  -5  11   4    5.99    1.72
   5 -11  -4    7.52    1.41
   5 -11   4    6.27    0.42
   5 -11   4    5.74    1.12
   5 -12  -4  569.33   12.53
   5 -12   4  569.64   11.79
   5  12   4  565.18   11.18
  -5 -12  -4  557.96   11.41
   5  12  -4  559.44   12.77
  -5 -12  -4  558.44   11.04
  -5 -12   4  568.01   13.16
  -5 -12  -4  544.09   11.32
  -5  12  -4  557.05   11.80
   5 -12   4  547.22   10.73
   5  12   4  553.02   12.31
   5  12   4  580.40    9.09
  -5  12   4  591.96   14.41
   5 -12  -4  571.18   12.55
   5  12   4  560.85   12.38
  -5  12   4  574.67   13.02
   5 -12   4  556.22   11.69
   5  12   4  572.10   11.24
  -5 -12   4  569.38   13.50
   5  12  -4  568.27   12.80
  -5  13  -4   30.73    2.54
   5 -13   4   29.90    2.51
   5  13   4   27.37    2.25
  -5 -13  -4   29.05    2.37
   5  13  -4   27.43    2.68
  -5 -13  -4   29.49    2.33
  -5 -13  -4   29.52    2.40
  -5 -13   4   28.74    2.83
   5 -13   4   30.01    2.25
  -5  13   4   31.26    3.25
   5  13   4   31.07    1.88
   5  13   4   28.40    2.57
  -5  13   4   32.71    2.94
   5 -13   4   31.15    2.56
   5  13   4   30.75    2.38
  -5 -13   4   32.75    3.09
   5  13  -4   32.23    2.91
   5  14   4    1.26    0.73
  -5 -14   4    0.29    1.05
   5  14  -4    1.75    0.97
  -5  14  -4    1.93    0.90
  -5  14   4    3.23    1.18
   5  14   4    0.43    0.78
   5  14   4    1.73    0.78
   5  14  -4    2.28    1.13
  -5 -14  -4   -0.95    0.82
  -5 -14  -4   -0.16    0.65
  -5 -14  -4    0.22    0.66
  -5 -14   4   -0.51    1.04
  -5  14   4    2.30    1.08
  -5 -15   4   14.73    2.18
  -5  15  -4   15.94    1.93
   5  15   4   15.94    2.07
   5  15   4   15.40    1.87
  -5 -15  -4   14.24    1.83
  -5 -15  -4   15.62    1.88
  -5 -15  -4   14.23    1.82
  -5 -15   4   13.00    2.19
  -5  15   4   16.04    2.45
   5  15   4   12.68    1.78
  -5 -16   4  347.49   10.72
   5  16   4  332.20    9.18
  -5 -16  -4  328.52    9.07
   5  16   4  327.53    9.19
  -5  16  -4  326.85    9.00
  -5  16   4  341.56   11.44
   5  16   4  333.37    9.16
   5  17   4    1.76    0.94
  -5  17  -4    2.68    1.05
   5  17   4    2.06    1.15
  -5 -17  -4    0.99    0.82
  -5 -17   4    0.82    1.02
  -5  17   4    1.66    1.45
   5  17   4    2.67    1.29
  -5 -18  -4   90.05    4.85
  -5 -19  -4    2.85    1.28
  -5 -20  -4   87.47    5.08
   6   0   4  802.27   13.10
   6   0   4  813.04   13.05
   6   0  -4  818.66   15.26
   6   0   4  790.70   12.95
   6   0  -4  813.63   15.24
  -6   0   4  805.86   15.72
   6   0   4  785.01   15.42
  -6   0   4  788.07   13.54
   6   0   4  805.66   13.10
  -6   0   4  829.27   15.92
   6   0  -4  811.93   15.89
   6   0   4  803.36   15.48
  -6   0  -4  781.88   10.56
  -6   0   4  809.00   15.83
   6   1  -4    4.40    1.19
   6  -1  -4    4.61    1.27
  -6  -1  -4    5.41    0.70
  -6  -1   4    9.71    1.73
  -6   1   4    8.04    1.51
   6  -1   4    8.86    1.59
   6   1   4   11.13    1.71
  -6  -1   4    9.94    1.34
  -6   1   4    9.41    1.32
   6  -1   4    7.16    1.03
   6   1   4    8.64    1.10
   6   1  -4    6.13    1.18
   6  -1   4    8.06    1.07
   6  -1  -4    6.45    1.34
   6   1   4    7.51    1.04
   6   1  -4    5.20    1.22
   6  -1   4    7.66    1.06
   6  -1  -4    5.81    1.41
  -6  -1   4   10.42    1.71
  -6   1   4    7.51    1.49
  -6  -1  -4    5.42    0.64
  -6  -1   4    9.15    1.67
   6  -1   4   11.42    1.80
   6  -1   4    9.30    1.14
   6   1   4    8.68    1.59
  -6   1   4    9.67    1.66
  -6   2   4   23.76    2.36
   6  -2   4   23.45    1.80
   6   2   4   23.65    1.73
   6   2  -4   20.22    2.10
   6  -2   4   24.96    1.86
   6  -2  -4   22.25    2.22
   6   2   4   22.59    1.66
   6  -2   4   22.69    1.19
   6   2  -4   19.36    2.06
   6  -2   4   24.54    1.83
   6  -2  -4   25.11    2.36
  -6  -2   4   23.63    2.37
  -6  -2  -4   22.05    1.31
  -6  -2   4   25.59    1.92
   6  -2   4   21.32    2.25
   6   2   4   22.46    2.31
   6  -2   4   18.97    2.11
  -6   2   4   24.30    2.06
  -6   2   4   19.30    2.17
   6  -2   4   23.56    1.81
  -6   2   4   25.18    2.56
  -6   2  -4   21.35    0.84
  -6   2  -4   21.54    0.86
   6   2  -4   24.77    2.48
  -6  -2  -4   24.49    1.48
   6  -2  -4   24.45    2.47
   6   2   4   23.17    2.30
  -6  -2   4   22.57    2.39
  -6   3   4   48.30    3.38
  -6  -3  -4   37.13    2.89
   6   3   4   47.87    2.46
   6  -3   4   45.92    2.53
   6   3  -4   38.80    2.83
   6  -3  -4   37.35    2.87
   6  -3   4   45.59    2.58
   6   3   4   42.30    2.33
   6   3  -4   42.47    2.99
   6  -3   4   44.79    1.77
   6  -3  -4   41.30    3.03
  -6  -3  -4   41.28    1.90
   6  -3   4   45.44    2.54
  -6   3   4   46.62    3.29
  -6  -3   4   45.34    2.46
   6  -3   4   44.68    3.14
   6   3   4   45.72    3.32
  -6   3   4   44.24    2.77
  -6   3   4   41.02    3.24
   6  -3   4   43.51    2.46
  -6   3  -4   40.26    1.58
   6  -3   4   48.39    3.25
   6   3  -4   42.36    3.25
  -6  -3   4   43.42    3.23
  -6  -3  -4   41.49    2.11
   6  -3  -4   43.11    3.22
   6   3   4   43.12    3.26
  -6  -3   4   47.73    3.38
  -6   4   4  508.37   12.16
  -6  -4  -4  546.10   12.17
   6   4   4  534.11    9.80
   6  -4  -4  550.03   11.77
   6  -4   4  510.66   10.13
   6   4  -4  554.22   11.93
   6  -4  -4  546.38   12.08
   6   4   4  538.76    9.84
   6  -4   4  555.50   10.51
   6   4  -4  557.87   11.97
   6  -4   4  527.80    8.33
  -6  -4   4  530.14   12.23
  -6  -4  -4  538.15    8.87
   6  -4  -4  542.21   12.10
   6  -4   4  533.72   10.37
  -6  -4   4  544.03    9.83
   6  -4   4  531.73   11.86
   6  -4  -4  552.28   11.77
   6   4   4  535.83   12.33
  -6   4   4  519.30   11.10
  -6   4   4  537.00   12.61
   6  -4   4  510.25   10.11
  -6   4   4  547.32   12.36
  -6   4  -4  552.65    8.49
   6  -4   4  535.75   11.84
   6   4  -4  542.64   12.55
  -6  -4  -4  548.24    9.52
   6  -4  -4  551.07   12.56
   6   4   4  542.93   12.39
  -6  -4   4  518.74   12.40
   6  -5  -4    4.70    1.29
  -6  -5   4    3.00    1.25
  -6   5   4    4.45    1.36
  -6  -5   4    3.61    0.78
   6   5   4    2.59    1.12
   6  -5  -4    3.19    0.98
  -6   5   4    4.45    1.12
   6   5   4    3.73    0.82
   6  -5   4    2.72    0.80
   6   5  -4    4.81    1.26
   6   5   4    4.01    0.84
   6  -5   4    2.34    0.99
   6   5  -4    3.74    1.10
   6  -5  -4    5.94    1.30
  -6  -5  -4    4.41    1.28
   6  -5   4    5.08    1.05
  -6  -5   4    1.43    0.74
   6  -5   4    2.12    0.89
   6  -5   4    2.89    0.57
   6  -5  -4    3.38    1.19
  -6  -5  -4    3.60    0.69
  -6  -5   4    3.15    1.20
   6  -5   4    3.12    0.85
  -6  -5   4    1.04    0.67
  -6   5   4    3.16    1.11
   6  -5  -4    2.01    0.76
   6   5   4    4.34    1.50
  -6   5   4    5.18    1.65
   6  -5   4    4.05    0.82
  -6   5  -4    3.24    0.65
  -6  -5  -4    5.46    0.93
  -6   6   4  382.00   10.24
   6   6   4  372.32    8.04
   6  -6  -4  365.88    9.45
   6   6  -4  354.08    9.48
   6  -6   4  372.93    8.45
   6   6   4  372.33    8.03
   6   6  -4  363.87    9.61
   6  -6  -4  368.35    9.78
  -6  -6   4  351.91    9.53
   6  -6   4  373.04    8.55
   6  -6   4  382.75    7.03
  -6  -6  -4  369.88    7.33
  -6  -6   4  387.89   10.18
  -6  -6   4  388.82    7.61
  -6   6   4  388.38   10.22
   6  -6  -4  354.99    9.63
  -6  -6   4  377.90    9.85
   6   6   4  375.07   10.08
   6  -6  -4  352.07    9.28
  -6   6   4  367.91    9.31
  -6   6   4  377.47   10.53
   6  -6   4  371.18    9.47
   6  -6   4  378.77    8.50
  -6   6  -4  363.59    7.28
  -6  -6   4  378.92   10.37
   6   6   4  387.94   10.23
   6   7   4   52.83    2.77
   6   7  -4   57.00    3.56
   6  -7  -4   56.17    3.50
   6  -7   4   52.33    2.96
   6   7   4   51.31    2.75
   6   7  -4   60.00    3.66
  -6  -7   4   49.82    3.43
  -6  -7  -4   55.72    3.04
   6  -7  -4   58.37    3.69
   6  -7   4   53.34    2.42
  -6  -7  -4   51.67    2.52
  -6  -7   4   57.40    3.77
  -6  -7   4   52.85    3.53
  -6   7   4   53.31    3.68
  -6  -7  -4   53.96    2.99
   6  -7  -4   56.66    3.64
   6  -7  -4   57.11    3.54
   6  -7   4   53.02    3.33
  -6   7   4   54.70    3.43
  -6   7   4   52.41    3.91
   6  -7   4   55.77    3.06
   6   7   4   53.16    3.57
  -6  -7   4   54.66    3.82
  -6  -8   4  125.02    3.52
   6   8  -4  114.36    5.23
   6  -8  -4  113.87    5.14
   6  -8   4  119.91    4.69
   6   8   4  118.85    4.37
   6   8  -4  117.07    5.30
  -6  -8   4  121.10    5.36
  -6  -8  -4  112.91    4.48
   6  -8  -4  115.61    5.28
  -6  -8  -4  114.56    3.98
  -6  -8   4  130.98    5.78
   6  -8   4  121.91    3.93
  -6  -8   4  120.10    5.34
  -6  -8  -4  114.78    4.52
  -6   8   4  130.50    5.76
   6  -8   4  123.08    5.05
   6  -8  -4  113.50    5.12
  -6   8   4  123.42    5.96
  -6   8   4  123.59    5.33
   6  -8   4  120.80    4.70
   6   8   4  117.56    5.49
  -6  -8   4  115.11    5.61
   6   8   4  127.56    4.50
  -6  -9   4    3.93    1.46
   6  -9   4    2.86    0.89
   6   9   4    2.77    0.71
  -6  -9   4    2.82    1.23
   6   9  -4    2.89    0.95
   6  -9  -4    3.74    1.21
  -6   9   4    3.37    1.14
   6  -9   4    3.18    0.96
   6   9   4    1.89    0.79
   6   9  -4    3.67    1.30
  -6  -9   4    2.25    0.56
  -6  -9  -4    2.98    0.96
  -6  -9  -4    3.50    0.90
   6  -9   4    2.74    0.68
   6   9   4    3.25    1.37
   6  -9  -4    3.55    1.13
  -6  -9  -4    3.67    0.89
  -6   9   4    3.49    1.48
   6  -9   4    2.31    0.89
   6  10  -4  493.34   11.88
   6 -10   4  459.12   10.54
   6  10   4  490.68   10.20
   6  10  -4  482.21   11.79
  -6 -10  -4  469.08   10.35
  -6 -10  -4  486.54    9.77
  -6 -10   4  474.56   12.04
   6 -10   4  482.06   10.61
   6 -10   4  460.54    9.32
  -6 -10  -4  467.04   10.35
  -6  10   4  496.94   13.01
  -6  10   4  471.94   11.69
   6 -10   4  492.76   10.84
   6  10   4  484.13   11.89
  -6 -10   4  475.52   12.39
   6  10   4  484.20   10.16
  -6 -11   4   15.35    2.17
   6  11  -4   17.58    2.14
  -6  11   4   13.57    1.94
   6 -11   4   14.53    1.85
   6  11   4   12.55    1.60
   6  11  -4   13.49    1.90
   6 -11   4   13.11    1.65
  -6 -11  -4   15.73    1.68
  -6 -11  -4   12.82    1.61
  -6 -11  -4   14.63    1.73
  -6 -11   4   14.37    2.07
   6  11   4   15.56    2.07
  -6  11   4   16.14    2.33
   6  11   4   15.11    1.73
   6 -11   4   12.92    1.73
  -6 -12   4   19.70    2.52
   6  12  -4   19.53    2.34
   6 -12   4   20.52    2.17
  -6  12   4   20.59    2.46
   6  12   4   17.25    1.84
   6  12  -4   17.66    2.22
  -6 -12  -4   17.55    1.81
  -6 -12  -4   17.24    1.89
  -6  12  -4   20.24    2.18
  -6 -12  -4   14.70    1.81
  -6 -12   4   20.50    2.50
   6  12   4   15.38    2.11
   6 -12   4   17.94    2.03
  -6  12   4   21.09    2.74
   6  12   4   19.49    1.97
   6  13   4    8.69    1.39
  -6  13  -4    7.30    1.42
   6  13  -4   10.42    1.81
   6  13   4   10.67    1.57
   6  13  -4   11.33    1.97
  -6 -13  -4    9.29    1.52
   6  13   4   10.12    1.78
  -6 -13  -4    9.20    1.40
  -6 -13  -4    7.76    1.40
  -6 -13   4   10.50    1.93
  -6  13   4   11.80    2.15
   6  14   4  354.64    9.39
  -6 -14  -4  355.69    9.24
  -6 -14   4  368.42   11.11
  -6  14  -4  367.88    9.98
  -6  14   4  369.10   11.80
   6  14   4  367.74   10.39
   6  14   4  363.93    9.48
   6  15   4    8.46    1.54
  -6  15  -4    7.62    1.59
   6  15   4    6.73    1.36
   6  15   4    8.03    1.67
  -6 -15   4    8.14    1.73
  -6  15   4    9.78    2.02
   6  16   4   28.79    2.67
  -6 -16  -4   29.42    2.66
  -6 -16   4   31.71    3.34
  -6  16  -4   31.51    2.89
   6  16   4   29.09    2.86
   6  16   4   31.71    2.81
  -6 -17  -4   17.77    2.22
  -6 -18  -4  161.31    6.72
  -6 -19  -4    0.54    1.07
  -7   0  -4    0.13    0.34
  -7   0   4    0.41    0.85
   7   0   4    0.04    0.65
  -7   0   4   -0.08    0.58
   7   0   4   -0.08    0.71
   7   0  -4   -1.24    1.01
   7   0   4   -0.37    0.77
   7   0  -4   -0.51    1.00
   7   0   4    0.01    0.55
  -7   0  -4   -0.15    0.52
  -7   0   4    1.45    1.12
   7   0   4    0.22    0.99
  -7   0   4    0.49    0.91
  -7   1  -4   36.07    1.52
   7   1   4   44.48    3.56
   7  -1   4   40.75    2.62
   7   1   4   39.18    2.54
   7   1  -4   40.62    3.20
   7  -1   4   39.20    2.57
   7  -1  -4   39.41    3.17
   7   1   4   39.60    2.54
   7  -1   4   44.32    2.72
   7  -1  -4   34.84    2.99
  -7  -1   4   37.86    3.23
  -7   1   4   42.47    3.42
  -7  -1  -4   35.11    1.87
  -7  -1   4   43.26    2.83
  -7   1   4   42.14    2.89
   7  -1   4   42.91    2.72
  -7   1   4   40.79    3.30
   7   1  -4   37.12    3.09
  -7  -1  -4   36.25    1.88
   7  -1   4   45.58    3.51
  -7  -1   4   42.20    3.40
  -7   1   4   41.77    3.36
  -7   2   4  544.65   12.92
   7   2   4  550.43   13.42
   7  -2   4  527.21   10.75
   7   2   4  504.01   10.36
   7   2  -4  533.16   12.48
   7  -2   4  540.45   10.94
   7  -2  -4  537.41   12.67
   7   2   4  505.90   10.37
   7  -2   4  551.38    8.78
   7   2  -4  525.17   12.37
   7  -2   4  520.51   10.79
   7  -2  -4  537.52   12.68
  -7  -2   4  531.44   12.93
  -7   2   4  550.39   13.05
  -7  -2  -4  521.85    9.01
  -7  -2   4  523.96   10.94
  -7   2   4  530.68   11.52
   7  -2   4  535.92   10.82
  -7   2   4  549.03   12.99
   7  -2   4  537.38   12.86
  -7  -2  -4  520.12    9.11
  -7  -2   4  538.85   13.00
   7   3   4    4.26    1.34
  -7  -3  -4    2.40    0.66
  -7  -3   4    3.71    1.41
  -7   3   4    1.50    1.07
  -7  -3   4    1.52    0.77
  -7   3   4    2.33    0.97
   7  -3   4    1.72    0.77
   7   3   4    1.71    0.75
   7   3  -4    3.55    1.12
   7  -3   4    2.54    0.85
   7  -3  -4    2.47    0.93
   7   3   4    2.92    0.82
   7   3  -4    3.37    1.17
   7  -3   4    2.76    0.52
   7  -3   4    1.88    0.78
   7  -3  -4    3.16    1.32
  -7  -3   4    2.28    1.00
  -7  -3  -4    3.16    0.76
  -7   3   4   -0.29    0.80
   7  -3   4    1.93    0.97
   7  -3   4    2.49    0.81
  -7   3   4    3.71    1.52
  -7   3  -4    3.37    0.38
  -7   4   4  144.69    6.32
   7   4   4  140.36    6.44
   7  -4  -4  145.58    5.97
   7   4   4  149.07    5.01
   7  -4   4  145.63    5.20
   7   4  -4  143.22    6.06
   7  -4  -4  140.43    6.09
   7  -4   4  141.93    5.20
   7   4   4  147.42    4.98
   7   4  -4  145.24    6.08
   7  -4   4  147.18    4.07
  -7  -4   4  142.16    6.30
  -7  -4  -4  142.68    4.33
   7  -4  -4  145.09    6.17
   7  -4   4  143.53    5.22
  -7  -4   4  144.69    5.05
  -7   4   4  141.55    6.20
   7  -4  -4  149.79    6.04
  -7   4   4  136.70    5.60
  -7   4   4  141.25    6.31
   7  -4   4  143.38    5.16
  -7   4  -4  142.97    3.36
   7  -4   4  143.46    6.11
  -7  -4  -4  142.41    4.46
  -7  -4   4  150.64    6.55
  -7   5   4   54.79    3.85
   7   5   4   55.27    4.01
   7   5   4   59.20    3.12
   7  -5  -4   56.23    3.70
   7  -5   4   58.96    3.30
   7   5  -4   65.90    4.05
   7   5   4   51.25    2.89
   7  -5  -4   67.13    4.19
   7  -5   4   56.75    3.27
   7   5  -4   69.54    4.15
   7  -5   4   55.73    2.51
  -7  -5   4   56.97    3.94
  -7  -5  -4   64.13    2.88
  -7  -5   4   51.16    2.91
   7  -5  -4   67.62    4.22
   7  -5   4   57.43    3.29
  -7   5   4   56.40    3.88
   7  -5  -4   62.65    3.91
  -7   5   4   56.90    3.59
  -7   5   4   55.35    3.96
   7  -5   4   54.85    3.17
  -7   5  -4   64.53    2.43
   7  -5   4   53.67    3.67
  -7  -5  -4   65.64    3.07
  -7  -5   4   54.33    3.95
  -7   6   4  245.97    8.50
   7   6   4  248.28    8.77
   7   6   4  257.24    6.96
   7   6  -4  271.16    8.53
   7  -6   4  241.38    7.17
   7   6   4  253.71    6.92
   7   6  -4  271.17    8.52
   7  -6  -4  260.11    8.59
   7  -6   4  247.16    7.31
  -7  -6  -4  263.79    6.38
  -7  -6   4  258.84    8.63
   7  -6  -4  269.27    8.72
   7  -6   4  246.83    8.12
   7  -6   4  259.78    7.45
  -7   6   4  259.63    8.66
  -7   6   4  247.02    7.94
  -7   6   4  267.20    9.02
   7  -6   4  247.60    7.22
  -7   6  -4  258.92    5.84
   7  -6   4  251.39    8.16
  -7  -6  -4  259.42    6.76
  -7  -6   4  253.28    8.88
  -7  -7  -4    7.62    1.32
  -7  -7   4    6.40    1.67
  -7   7   4    6.48    1.55
   7   7   4    8.34    1.27
  -7   7   4   10.76    1.72
   7  -7   4    6.78    1.21
   7   7  -4    7.59    1.64
   7  -7   4    7.75    1.52
   7   7   4    8.16    1.29
   7   7  -4    8.43    1.65
   7  -7  -4    9.01    1.75
   7  -7   4    7.91    1.37
   7  -7   4    9.43    1.65
  -7  -7  -4   10.68    1.29
  -7  -7   4    7.93    1.74
   7  -7  -4    8.98    1.73
   7  -7   4    8.73    1.46
  -7   7   4    8.79    1.85
  -7   7   4   10.25    1.94
   7  -7   4    8.83    1.41
  -7   7  -4    9.34    1.22
   7   7   4    5.25    1.51
   7   8   4  358.19   10.71
   7   8   4  346.70    8.56
   7   8  -4  336.45    9.91
   7  -8   4  343.60    9.07
   7   8   4  348.58    8.59
   7   8  -4  341.94   10.00
   7  -8  -4  351.95   10.27
  -7  -8  -4  353.11    8.97
  -7  -8  -4  355.55    8.02
  -7  -8   4  345.14   10.30
  -7   8   4  360.88   10.49
   7  -8  -4  362.25   10.40
  -7  -8  -4  334.16    8.79
  -7   8   4  333.42    9.81
  -7   8   4  360.12   10.88
   7  -8   4  353.38    9.62
   7  -8   4  328.32    8.89
  -7   8  -4  359.41    7.93
  -7  -8  -4  355.78    8.65
  -7  -8   4  368.55   10.91
   7   9   4   30.32    3.10
   7   9   4   33.57    2.53
   7   9  -4   34.98    3.10
   7  -9   4   33.81    2.75
   7   9   4   32.84    2.51
   7   9  -4   32.27    2.94
  -7  -9  -4   27.93    2.40
   7  -9  -4   29.67    2.93
  -7  -9  -4   31.71    2.30
  -7  -9   4   33.97    3.22
  -7  -9  -4   32.48    2.60
   7  -9  -4   34.85    3.16
   7  -9   4   36.18    2.91
  -7   9   4   45.84    3.85
  -7   9   4   35.79    3.13
   7  -9   4   32.71    2.63
  -7   9  -4   34.62    2.39
  -7  -9   4   35.43    3.34
   7  10  -4  100.74    5.31
  -7 -10   4   95.46    5.37
   7 -10   4   87.74    4.53
   7  10   4   90.09    4.28
   7  10  -4   96.90    5.22
  -7 -10  -4   96.31    4.55
   7 -10  -4   97.35    5.24
  -7 -10  -4   96.33    4.11
  -7 -10  -4   86.10    4.34
   7 -10   4   86.93    4.49
  -7  10   4   98.53    5.67
  -7  10   4   88.38    5.01
   7 -10   4   88.97    4.52
  -7  10  -4  101.67    4.31
   7  10   4   88.15    5.17
   7  10   4   85.80    4.20
   7 -11   4   11.50    1.70
   7  11   4   11.58    1.66
   7  11   4   12.53    1.67
  -7 -11  -4    8.60    1.51
  -7 -11  -4    9.39    1.40
  -7 -11   4   11.05    2.02
  -7 -11  -4    7.92    1.53
  -7  11   4   12.44    2.20
  -7  11  -4   11.85    1.70
   7  12   4  331.69    9.05
  -7 -12  -4  344.41    8.79
   7 -12   4  351.42    9.18
  -7 -12   4  343.14   10.76
  -7  12   4  369.41   11.60
  -7  12  -4  326.75    8.96
   7  12   4  333.56    9.10
   7  13   4    5.39    1.23
  -7  13  -4   10.92    1.86
   7  13   4    5.03    1.22
  -7 -13  -4    8.47    1.50
  -7 -13   4    7.66    1.83
  -7  13   4    5.25    1.64
  -7  13  -4    7.15    1.39
   7  14   4    7.06    1.33
  -7  14  -4    8.63    1.65
   7  14   4    8.25    1.50
  -7 -14  -4    6.89    1.42
  -7 -14   4    5.56    1.52
  -7  14  -4    8.48    1.59
  -7 -15  -4   11.08    1.73
  -7  15  -4   12.25    2.03
  -7  16  -4  222.58    8.25
  -7  17  -4    3.31    1.31
   8   0   4  416.26   12.21
   8   0   4  403.21    9.82
   8   0   4  417.95    9.88
   8   0  -4  410.04   11.45
   8   0   4  404.62    9.76
   8   0  -4  411.10   11.48
  -8   0   4  420.08   11.91
  -8   0  -4  414.74    8.15
  -8   0   4  401.73   10.28
   8   0   4  409.80    9.88
  -8   0   4  419.89   11.52
  -8   0   4  415.13   11.81
  -8   1   4   25.62    2.85
   8   1   4   24.22    3.02
   8  -1   4   26.85    2.34
   8   1   4   25.79    2.25
   8   1  -4   30.25    3.05
   8  -1   4   27.98    2.37
   8  -1  -4   28.30    2.89
   8   1   4   28.21    2.33
   8   1  -4   29.50    2.98
   8  -1   4   26.87    2.35
  -8  -1   4   27.93    2.96
  -8   1   4   27.27    2.98
  -8  -1  -4   28.89    1.92
   8  -1  -4   26.54    2.80
  -8  -1   4   29.25    2.54
  -8   1   4   29.61    2.67
   8  -1   4   28.85    2.48
  -8   1   4   28.99    2.99
   8  -1   4   24.05    2.86
  -8  -1   4   27.35    2.99
  -8   2   4   33.99    3.20
   8   2   4   33.55    3.42
   8  -2   4   29.49    2.48
   8   2   4   32.33    2.47
   8   2  -4   30.65    3.02
   8  -2   4   31.73    2.54
   8  -2  -4   29.58    2.99
   8   2   4   31.83    2.48
   8   2  -4   26.71    2.84
   8  -2   4   30.29    2.51
   8  -2  -4   29.30    2.94
  -8  -2   4   32.67    3.22
  -8   2   4   33.57    3.23
  -8  -2  -4   27.57    1.94
  -8  -2   4   33.35    2.71
  -8   2   4   32.94    2.87
   8  -2   4   33.44    2.61
  -8   2   4   35.16    3.27
  -8  -2  -4   28.52    1.96
  -8  -2   4   30.18    3.15
   8  -2   4   33.48    3.41
  -8   3   4   29.52    3.03
  -8  -3   4   23.89    2.78
   8   3   4   30.17    3.20
   8  -3   4   30.97    2.53
   8   3   4   28.77    2.38
   8   3  -4   35.27    3.15
   8  -3   4   32.01    2.64
   8  -3  -4   26.80    2.88
   8   3   4   29.18    2.35
   8   3  -4   30.06    2.91
   8  -3   4   30.23    2.60
   8  -3  -4   31.05    3.10
  -8  -3  -4   30.67    2.10
  -8   3   4   24.82    2.81
  -8  -3   4   30.41    2.56
  -8   3   4   30.07    2.74
  -8  -3   4   27.26    2.96
   8  -3   4   25.51    2.32
  -8   3   4   31.53    3.10
  -8  -3  -4   30.51    2.09
   8  -3   4   31.78    3.23
  -8   4   4  312.81   10.06
   8   4   4  318.02    8.31
   8  -4   4  298.91    8.41
   8   4  -4  304.83    9.70
   8  -4  -4  312.28    9.98
   8  -4   4  311.94    8.68
   8   4   4  313.16    8.25
   8   4  -4  314.90    9.84
   8  -4  -4  308.74    9.88
   8  -4   4  313.70    8.70
  -8  -4   4  306.93   10.03
  -8  -4  -4  304.26    7.31
  -8  -4   4  317.32    8.58
  -8   4   4  315.13   10.11
  -8   4   4  300.73    9.18
  -8   4   4  311.14    9.97
   8  -4   4  304.80    8.47
   8  -4   4  292.26    9.78
  -8  -4  -4  313.53    7.45
  -8  -4   4  296.23   10.02
  -8  -5  -4    4.14    1.02
  -8   5   4    5.19    1.37
   8  -5   4    3.03    0.94
   8   5   4    3.68    0.90
   8   5  -4    3.16    1.21
   8   5   4    3.57    0.88
   8  -5  -4    3.88    1.27
   8  -5   4    3.34    1.10
   8   5  -4    2.69    1.12
  -8  -5   4    4.55    1.11
   8  -5  -4    2.43    1.19
   8  -5   4    4.66    1.10
  -8  -5   4    4.19    1.51
  -8  -5  -4    3.30    0.88
  -8   5   4    3.88    1.36
   8  -5   4    8.18    1.96
   8  -5   4    3.98    1.04
  -8   5   4    4.23    1.44
   8   6   4  177.54    6.11
   8   6  -4  174.26    7.28
   8  -6   4  169.63    6.31
   8   6   4  173.05    6.06
   8  -6  -4  187.20    7.54
   8  -6   4  178.52    6.48
   8   6  -4  181.75    7.41
  -8  -6   4  174.56    7.48
  -8  -6  -4  177.01    5.49
   8  -6  -4  180.84    7.44
   8  -6   4  171.43    6.37
  -8   6   4  176.87    7.49
  -8   6   4  174.89    7.03
  -8   6   4  168.97    7.36
   8  -6   4  169.83    6.30
   8  -6   4  167.28    7.12
  -8  -6  -4  171.81    5.65
   8   7   4   31.94    2.58
   8  -7   4   30.16    2.66
   8   7   4   30.15    2.51
   8  -7  -4   29.49    3.00
   8  -7   4   33.52    2.82
  -8  -7   4   33.09    3.26
  -8  -7  -4   32.69    2.35
   8  -7  -4   33.45    3.19
   8  -7   4   37.82    2.98
  -8   7   4   29.28    3.09
  -8   7   4   35.53    3.18
  -8   7   4   36.77    3.45
   8  -7   4   31.65    2.75
   8  -7   4   29.33    2.92
  -8  -7  -4   32.64    2.51
   8   8   4  162.33    6.02
   8   8   4  165.23    6.09
   8  -8   4  170.60    6.50
  -8  -8  -4  170.69    5.59
  -8  -8   4  175.57    7.48
  -8   8   4  155.40    7.14
   8  -8   4  170.19    6.49
  -8   8   4  153.07    6.83
  -8   8   4  174.01    7.59
   8  -8   4  171.92    7.00
  -8  -8  -4  168.42    5.95
  -8  -9  -4    7.93    1.45
   8   9   4    5.40    1.18
   8  -9   4    5.96    1.51
   8   9   4    5.12    1.19
   8  -9   4    3.77    1.23
  -8  -9   4    4.64    1.47
   8  -9   4    6.00    1.35
  -8   9   4    8.76    1.89
   8  10   4  340.18    9.30
  -8 -10   4  337.07   10.88
   8 -10   4  329.22    9.73
  -8  10   4  330.00   11.05
  -8 -10  -4  312.60    8.96
   8  10   4  320.67    9.05
   8  11   4   38.70    3.06
  -8 -11   4   43.84    3.88
   8 -11   4   35.29    3.03
  -8  11   4   39.30    3.79
  -8 -11  -4   34.28    2.98
   8  11   4   34.05    2.90
  -8 -12  -4    7.79    1.66
   8  12   4    6.42    1.42
   8  12   4    7.04    1.43
  -9   0   4    0.93    1.10
   9   0   4   -0.37    1.02
   9   0   4   -0.52    0.86
   9   0   4   -1.14    1.08
  -9   0   4    0.44    0.89
   9   0   4   -1.33    1.06
   9  -1   4   22.52    2.39
   9  -1   4   19.87    2.18
   9   1   4   19.48    2.12
   9   1   4   22.21    2.23
   9  -1   4   23.19    2.36
  -9  -1   4   28.74    3.31
  -9  -1   4   26.21    2.64
  -9   1   4   23.48    2.63
  -9   1   4   24.04    3.02
   9  -1   4   23.26    2.39
  -9   1   4   26.04    2.92
   9  -2   4  313.85    9.11
   9   2   4  328.36    9.10
   9  -2   4  315.96    9.22
   9   2   4  327.44    9.09
   9  -2   4  325.33    9.34
  -9  -2   4  323.21   10.92
  -9   2   4  326.65   10.93
  -9  -2   4  329.58    9.62
  -9   2   4  329.45   10.02
   9  -2   4  331.03    9.35
  -9   2   4  317.23   10.42
  -9  -3   4   14.36    1.96
  -9   3   4   18.11    2.44
   9   3   4   14.43    1.85
   9  -3   4   13.51    1.91
   9  -3   4   17.27    2.12
  -9  -3   4   16.16    2.52
  -9   3   4   16.59    2.58
  -9   3   4   13.15    2.27
   9   3   4   14.28    1.81
   9   4   4   78.34    4.21
   9  -4   4   79.54    4.51
   9   4   4   77.91    4.21
   9  -4   4   72.17    4.31
  -9  -4   4   77.97    5.23
  -9  -4   4   77.43    4.40
  -9   4   4   81.09    5.29
  -9   4   4   73.18    4.68
  -9   4   4   80.36    5.07
   9   5   4   26.56    2.49
   9  -5   4   27.83    2.69
   9   5   4   27.10    2.49
   9  -5   4   29.18    2.78
  -9  -5   4   33.38    2.86
  -9   5   4   32.52    3.36
  -9  -5   4   28.36    3.24
  -9   5   4   26.61    2.93
  -9   5   4   30.51    3.21
   9   6   4  210.13    7.18
   9  -6   4  213.67    7.67
   9   6   4  207.08    7.16
  -9  -6   4  208.17    8.64
   9  -6   4  221.20    7.79
  -9   6   4  221.55    8.88
  -9   6   4  215.35    8.60
   9   7   4    1.27    0.75
   9   7   4    1.23    0.86
   9  -7   4    1.52    0.95
   9  -7   4    3.04    1.23
  -9  -7   4    1.20    1.25
  -9   7   4    1.68    1.25
  -9   7   4    1.20    1.23
   9   8   4  206.21    7.29
   9   8   4  215.85    7.45
   9  -8   4  215.45    7.85
   9  -8   4  219.14    7.92
  -9   8   4  222.03    8.86
   9  -9   4   41.50    3.44
   9  -9   4   37.71    3.31
 -10   0   4  280.45    9.54
 -10  -1   4   21.98    2.64
 -10  -2   4   19.93    2.44
 -10   2   4   24.36    2.96
 -10   3   4   29.61    3.28
 -10   4   4  235.79    9.21
   0   0  -5    0.17    0.46
   0   0  -5    0.26    0.64
   0   0  -5    0.40    0.39
   0   0  -5    0.47    0.33
   0   0   5   -0.10    0.38
   0   0  -5    1.41    0.75
   0   1  -5  357.10    5.88
   0  -1  -5  358.30    6.13
   0   1  -5  345.75    8.00
   0  -1   5  342.79    5.93
   0  -1  -5  354.17    8.06
   0   1  -5  362.57    8.13
   0  -1  -5  361.77    8.06
   0  -1  -5  355.75    6.69
   0   1  -5  345.46    6.12
   0   1  -5  356.27    6.89
   0  -1  -5  360.29    7.30
   0   2  -5    0.50    0.79
   0   2  -5   -0.12    0.49
   0  -2  -5    0.34    0.50
   0  -2   5    0.22    0.50
   0  -2  -5    0.27    0.66
   0   2  -5    0.11    0.10
   0  -2  -5    0.81    0.59
   0   2  -5    0.58    0.42
   0  -2  -5   -0.01    0.36
   0  -2   5    0.15    0.41
   0   2   5    0.32    0.72
   0   2  -5    0.86    0.84
   0  -2  -5   -0.02    0.69
   0   2  -5   -0.04    0.10
   0  -3   5  753.83   10.83
   0   3   5  719.10   11.59
   0   3  -5  705.51    8.80
   0  -3   5  725.56    9.06
   0  -3  -5  682.39   10.54
   0  -3   5  723.20   10.37
   0   3  -5  704.78   12.54
   0  -3   5  731.28    9.04
   0  -3  -5  704.45   12.56
   0   3   5  743.37   12.77
   0   3  -5  700.38   12.68
   0  -3  -5  703.43   12.58
   0  -3  -5  698.65   11.37
   0   3  -5  711.90    8.80
   0   3  -5  700.82    9.43
   0   3  -5  709.72   10.88
   0  -3  -5  683.60   11.83
   0  -4  -5    0.23    0.55
   0  -4   5    0.35    0.38
   0  -4  -5    0.30    0.14
   0   4  -5    0.34    0.24
   0  -4  -5    0.83    0.61
   0  -4  -5    0.18    0.68
   0   4  -5    0.72    0.28
   0  -4  -5    0.04    0.11
   0  -4  -5    0.19    0.16
   0  -4   5    0.24    0.28
   0   4   5   -0.05    0.54
   0  -4  -5    0.20    0.14
   0  -4   5    0.01    0.26
   0  -4   5   -0.21    0.42
   0  -4  -5   -0.11    0.40
   0   4   5    0.93    0.86
   0   4  -5    0.73    0.71
   0  -4  -5   -0.49    0.67
   0   4  -5    0.23    0.28
   0   4  -5    1.17    0.69
   0  -5   5    0.06    0.39
   0  -5  -5    0.17    0.57
   0  -5  -5    0.82    0.25
   0   5  -5    0.89    0.22
   0  -5  -5    0.79    0.60
   0   5  -5    0.73    0.32
   0  -5  -5    0.33    0.71
   0  -5  -5    0.86    0.27
   0  -5   5    0.26    0.32
   0   5   5    0.26    0.57
   0  -5   5    0.56    0.41
   0  -5   5    0.86    0.48
   0  -5  -5    1.17    0.55
   0   5  -5    3.02    0.97
   0   5   5   -0.01    0.71
   0  -5  -5    0.33    0.72
   0   5  -5    1.55    0.41
   0   5  -5    0.68    0.63
   0  -6   5   -0.08    0.42
   0  -6  -5    1.24    0.76
   0  -6  -5    0.32    0.29
   0  -6  -5    0.36    0.69
   0   6  -5   -0.03    0.38
   0  -6   5   -0.40    0.41
   0  -6  -5    0.29    0.34
   0  -6  -5   -0.90    0.68
   0   6   5    0.44    0.63
   0  -6   5   -0.18    0.39
   0  -6  -5   -0.31    0.83
   0  -6   5    0.57    0.46
   0  -6  -5    0.71    0.50
   0   6  -5    0.61    0.69
   0   6   5    0.73    0.76
   0  -6  -5    0.18    0.75
   0   6  -5    0.55    0.45
   0   6  -5   -0.21    0.72
   0  -7  -5  744.12   13.27
   0   7   5  773.81   13.25
   0  -7   5  762.30   11.34
   0   7  -5  744.39   11.01
   0  -7  -5  747.79   10.28
   0  -7   5  760.57   11.33
   0  -7   5  770.40   12.04
   0   7  -5  743.33   13.06
   0  -7  -5  725.43   12.42
   0  -7  -5  755.02   13.22
   0   7  -5  734.26   14.02
   0   7   5  766.45   13.74
   0  -7  -5  745.72   13.02
   0  -7  -5  733.07   13.67
   0   7  -5  755.49   11.05
   0  -7  -5  745.48   13.14
   0  -7   5  761.80   11.64
   0  -7  -5  741.05   10.27
   0  -8   5    0.48    0.51
   0  -8  -5    0.12    0.71
   0  -8  -5    0.99    0.51
   0  -8  -5    0.26    0.66
   0  -8  -5    0.35    0.63
   0   8  -5    0.42    0.50
   0  -8   5    0.12    0.48
   0  -8  -5    0.64    0.47
   0   8   5    0.76    0.70
   0  -8   5    0.72    0.57
   0  -8   5    0.32    0.59
   0  -8  -5    0.47    0.68
   0  -8  -5   -0.18    0.60
   0   8   5    0.48    0.82
   0  -8  -5    0.59    0.76
   0   8  -5   -0.10    0.45
   0   8  -5    0.33    0.69
   0   9   5  126.64    4.88
   0  -9  -5  129.66    4.92
   0  -9   5  131.94    4.10
   0   9  -5  125.94    3.91
   0  -9  -5  130.26    3.62
   0  -9   5  127.28    4.04
   0  -9   5  129.06    4.37
   0   9  -5  122.81    4.51
   0  -9  -5  130.64    4.60
   0  -9  -5  127.98    4.67
   0   9   5  133.41    5.24
   0  -9  -5  123.05    4.77
   0   9  -5  128.84    3.94
   0  -9  -5  131.01    5.14
   0  -9  -5  123.81    4.58
   0  -9   5  127.63    4.13
   0  -9  -5  128.27    3.59
   0  10  -5    0.91    0.68
   0 -10   5    0.60    0.54
   0 -10  -5    0.81    0.81
   0 -10  -5    0.12    0.48
   0 -10  -5   -0.64    0.75
   0  10   5    0.09    0.42
   0 -10  -5    0.56    0.76
   0  10  -5   -0.05    0.49
   0 -10   5    0.32    0.50
   0 -10  -5   -0.15    0.47
   0  10   5   -0.04    0.83
   0 -10   5    0.39    0.50
   0 -10   5   -0.15    0.53
   0 -10  -5    0.18    0.55
   0  10   5    0.19    0.40
   0  10   5    1.35    0.83
   0  10  -5   -0.14    0.54
   0 -10  -5   -0.32    0.69
   0  11   5  584.24   12.22
   0 -11  -5  563.47   12.04
   0 -11  -5  575.50   11.22
   0  11   5  591.28   10.27
   0 -11   5  573.14   10.75
   0  11  -5  575.98   10.55
   0 -11  -5  559.44    9.92
   0 -11   5  581.81   10.81
   0 -11   5  586.65   11.29
   0 -11  -5  564.43   11.47
   0  11  -5  577.83   11.02
   0  11   5  591.37   10.25
   0 -11  -5  571.05   11.23
   0  11   5  589.51   12.94
   0 -11  -5  559.79   12.01
   0  11  -5  587.21   10.61
   0 -11   5  592.71   10.98
   0 -11  -5  555.09    9.90
   0 -12   5    1.48    0.82
   0 -12  -5    1.01    0.90
   0 -12  -5    0.42    0.56
   0  12  -5    0.51    0.82
   0  12   5    0.64    0.58
   0 -12  -5   -0.46    0.67
   0 -12   5    0.27    0.63
   0  12  -5    0.59    0.55
   0 -12  -5    0.46    0.62
   0 -12  -5    0.02    0.65
   0  12   5    0.91    0.80
   0 -12   5   -0.01    0.50
   0 -12   5    0.28    0.65
   0 -12  -5    0.42    0.73
   0  12   5    0.08    0.52
   0  12   5    0.79    1.07
   0  12  -5   -0.54    0.61
   0  13   5  225.61    7.49
   0 -13   5  225.79    6.61
   0  13   5  225.57    6.23
   0  13  -5  239.47    6.69
   0 -13  -5  249.05    6.81
   0 -13  -5  240.92    6.27
   0 -13   5  226.83    6.62
   0 -13   5  233.44    6.91
   0  13  -5  253.74    6.69
   0  13   5  237.21    6.34
   0  13   5  242.72    8.40
   0 -13  -5  252.26    6.86
   0  13  -5  256.32    6.88
   0 -13   5  231.95    6.82
   0 -13  -5  244.54    6.31
   0 -14   5    0.08    0.53
   0 -14  -5   -0.44    0.57
   0  14   5    0.06    0.60
   0  14  -5    0.38    0.69
   0 -14  -5    0.00    0.61
   0 -14   5    0.14    0.64
   0  14  -5   -0.30    0.72
   0 -14  -5   -0.33    0.69
   0 -14  -5   -0.13    0.64
   0  14   5   -0.09    0.80
   0 -14   5   -1.08    0.87
   0 -14   5    1.04    0.84
   0  14   5   -0.36    0.51
   0  14   5    0.11    0.91
   0  14  -5    0.33    0.68
   0 -15  -5   97.72    4.16
   0  15   5   80.28    4.61
   0 -15   5   90.42    4.34
   0  15   5   88.18    4.04
   0  15  -5  101.35    4.50
   0 -15  -5   99.01    4.20
   0 -15   5   82.13    4.14
   0 -15   5   94.57    4.53
   0 -15  -5  103.08    4.30
   0  15   5   93.12    4.15
   0  15  -5   98.19    4.00
   0  15   5   94.03    5.54
   0  15  -5   99.14    4.45
   0 -15  -5  107.48    4.38
   0 -15   5   84.11    4.30
   0 -16   5   -0.48    0.69
   0 -16  -5    0.67    0.72
   0  16   5   -0.60    0.68
   0  16  -5   -0.96    0.75
   0 -16  -5    0.04    0.82
   0 -16  -5    0.28    0.75
   0  16  -5   -0.44    0.73
   0 -16   5    0.91    0.93
   0 -16  -5    0.91    0.78
   0  16   5   -0.86    0.67
   0  16   5    2.42    1.40
   0  16  -5    1.25    0.86
   0  17   5  346.22    9.09
   0  17  -5  334.17    9.31
   0 -17   5  344.63    9.69
   0  17   5  347.53    9.12
   0  17   5  347.14   11.74
   0  17  -5  330.12    9.25
   0 -17   5  347.47    9.73
   0  18   5   -0.70    0.80
   0  18  -5    0.95    0.92
   0 -18   5    2.09    1.18
   0  18   5   -0.91    0.82
   0  18   5    0.67    1.58
   0  18  -5    0.10    0.79
   0  19   5    2.56    1.02
   0 -19   5    3.56    1.28
   0  19   5    3.30    1.11
   0  19   5    2.44    1.48
   0 -20   5    0.16    0.93
   0  20   5    1.34    1.31
   0 -21   5  255.82    9.26
   1   0  -5   -0.06    0.57
  -1   0  -5    0.80    0.50
  -1   0   5    3.02    0.78
   1   0  -5    0.00    0.25
   1   0  -5    0.52    0.47
   1   0  -5    0.05    0.22
  -1   0  -5    0.23    0.39
   1   0  -5    0.09    0.23
  -1   0  -5    0.25    0.53
  -1   0   5    1.46    0.58
  -1   0  -5    1.33    0.76
   1   0  -5    0.80    0.50
  -1   0   5    1.67    0.65
   1   0  -5    0.23    0.25
  -1   0  -5    0.77    0.66
   1   0  -5    0.62    0.89
   1   1  -5  696.26    8.93
  -1  -1   5  712.36   11.46
  -1   1   5  709.92   10.63
   1  -1  -5  708.25    8.86
   1  -1  -5  671.90    8.76
   1   1  -5  703.94    8.95
   1  -1  -5  708.98    8.87
  -1  -1  -5  665.65    8.41
   1   1  -5  692.20   10.79
   1  -1  -5  679.54   10.91
  -1  -1   5  714.42   10.94
  -1   1  -5  697.92   12.46
  -1   1   5  712.37   10.84
  -1  -1  -5  683.16   12.42
   1   1  -5  704.19    9.73
  -1   1   5  720.28   12.91
   1  -1  -5  692.50   10.44
   1  -1  -5  686.37    8.78
  -1   1  -5  684.26   11.85
   1   1  -5  698.43   12.86
  -1  -1  -5  680.21   11.72
   1  -1  -5  688.00   12.75
  -1   1  -5  686.55   12.40
  -1  -1  -5  668.38   12.32
  -1  -1  -5  680.61   10.87
  -1   1  -5  676.95   10.33
  -1   1  -5  692.76    9.98
   1   1  -5  697.45   11.58
   1  -1  -5  699.39   11.98
  -1  -1  -5  695.22   10.65
  -1   2  -5    3.30    0.53
   1   2  -5    5.72    0.92
   1  -2  -5    5.59    0.99
  -1  -2  -5    4.50    0.79
  -1  -2   5    5.14    0.84
  -1  -2  -5    4.90    1.07
   1   2  -5    5.04    0.53
   1   2  -5    4.33    0.51
   1  -2  -5    5.21    0.79
   1  -2  -5    4.55    0.47
  -1  -2  -5    4.15    0.75
   1  -2  -5    4.48    0.49
  -1   2  -5    3.87    0.56
   1   2  -5    5.13    0.53
  -1   2  -5    3.64    0.98
  -1   2   5    5.63    0.85
  -1  -2  -5    4.59    0.48
   1  -2  -5    4.19    0.46
  -1  -2  -5    3.88    0.98
   1  -2   5    5.66    0.40
   1   2  -5    3.91    0.72
   1  -2  -5    3.76    0.71
  -1  -2   5    5.40    0.84
  -1   2   5    5.55    0.80
  -1   2   5    3.98    1.04
  -1   2  -5    3.01    0.82
   1   2  -5    5.03    1.09
   1  -2  -5    5.71    1.09
  -1  -2  -5    4.31    0.87
   1  -2  -5    4.20    0.45
   1  -3  -5   96.46    2.28
   1   3  -5   94.95    2.49
   1  -3  -5   95.09    2.48
  -1  -3   5   97.19    2.72
   1  -3  -5   98.19    3.99
   1  -3  -5   97.92    2.50
  -1  -3  -5   96.69    2.48
   1  -3  -5   96.31    3.43
  -1  -3   5  117.60    3.64
   1  -3   5  104.52    2.26
   1   3  -5   96.07    2.13
  -1  -3   5  103.90    2.79
  -1  -3  -5   93.83    3.94
   1   3   5  103.25    3.72
  -1   3   5  103.56    4.29
  -1   3  -5   98.32    3.88
   1  -3  -5   96.38    3.33
   1   3  -5   92.51    4.08
  -1   3  -5   97.57    3.97
   1  -3  -5  100.54    4.22
  -1  -3  -5   96.28    3.68
   1  -3  -5   96.74    2.28
  -1  -3  -5  102.63    3.59
  -1  -3  -5   97.57    3.99
   1   3  -5   95.42    3.51
  -1   3  -5   92.90    2.74
   1   3  -5   95.97    2.50
   1  -3  -5  100.58    3.95
  -1  -3  -5   97.17    3.45
  -1   3   5  102.75    3.46
  -1  -3   5   99.94    3.57
   1   4  -5    4.12    0.60
   1  -4  -5    4.65    1.02
  -1  -4   5    4.52    0.84
  -1  -4  -5    5.14    0.90
   1  -4   5    5.29    0.56
  -1  -4  -5    3.96    1.03
  -1   4  -5    4.12    0.42
   1  -4  -5    4.87    0.95
   1  -4  -5    5.00    0.55
  -1  -4  -5    5.62    0.97
  -1   4  -5    5.09    1.06
   1   4  -5    4.03    0.59
  -1   4  -5    3.97    0.58
   1  -4   5    4.39    0.44
  -1   4   5    4.34    0.89
   1  -4  -5    5.03    0.64
  -1  -4   5    4.65    0.68
   1  -4   5    4.66    0.46
   1  -4  -5    4.32    0.62
  -1  -4   5    6.14    0.78
  -1  -4   5    4.14    0.77
   1  -4  -5    4.35    0.88
  -1  -4  -5    5.03    0.67
   1  -4   5    4.71    0.55
  -1   4  -5    4.63    0.44
  -1  -4  -5    5.52    1.11
   1   4   5    4.84    0.98
  -1   4  -5    4.21    1.01
  -1   4   5    4.79    1.12
   1   4  -5    5.72    1.21
   1  -4  -5    6.17    1.28
  -1  -4  -5    6.05    1.12
   1  -4  -5    4.59    0.54
   1  -4  -5    4.35    0.99
  -1  -5  -5  587.77   10.41
   1  -5   5  560.34    7.95
  -1   5  -5  570.76    7.88
   1  -5   5  570.61    8.04
   1  -5  -5  572.96    8.17
   1   5  -5  566.42    8.68
  -1  -5   5  545.88    9.07
   1  -5   5  539.96    7.95
   1  -5  -5  587.14    8.75
   1  -5   5  570.15    8.30
  -1  -5   5  560.90    9.90
  -1  -5   5  550.03    9.09
   1  -5  -5  545.06   10.27
  -1  -5  -5  572.11    9.01
   1  -5  -5  568.86   10.86
   1  -5  -5  580.13    8.73
  -1  -5  -5  565.54   11.03
  -1   5  -5  561.63   11.14
   1   5  -5  554.07   11.53
   1   5   5  552.00   10.29
  -1   5  -5  566.28    7.86
  -1   5   5  572.31   11.51
   1  -5  -5  560.85   10.18
  -1   5  -5  569.85   10.88
   1  -5  -5  564.40   11.57
  -1  -5  -5  565.76   10.58
   1  -5  -5  566.13    8.15
  -1  -5  -5  559.67   10.43
   1   5  -5  566.07    8.66
  -1  -5  -5  571.99   11.06
  -1   5  -5  569.61    8.10
  -1   5   5  540.93   10.15
  -1  -5   5  551.44   10.00
   1  -5  -5  559.89   11.07
   1   6  -5    4.12    0.75
  -1  -6   5    3.13    0.82
   1  -6  -5    4.70    1.14
   1  -6  -5    2.61    0.82
   1  -6   5    2.67    0.45
  -1  -6  -5    4.85    1.01
  -1  -6  -5    2.69    0.94
   1  -6  -5    4.10    0.95
  -1   6  -5    4.48    0.62
   1  -6   5    3.29    0.56
  -1  -6  -5    3.59    0.42
  -1  -6  -5    2.69    0.80
   1  -6  -5    4.49    0.64
   1   6  -5    3.79    0.66
  -1   6  -5    3.72    0.93
  -1   6   5    4.42    0.94
  -1  -6   5    3.61    0.64
  -1   6  -5    3.23    0.48
   1  -6   5    4.34    0.65
  -1  -6  -5    3.74    0.43
   1   6   5    5.44    1.03
  -1  -6   5    3.25    0.68
   1  -6   5    3.44    0.60
  -1  -6   5    3.39    0.82
   1  -6  -5    3.93    0.91
  -1  -6  -5    4.93    0.83
  -1   6  -5    4.25    1.04
   1   6  -5    4.64    1.17
  -1   6  -5    4.00    0.61
   1   6   5    3.31    0.83
  -1   6   5    4.57    1.27
   1  -6  -5    5.04    1.29
  -1  -6  -5    5.84    1.04
  -1  -6  -5    2.10    0.85
   1  -6  -5    3.73    0.61
  -1  -7  -5   13.74    1.51
  -1  -7   5   10.38    1.24
   1  -7  -5    9.04    1.38
  -1  -7  -5   12.68    1.59
  -1  -7  -5   10.93    0.81
   1  -7   5   10.19    0.94
  -1   7  -5   10.77    0.97
   1  -7  -5   10.41    1.38
  -1  -7  -5   11.32    1.48
   1  -7  -5    9.42    1.26
   1  -7  -5   10.84    0.96
   1   7  -5   12.75    1.14
  -1  -7  -5   10.93    1.38
  -1   7  -5   13.09    1.53
  -1  -7  -5   10.40    0.78
  -1  -7   5   10.73    1.10
  -1   7   5    9.00    1.32
   1  -7   5    9.10    0.87
   1  -7   5   11.79    1.11
   1   7   5   11.42    1.39
  -1  -7  -5   12.07    1.22
  -1  -7   5   11.39    1.14
  -1  -7   5    9.42    1.20
   1  -7  -5   15.24    1.58
  -1   7  -5   11.02    0.96
   1   7   5   12.54    1.46
  -1   7   5   12.11    1.66
   1  -7  -5   11.92    1.01
   1  -7  -5   11.01    1.60
  -1  -7  -5   10.00    1.31
   1   7  -5   12.26    1.13
   1  -7   5   11.27    0.89
  -1   7  -5   10.99    0.75
   1   8  -5    5.94    0.87
   1  -8  -5    6.63    0.84
  -1   8  -5    6.83    0.59
  -1  -8   5    8.12    1.16
   1  -8   5    6.59    0.74
   1  -8  -5    6.30    1.23
  -1  -8  -5    7.68    1.21
   1   8   5    8.53    0.82
  -1  -8  -5    6.51    1.26
   1  -8  -5    6.77    1.19
  -1  -8  -5    6.73    0.72
  -1   8  -5    6.85    0.86
   1  -8   5    7.05    0.86
   1  -8  -5    7.24    1.20
  -1  -8  -5    5.92    1.10
  -1  -8  -5    7.21    1.20
   1   8  -5    6.24    0.94
   1  -8  -5    6.51    0.83
  -1  -8   5    7.83    1.02
  -1   8  -5    7.40    1.16
  -1   8   5    8.28    1.24
  -1  -8  -5    7.22    0.77
   1  -8   5    7.30    0.90
   1   8   5    7.82    1.30
  -1  -8   5    7.11    1.02
  -1   8  -5    6.60    0.58
   1  -8   5    6.98    0.92
  -1  -8   5    7.49    1.13
   1  -8  -5    6.55    1.17
  -1  -8  -5    6.33    0.99
   1   8   5    7.76    0.80
   1   8   5   10.57    1.39
  -1   8   5    8.54    1.57
  -1   8  -5    7.26    0.89
   1  -8  -5    7.99    1.47
  -1  -8  -5    7.14    1.28
   1  -9  -5  733.42   13.93
  -1  -9  -5  725.35   13.33
  -1   9  -5  724.52    9.22
   1   9   5  736.54   13.69
  -1  -9  -5  741.65   10.76
   1  -9   5  721.30   11.54
   1   9   5  750.59   10.94
  -1   9  -5  737.52   11.51
  -1  -9  -5  731.39   13.32
  -1  -9   5  734.46   12.23
   1   9  -5  732.68   11.90
   1  -9  -5  732.37   11.32
  -1  -9  -5  739.98   10.76
   1  -9   5  731.47   11.61
  -1  -9   5  721.73   12.15
   1  -9   5  736.55   11.92
  -1  -9   5  743.73   13.02
   1  -9  -5  730.39   13.35
  -1   9  -5  734.91   12.92
  -1  -9  -5  723.75   12.34
  -1   9  -5  715.20    9.21
   1   9   5  747.62   10.93
   1  -9  -5  734.41   13.43
   1   9   5  733.72   13.35
  -1   9   5  754.88   14.79
  -1   9  -5  739.04   11.52
  -1  -9  -5  723.70   13.30
   1  -9  -5  743.04   13.05
  -1   9  -5  726.61   12.83
  -1  -9  -5  721.72   13.51
   1  -9  -5  735.29   14.50
   1   9  -5  720.60   11.84
   1  -9  -5  738.27   11.34
  -1  -9   5  730.27   12.88
   1  -9   5  723.67   10.82
  -1   9   5  727.92   13.45
  -1 -10  -5   15.29    1.77
  -1 -10   5   13.39    1.61
  -1 -10  -5   12.92    1.16
   1 -10  -5   11.47    1.43
  -1  10  -5   12.68    0.72
   1 -10   5   12.75    1.32
   1 -10  -5   14.31    1.84
   1  10   5   14.21    1.25
  -1  10  -5   15.57    1.48
  -1 -10   5   15.15    1.53
   1 -10  -5   16.36    1.84
   1  10  -5   12.48    1.39
  -1 -10  -5   16.30    1.77
   1 -10  -5   15.58    1.38
  -1 -10  -5   14.86    1.79
  -1 -10  -5   21.09    1.98
  -1 -10  -5   14.13    1.22
   1 -10   5   11.62    1.27
  -1  10   5   16.06    1.84
  -1 -10   5   15.06    1.53
  -1  10  -5   12.76    1.52
   1 -10   5   14.15    1.45
   1 -10  -5   13.30    1.55
   1  10   5   14.25    1.83
   1 -10  -5   15.97    1.79
  -1  10  -5   14.10    1.60
  -1 -10  -5   14.18    1.52
  -1 -10   5   13.66    1.60
   1  10   5   13.09    1.19
  -1  10  -5   13.85    0.74
  -1  10  -5   12.52    1.38
   1  10   5   12.23    1.64
  -1  10   5   15.41    2.06
   1  10  -5   13.97    1.48
   1 -10  -5   13.76    1.31
   1 -10   5   13.60    1.23
   1 -11  -5  254.56    7.76
   1  11   5  256.20    7.67
  -1 -11  -5  248.60    5.84
   1 -11   5  248.36    6.33
   1  11   5  262.62    5.97
  -1  11  -5  262.32    6.38
  -1 -11   5  253.95    6.73
   1  11  -5  251.30    6.47
   1 -11  -5  258.52    6.19
  -1 -11  -5  250.33    5.85
   1 -11   5  253.17    6.39
  -1 -11  -5  261.70    7.13
  -1 -11   5  255.68    6.75
   1 -11   5  265.91    6.64
  -1 -11   5  269.36    7.30
   1 -11  -5  254.30    7.40
  -1 -11  -5  247.58    6.69
  -1  11  -5  255.11    6.74
   1 -11  -5  265.51    6.94
   1 -11  -5  259.93    7.54
   1  11   5  266.44    5.98
   1  11   5  273.24    7.78
  -1  11   5  266.15    8.58
  -1  11  -5  258.23    6.33
  -1 -11  -5  253.70    7.60
  -1  11  -5  246.10    3.98
  -1 -11  -5  252.15    7.04
  -1  11  -5  258.66    6.77
   1  11  -5  253.61    6.49
   1 -11  -5  267.05    6.93
   1 -11  -5  256.31    6.17
   1 -11   5  260.43    6.01
  -1 -11   5  275.16    7.34
  -1  11   5  267.74    7.69
   1 -12   5    1.60    0.62
  -1 -12   5    2.17    0.87
   1 -12  -5    2.68    0.74
  -1  12  -5    1.65    0.77
   1 -12  -5    2.54    1.05
   1 -12  -5    1.47    0.81
  -1 -12  -5    2.53    0.72
   1  12   5    2.84    0.71
   1 -12   5    0.94    0.56
  -1  12  -5    2.56    0.74
  -1 -12  -5    2.23    0.89
   1  12  -5    2.17    0.80
  -1  12  -5    2.09    0.33
  -1 -12   5    0.94    0.59
  -1 -12  -5    1.75    0.81
   1 -12  -5    2.89    0.73
  -1  12   5    1.88    0.82
  -1 -12  -5    2.03    0.64
   1 -12   5    2.08    0.66
  -1 -12   5    2.23    0.79
   1  12   5    0.99    0.85
  -1  12  -5    2.53    0.82
   1 -12   5    2.66    0.85
  -1 -12   5    1.91    0.80
  -1 -12  -5    3.01    0.90
   1  12   5    2.41    0.61
   1 -12  -5    2.03    0.70
   1  12   5    2.40    1.02
  -1  12   5    3.92    1.38
  -1  12  -5    2.37    0.68
   1  12  -5    2.85    0.81
   1  13   5  253.98    7.98
  -1 -13  -5  232.76    6.09
   1 -13  -5  240.84    6.64
   1 -13   5  234.96    6.65
  -1  13   5  247.00    6.73
   1  13   5  246.06    6.32
  -1 -13   5  238.98    6.98
  -1  13  -5  245.29    6.67
   1  13  -5  238.63    6.77
   1 -13  -5  235.72    6.37
  -1 -13  -5  238.02    6.16
   1 -13   5  236.25    6.67
  -1 -13   5  231.98    6.89
   1 -13   5  239.83    6.77
  -1 -13   5  242.44    7.33
  -1 -13  -5  245.48    6.99
  -1 -13  -5  218.55    6.73
  -1  13  -5  240.40    6.49
  -1  13   5  247.16    6.72
   1 -13  -5  234.28    6.58
   1  13   5  249.24    6.35
  -1  13   5  252.72    8.86
   1  13   5  247.84    8.12
  -1  13  -5  238.61    6.59
   1  13  -5  234.38    6.71
  -1 -13  -5  235.22    6.87
  -1  13  -5  238.52    6.44
   1 -13   5  255.84    6.53
  -1 -13   5  245.36    7.38
   1 -13  -5  235.61    6.36
  -1  13   5  240.03    7.73
   1  14   5    5.43    1.51
   1 -14   5    6.67    1.15
  -1 -14   5    6.56    1.39
   1 -14  -5    5.79    1.06
  -1  14  -5    5.45    1.07
  -1  14   5    5.94    1.12
  -1 -14  -5    3.86    0.94
   1  14   5    5.56    1.05
   1 -14   5    4.94    1.11
   1 -14  -5    5.62    1.13
  -1  14  -5    5.35    1.16
   1  14  -5    4.33    1.12
  -1 -14   5    4.48    1.11
  -1 -14  -5    7.79    1.41
   1 -14  -5    5.60    1.08
   1 -14  -5    3.67    0.89
  -1  14   5    7.41    1.58
  -1 -14  -5    4.47    0.87
   1 -14   5    4.42    1.02
   1  14  -5    3.85    1.04
  -1 -14   5    7.08    1.32
  -1 -14  -5    6.17    1.24
   1 -14   5    6.74    1.25
  -1 -14   5    5.34    1.26
  -1  14   5    4.48    1.02
  -1  14  -5    5.25    1.04
   1  14   5    5.72    1.06
  -1  14   5    5.02    1.70
   1  14   5    5.73    1.58
  -1  14  -5    5.58    1.11
   1  14  -5    4.80    1.05
   1  15   5  315.24    9.50
  -1 -15  -5  309.89    7.77
   1 -15   5  308.78    8.31
  -1  15   5  302.07    8.15
   1  15   5  311.64    7.86
  -1 -15   5  301.20    8.51
  -1  15  -5  310.49    8.25
   1  15  -5  303.67    8.36
   1 -15  -5  309.53    7.70
   1 -15  -5  309.37    8.00
  -1 -15  -5  302.27    7.68
   1 -15   5  304.06    8.29
  -1 -15   5  306.64    8.57
   1 -15   5  302.15    8.28
  -1 -15   5  313.62    8.92
   1  15  -5  298.61    7.61
  -1  15  -5  314.31    7.55
  -1  15   5  302.33    8.12
   1  15   5  315.13    7.89
  -1  15  -5  307.28    8.21
  -1  15   5  319.85   10.77
   1  15   5  330.36   10.24
   1 -15  -5  315.92    7.78
   1  15  -5  302.16    8.34
   1 -15   5  319.39    8.20
  -1 -15   5  323.84    9.11
   1 -15  -5  301.28    7.90
  -1 -15  -5  310.69    8.25
  -1  15   5  303.98    9.29
  -1  15  -5  306.69    7.48
   1 -16   5    2.47    1.01
  -1 -16   5    2.72    0.98
   1 -16  -5    2.19    0.95
  -1  16   5    1.55    0.67
  -1  16  -5    0.71    0.61
  -1 -16  -5    1.39    0.79
   1  16   5    2.38    0.79
  -1  16  -5    2.29    0.97
   1  16  -5    2.98    1.07
   1 -16  -5    2.41    0.86
   1 -16  -5    2.22    0.84
  -1 -16  -5    2.25    0.93
  -1 -16  -5    1.75    0.79
   1 -16   5    3.18    1.06
  -1 -16   5    1.97    0.98
  -1  16   5    2.83    1.02
   1  16   5    1.94    0.74
  -1  16   5    4.63    1.83
  -1  16  -5    2.71    0.95
   1  16   5    2.68    1.15
   1  16  -5    2.45    0.95
  -1  17   5   39.90    2.98
   1  17   5   37.09    2.74
  -1  17  -5   37.20    2.95
   1  17  -5   36.61    2.94
   1 -17   5   38.25    3.00
  -1 -17   5   38.00    3.19
  -1  17   5   39.41    2.96
   1  17   5   38.85    2.79
  -1  17  -5   38.43    2.94
  -1  17   5   42.45    4.20
   1  17   5   36.73    3.71
   1  17  -5   39.91    3.09
  -1 -17   5   38.93    3.26
  -1 -18   5    3.67    1.31
  -1  18   5    2.63    1.07
   1  18   5    2.79    0.98
  -1  18  -5    4.88    1.30
   1 -18   5    2.94    1.04
  -1 -18   5    1.78    1.13
  -1  18   5    1.77    0.88
   1  18   5    2.31    0.86
  -1  18  -5    2.55    1.01
   1  18   5    0.22    1.18
  -1  19   5  321.90    9.60
   1 -19   5  328.65    9.78
  -1 -19   5  316.42   10.05
  -1  19   5  312.07    9.45
  -1  19   5  335.47   12.43
   1  19   5  312.01   11.56
  -1 -19   5  338.07   10.43
   1 -20   5   -0.45    0.82
  -1 -20   5   -0.22    0.88
  -1  20   5    0.29    1.38
   1  20   5   -0.41    1.46
   1 -21   5   15.11    2.22
   1  21   5   11.61    2.46
   2   0  -5    4.35    0.89
  -2   0  -5    6.12    0.64
  -2   0   5    2.75    0.76
   2   0  -5    5.02    0.72
  -2   0  -5    4.41    1.05
   2   0  -5    4.86    0.68
  -2   0  -5    5.00    0.83
  -2   0   5    3.66    0.61
   2   0  -5    4.62    0.67
   2   0  -5    4.51    0.87
  -2   0   5    2.46    0.77
  -2   0  -5    4.84    0.84
   2   0  -5    2.91    0.96
  -2   0  -5    5.92    1.00
  -2   1  -5  183.67    5.77
  -2  -1   5  196.46    5.67
  -2  -1   5  205.31    4.15
  -2   1   5  205.31    5.77
  -2  -1  -5  191.93    5.93
   2  -1  -5  196.75    4.36
   2   1  -5  198.33    4.40
   2  -1  -5  197.62    4.45
   2   1  -5  199.49    4.41
   2  -1  -5  203.65    4.48
   2   1  -5  198.73    5.41
   2  -1  -5  196.01    5.42
  -2  -1   5  213.53    5.59
  -2   1   5  211.19    5.52
   2  -1  -5  195.18    4.61
   2  -1  -5  205.75    4.44
  -2   1  -5  187.23    5.83
  -2   1   5  217.99    6.58
  -2  -1  -5  202.10    6.03
  -2   1  -5  198.34    5.20
   2   1  -5  202.60    6.36
  -2  -1  -5  200.59    5.10
   2  -1  -5  195.84    6.32
  -2   1  -5  200.75    3.51
   2   1  -5  199.90    5.74
  -2  -1  -5  198.40    5.19
   2  -1  -5  202.67    5.95
  -2   1   5  209.18    4.70
  -2  -1  -5  206.59    4.31
  -2   1  -5  197.87    4.93
   2   2  -5   -0.44    0.67
   2  -2  -5    1.05    0.79
  -2  -2  -5    0.20    0.35
  -2  -2   5    0.28    0.55
  -2   2   5    0.62    0.74
   2  -2  -5    0.78    0.60
  -2   2  -5   -0.43    0.76
  -2  -2  -5    0.98    0.81
   2  -2  -5   -0.13    0.38
  -2  -2  -5    1.03    0.89
   2   2  -5    0.05    0.37
  -2  -2  -5    0.35    0.51
  -2   2   5    0.61    0.46
   2  -2  -5    0.46    0.51
   2   2  -5    0.48    0.44
  -2   2  -5    0.51    0.48
  -2  -2   5    0.19    0.30
   2  -2  -5    0.04    0.40
   2   2  -5    0.14    0.59
   2  -2  -5    0.41    0.54
  -2  -2   5    0.23    0.58
  -2   2   5    0.26    0.57
   2  -2  -5    0.23    0.39
  -2   2   5    1.07    0.98
  -2   2  -5    0.82    0.68
   2   2  -5   -0.47    0.81
   2  -2  -5    0.66    0.91
  -2  -2  -5    0.10    0.56
  -2   2  -5   -0.04    0.71
  -2  -3  -5  653.43   10.35
  -2   3  -5  647.69   10.19
   2   3  -5  662.47    9.90
  -2  -3  -5  644.73   12.14
   2  -3  -5  644.82    9.64
   2  -3  -5  639.25   10.11
   2   3  -5  655.74    9.89
   2   3  -5  641.64   11.18
  -2  -3   5  647.76   10.22
   2  -3  -5  641.27   11.50
   2  -3  -5  645.76   10.13
  -2  -3   5  648.70   11.29
  -2   3   5  634.10   11.11
   2  -3  -5  646.96   10.67
  -2   3  -5  641.92   11.96
  -2   3   5  633.20   12.68
  -2   3  -5  642.76   11.22
   2  -3  -5  645.03    9.63
   2   3  -5  665.16   12.92
  -2  -3  -5  665.18   12.28
   2  -3  -5  659.94   12.96
  -2  -3  -5  648.87   10.75
   2   3  -5  639.50   11.64
  -2  -3  -5  647.43   11.28
  -2   3   5  629.10   10.59
   2  -3  -5  654.83   12.30
  -2   3  -5  643.25   11.93
  -2  -3   5  627.63   11.63
   2   4  -5   -0.10    0.58
   2  -4  -5    0.25    0.72
  -2  -4   5    0.43    0.57
  -2  -4  -5    0.82    0.55
  -2   4  -5    0.69    0.78
   2   4  -5    0.56    0.46
   2  -4  -5    1.42    0.77
  -2  -4  -5    0.76    0.77
   2  -4  -5    0.55    0.42
   2  -4   5    0.35    0.19
  -2  -4  -5    0.64    0.76
  -2  -4  -5    0.45    0.56
  -2   4   5    1.06    0.56
   2   4  -5   -0.02    0.41
   2  -4   5    0.63    0.22
  -2   4  -5    0.50    0.38
   2  -4  -5   -0.04    0.51
  -2  -4   5    0.25    0.43
   2   4  -5   -0.09    0.50
   2  -4  -5    0.38    0.47
   2  -4  -5    1.25    0.74
  -2  -4   5    0.52    0.44
  -2  -4   5    0.18    0.54
  -2  -4  -5    0.63    0.26
  -2   4   5    1.08    0.65
  -2   4  -5    0.36    0.56
  -2   4   5    2.33    1.08
   2   4  -5    0.20    0.84
  -2   4  -5    0.21    0.76
   2  -4  -5    0.55    0.47
   2  -4  -5    0.05    0.86
  -2  -4  -5    0.48    0.58
   2  -5   5    6.97    0.63
  -2  -5   5    7.19    1.10
   2  -5  -5    5.85    1.15
  -2  -5  -5    8.66    1.07
   2   5  -5    7.65    0.95
  -2   5  -5    5.96    1.13
   2  -5  -5   10.05    1.30
  -2  -5  -5    8.02    1.29
   2  -5  -5    8.16    0.89
  -2  -5  -5    7.41    1.12
   2  -5   5    6.35    0.61
  -2   5   5    6.44    1.03
   2   5  -5    8.37    1.00
  -2  -5  -5    7.77    1.32
  -2  -5   5    6.35    0.94
   2  -5   5    5.81    0.48
  -2   5  -5    6.64    0.81
   2  -5  -5    6.98    0.98
  -2  -5  -5    8.13    0.76
  -2  -5   5    6.18    0.94
  -2  -5   5    6.09    1.08
   2  -5  -5    9.34    1.35
   2  -5  -5    7.27    0.98
  -2   5  -5    7.90    1.26
   2   5   5    5.98    0.94
  -2   5  -5    6.28    1.18
  -2   5   5    6.51    1.43
   2  -5  -5    9.16    1.66
   2  -5  -5    7.63    0.87
  -2  -5  -5    9.77    1.19
  -2  -6  -5   13.89    1.44
   2  -6   5   15.76    1.05
   2  -6  -5   13.15    1.67
  -2   6  -5   14.81    1.18
  -2   6  -5   14.88    1.06
   2   6   5   16.25    0.79
  -2   6  -5   13.60    1.67
   2  -6  -5   14.93    1.23
  -2  -6  -5   12.61    1.63
   2   6  -5   13.86    1.32
  -2  -6  -5   13.90    0.79
  -2  -6   5   16.69    1.49
  -2  -6  -5   11.74    1.44
   2  -6   5   15.63    1.04
   2  -6   5   16.13    0.97
  -2  -6  -5   13.69    0.79
  -2  -6   5   15.61    1.47
  -2  -6  -5   13.54    1.07
  -2  -6  -5   13.18    1.66
   2  -6  -5   15.57    1.59
   2  -6  -5   13.67    1.58
  -2   6  -5   13.92    1.02
   2   6   5   14.98    0.76
   2   6   5   14.73    1.42
   2  -6  -5   13.60    1.18
  -2  -6  -5   15.16    1.44
  -2   6   5   16.02    1.95
  -2   6  -5   13.22    1.54
   2  -6  -5   12.94    1.76
  -2  -6   5   15.40    1.65
  -2   6   5   15.35    1.56
  -2  -6   5   17.87    1.72
   2   6  -5   15.97    1.38
  -2  -7  -5  836.49   13.83
   2  -7   5  852.88   11.92
  -2   7  -5  851.23   12.00
   2   7   5  858.13   10.95
   2  -7  -5  847.72   12.60
  -2  -7  -5  859.73   11.18
   2   7  -5  825.56   12.97
  -2  -7   5  836.70   13.56
  -2  -7  -5  842.58   14.78
   2  -7   5  859.65   11.95
  -2  -7  -5  835.09   11.13
   2  -7   5  848.13   11.72
  -2  -7   5  852.50   14.37
  -2  -7   5  846.19   13.59
   2  -7  -5  825.46   14.75
  -2  -7  -5  803.77   12.36
   2  -7  -5  836.30   14.15
  -2   7  -5  829.08   14.26
  -2   7  -5  854.13   12.00
   2   7   5  864.66   10.96
   2   7   5  843.89   13.27
  -2   7   5  874.05   16.29
  -2  -7  -5  859.22   14.87
   2  -7  -5  847.63   12.60
  -2  -7  -5  830.85   13.27
  -2  -7  -5  834.28   14.59
  -2   7   5  853.37   14.29
   2   7  -5  824.86   12.96
  -2  -7   5  844.61   14.55
  -2   7  -5  842.06   14.31
   2  -7  -5  849.16   15.36
   2  -8   5   10.34    1.04
  -2  -8   5   10.80    1.45
   2   8  -5    9.85    1.16
   2  -8  -5   13.90    1.74
   2  -8   5    0.00    0.05
  -2  -8  -5   13.33    1.71
  -2   8  -5   11.24    1.10
   2   8   5   11.46    0.92
  -2   8  -5   12.99    1.59
   2  -8  -5   11.96    1.58
  -2  -8  -5   11.73    0.95
   2  -8  -5   11.85    1.19
  -2  -8  -5   10.40    1.55
  -2  -8  -5   11.02    1.44
   2  -8   5   10.56    1.05
   2   8  -5   12.57    1.31
  -2   8   5   13.01    1.57
  -2  -8   5   10.17    1.23
  -2  -8  -5   12.95    1.00
   2  -8   5   11.21    1.07
  -2  -8  -5   11.79    1.18
  -2  -8   5   12.21    1.34
  -2  -8   5    8.89    1.29
   2  -8  -5   10.41    1.53
  -2   8  -5   12.45    1.16
   2   8   5   13.34    0.95
   2  -8  -5   12.78    1.23
   2   8   5   10.47    1.34
  -2   8   5   12.71    1.94
  -2   8  -5   10.81    1.39
   2  -8  -5   10.43    1.37
   2  -9  -5   64.68    3.71
  -2   9  -5   64.35    3.22
   2  -9   5   56.72    2.54
  -2   9  -5   63.32    2.65
   2   9   5   54.81    2.17
  -2  -9  -5   64.14    2.39
   2  -9  -5   61.97    2.76
  -2  -9   5   55.79    2.93
   2   9  -5   63.54    2.98
   2  -9   5   53.05    2.48
  -2  -9  -5   66.66    2.44
  -2  -9  -5   64.03    3.47
   2  -9   5   57.08    2.50
  -2  -9   5   56.51    2.97
  -2  -9   5   56.16    3.21
   2  -9  -5   65.53    3.58
  -2   9  -5   65.64    2.42
   2  -9  -5   66.76    3.29
  -2  -9  -5   64.08    2.83
   2  -9  -5   67.27    3.48
  -2   9  -5   65.89    3.26
  -2   9  -5   64.66    2.69
   2   9   5   54.06    2.15
   2   9   5   54.36    2.82
  -2   9   5   59.31    3.86
   2  -9  -5   64.33    2.79
  -2  -9  -5   59.46    3.35
  -2  -9  -5   62.44    3.47
  -2   9   5   56.60    3.19
   2   9  -5   59.44    2.90
  -2  -9   5   57.40    3.29
   2  10  -5    4.38    0.91
  -2 -10   5    2.80    0.83
   2 -10   5    3.83    0.52
  -2  10  -5    5.28    1.05
   2 -10  -5    5.27    1.28
  -2  10  -5    5.24    0.73
   2 -10  -5    4.44    0.97
   2 -10   5    5.08    0.86
   2 -10  -5    7.26    1.38
  -2  10  -5    5.45    1.05
  -2  10  -5    4.63    0.89
   2  10   5    4.16    0.73
  -2 -10  -5    5.96    0.87
  -2 -10  -5    3.86    1.00
   2 -10  -5    5.91    1.00
  -2 -10  -5    6.31    1.23
   2  10  -5    4.64    0.99
  -2  10   5    4.05    1.03
  -2 -10   5    5.17    1.09
   2 -10   5    3.65    0.77
  -2 -10  -5    5.95    0.82
  -2 -10   5    2.86    0.85
  -2 -10  -5    4.18    1.03
   2 -10   5    3.80    0.83
  -2 -10   5    5.14    1.16
   2 -10  -5    4.91    1.13
  -2 -10  -5    6.56    1.06
  -2  10  -5    5.01    0.96
   2  10   5    3.71    0.67
   2  10   5    4.16    0.96
  -2  10   5    2.09    1.14
   2 -10  -5    3.85    0.85
   2 -11  -5  463.22   11.16
   2 -11   5  450.54    9.03
  -2  11  -5  457.02    9.56
   2  11   5  451.09   10.74
  -2 -11  -5  445.34    8.43
  -2  11  -5  444.74    8.94
   2  11   5  468.93    8.44
  -2 -11   5  454.78    9.94
   2 -11  -5  440.02    9.07
   2  11  -5  453.18    9.56
   2 -11   5  451.18    9.03
  -2 -11  -5  452.05    8.47
   2 -11   5  464.00    8.96
  -2 -11   5  449.15    9.88
  -2 -11   5  469.26   10.58
  -2 -11  -5  445.72    9.25
   2 -11  -5  448.96   10.49
  -2  11  -5  447.89    7.56
  -2 -11  -5  447.51   10.21
   2 -11  -5  453.50    9.65
  -2  11  -5  460.72    9.60
  -2  11  -5  442.42    8.92
   2  11   5  463.42    8.43
   2  11   5  458.96    9.89
  -2  11   5  465.59   12.09
   2 -11  -5  441.82    9.08
   2  11  -5  440.19    9.44
  -2 -11  -5  461.82   10.33
  -2  11   5  454.42   10.56
  -2 -11   5  452.44   10.59
   2 -11   5  460.80    7.43
   2 -12  -5    2.61    0.88
   2  12  -5    2.59    0.99
   2 -12   5    2.71    0.61
  -2 -12   5    1.39    0.88
   2 -12   5    2.84    0.81
  -2  12  -5    1.85    0.54
  -2  12  -5    2.24    0.92
  -2  12  -5    1.59    0.82
   2  12   5    2.14    0.73
  -2  12  -5    1.66    0.84
  -2 -12  -5    2.72    0.85
   2 -12  -5    2.35    0.95
   2  12  -5    1.60    0.75
  -2 -12   5    3.13    0.98
  -2 -12  -5    3.29    1.16
  -2  12   5    2.24    1.03
  -2 -12  -5    2.88    1.09
   2 -12  -5    1.59    0.79
   2 -12   5    3.32    0.85
  -2 -12  -5    3.19    0.84
  -2 -12   5    2.47    0.92
   2  12   5    1.97    0.93
   2 -12   5    3.18    0.86
  -2 -12   5    1.51    0.97
  -2 -12  -5    1.90    0.80
  -2  12  -5    1.92    0.79
   2  12   5    3.02    0.75
   2  12   5    2.54    1.06
  -2  12   5    3.28    1.47
   2 -13   5  330.98    8.05
   2  13   5  318.67    9.22
  -2 -13  -5  328.84    7.49
  -2  13  -5  327.02    7.98
   2  13   5  329.78    7.51
  -2  13  -5  321.90    7.80
  -2 -13   5  341.71    8.75
   2  13  -5  323.43    8.32
   2 -13  -5  316.17    7.87
   2 -13   5  327.71    8.02
  -2 -13  -5  326.84    7.48
  -2 -13   5  323.16    8.55
   2 -13   5  338.46    7.97
  -2 -13   5  346.47    9.28
   2 -13  -5  326.99    7.96
  -2  13  -5  322.24    7.94
   2  13   5  322.77    7.46
  -2  13  -5  327.21    6.15
  -2  13  -5  325.96    7.84
   2  13   5  330.94    8.92
  -2  13   5  351.21   10.82
   2 -13  -5  319.72    7.88
   2  13  -5  320.31    8.27
   2 -13  -5  321.69    7.93
   2 -13   5  353.95    7.08
  -2  13   5  320.34    9.14
  -2 -13   5  328.88    9.22
  -2 -13  -5  323.15    8.63
   2 -14  -5    1.10    0.73
   2 -14   5   -0.10    0.53
  -2 -14   5   -0.32    0.70
   2 -14  -5   -0.72    0.73
   2 -14   5    1.04    0.70
  -2  14  -5    0.21    0.72
  -2  14  -5   -0.22    0.65
   2  14   5    0.41    0.52
  -2 -14  -5    0.12    0.66
   2  14  -5    0.01    0.69
  -2 -14   5    0.45    0.72
   2 -14  -5   -0.05    0.62
  -2  14   5   -0.48    0.70
  -2 -14  -5    1.83    1.19
   2 -14   5    0.69    0.65
  -2 -14  -5    0.55    0.59
  -2  14  -5   -0.52    0.64
  -2 -14   5    0.12    0.65
   2  14   5   -0.52    0.78
  -2 -14   5   -0.07    0.78
   2 -14  -5   -0.38    0.78
  -2  14  -5   -0.36    0.75
   2  14   5    0.63    0.52
  -2  14   5   -0.33    1.17
   2  14   5    0.92    0.82
   2  14  -5    0.89    0.78
   2 -15   5  102.18    4.55
  -2 -15  -5  107.67    4.90
   2 -15  -5  101.56    4.12
  -2 -15  -5   97.77    4.15
  -2  15  -5  101.79    4.56
   2  15   5  108.27    4.36
   2  15  -5   96.86    4.65
   2 -15  -5   94.71    4.34
   2 -15   5   97.06    4.45
  -2 -15  -5   98.34    4.16
  -2 -15   5  102.86    5.07
   2 -15  -5  103.47    4.17
  -2  15  -5  101.39    4.52
   2  15   5  105.17    4.30
  -2  15   5  114.89    6.38
   2  15   5  108.48    5.41
  -2  15  -5   97.25    3.98
   2  15  -5   97.15    4.65
   2 -15  -5   94.02    4.32
  -2 -15   5  111.38    5.36
  -2 -16   5    3.65    1.27
  -2  16  -5    5.16    1.30
   2 -16  -5    4.72    0.95
   2  16   5    5.36    1.14
   2  16  -5    4.59    1.23
  -2 -16   5    5.86    1.46
  -2  16  -5    4.96    1.24
   2  16   5    6.87    1.22
  -2  16   5    7.73    2.19
   2  16   5    4.43    1.38
   2  16  -5    7.13    1.50
  -2  17  -5  346.33    9.39
   2  17   5  323.09    8.66
   2  17  -5  327.05    9.42
  -2 -17   5  327.16   10.00
  -2  17  -5  341.46    9.33
   2  17   5  321.34    8.62
  -2  17   5  360.98   12.18
   2  17   5  338.12   10.86
   2  17  -5  338.74    9.56
  -2 -17   5  330.88   10.17
  -2 -18   5    5.43    1.49
  -2  18  -5    3.99    1.28
   2  18   5    3.75    1.06
  -2 -18   5    4.57    1.32
  -2  18  -5    3.36    1.14
   2  18   5    3.86    1.07
  -2  18   5    6.66    2.00
   2  18   5    2.30    1.09
  -2 -19   5    2.70    1.39
  -2  19   5    3.83    1.50
   2  19   5    1.37    1.18
  -2 -20   5    3.63    1.41
   3   0  -5   -0.79    0.78
  -3   0  -5    0.61    0.20
  -3   0   5    0.55    0.74
  -3   0  -5    0.13    0.82
   3   0  -5    0.07    0.62
  -3   0   5    0.19    0.39
  -3   0  -5    0.60    0.55
   3   0  -5    0.22    0.52
   3   0  -5   -0.05    0.61
  -3   0   5   -0.22    0.68
  -3   0   5    0.99    1.18
  -3   0  -5    1.22    0.57
   3   0  -5   -0.01    0.72
  -3   0  -5    0.76    0.90
  -3  -1   5  335.15    8.28
  -3  -1  -5  345.30    7.70
  -3   1   5  340.76    8.34
  -3   1  -5  350.79    7.54
   3   1  -5  340.97    7.06
   3  -1  -5  356.40    7.25
  -3   1  -5  328.93    8.21
  -3  -1  -5  343.02    8.45
   3   1  -5  347.19    7.12
   3  -1  -5  348.23    7.19
   3   1  -5  341.22    8.11
   3  -1  -5  348.49    8.18
  -3  -1   5  345.85    8.07
  -3   1   5  340.76    8.06
  -3   1   5  353.09    9.17
  -3   1  -5  331.41    6.71
   3  -1  -5  341.95    9.03
  -3  -1  -5  334.71    6.50
  -3   1  -5  343.82    8.35
  -3  -1  -5  327.89    8.30
  -3   1   5  334.70    6.55
  -3  -1   5  338.68    5.97
   3   1  -5  346.68    8.47
   3  -1  -5  343.54    8.58
  -3  -1  -5  344.97    5.50
  -3  -2  -5   26.76    1.41
  -3   2   5   22.49    2.03
  -3   2  -5   23.31    1.75
   3  -2  -5   22.94    1.64
   3   2  -5   25.79    1.74
  -3   2  -5   26.38    2.18
   3  -2  -5   23.57    1.72
  -3  -2  -5   27.99    2.35
   3   2  -5   26.69    1.78
   3   2  -5   27.15    2.15
   3  -2  -5   24.92    2.09
   3  -2  -5   25.45    1.77
  -3  -2   5   21.81    1.96
  -3   2   5   22.75    1.98
   3  -2  -5   23.93    1.67
  -3   2  -5   24.22    1.66
  -3  -2  -5   25.54    1.55
  -3   2  -5   25.32    2.19
  -3  -2  -5   24.06    2.16
  -3   2   5   23.21    2.29
  -3   2   5   22.14    1.58
   3   2  -5   25.44    2.13
  -3  -2   5   23.33    1.18
   3  -2  -5   25.77    2.24
  -3  -2  -5   25.02    1.94
  -3  -2   5   27.68    2.26
  -3  -3  -5   72.84    2.58
  -3   3   5   73.22    3.68
  -3   3  -5   67.74    2.95
   3   3  -5   72.66    2.96
   3  -3  -5   69.11    2.83
  -3   3  -5   65.87    3.41
   3  -3   5   69.33    1.61
   3  -3   5   69.45    1.72
   3  -3  -5   71.44    3.04
   3   3  -5   70.44    2.92
  -3  -3  -5   73.25    3.68
   3   3  -5   66.41    3.33
   3  -3  -5   69.57    3.49
   3  -3   5   68.75    1.71
   3  -3  -5   73.89    3.08
  -3  -3   5   72.75    3.45
   3  -3  -5   68.93    2.96
  -3   3   5   76.98    3.53
   3  -3  -5   70.14    2.84
  -3   3  -5   66.84    2.89
  -3   3   5   75.47    4.06
  -3   3  -5   71.61    3.56
  -3  -3  -5   69.94    2.56
  -3  -3  -5   71.54    3.64
  -3   3   5   73.31    3.00
   3   3  -5   69.63    3.55
   3  -3  -5   64.69    3.58
  -3  -3  -5   68.57    3.30
  -3  -3   5   74.96    3.69
  -3  -3   5   72.88    1.83
   3  -3   5   67.34    1.59
   3   4  -5    7.93    1.46
   3  -4  -5    5.18    1.18
  -3  -4   5    3.71    1.06
  -3  -4  -5    5.36    0.80
   3  -4  -5    7.27    1.11
   3  -4   5    3.65    0.46
   3  -4  -5    5.48    0.92
   3   4  -5    4.30    0.97
  -3   4  -5    5.75    1.23
  -3  -4  -5    5.27    1.21
  -3  -4  -5    3.71    1.21
   3  -4   5    5.25    0.54
  -3   4   5    5.25    0.99
  -3  -4  -5    6.37    1.15
   3   4  -5    5.24    0.98
   3  -4  -5    6.77    1.09
  -3  -4   5    4.41    0.87
   3  -4   5    4.11    0.55
   3   4  -5    4.82    1.07
  -3   4  -5    6.51    1.25
   3  -4  -5    5.32    1.01
   3  -4  -5    5.28    1.20
  -3  -4   5    4.09    1.03
  -3  -4   5    2.28    0.65
   3  -4   5    3.90    0.54
  -3   4   5    3.80    1.03
   3  -4  -5    4.85    0.85
  -3   4  -5    4.31    0.89
  -3   4   5    3.57    1.33
  -3  -4  -5    4.88    0.74
   3   5  -5  875.53   13.63
   3  -5  -5  871.30   13.32
   3   5   5  848.26   10.22
  -3   5  -5  861.13   14.86
   3  -5   5  888.99   11.45
   3   5  -5  882.33   13.67
  -3  -5   5  876.68   14.13
   3  -5  -5  899.61   14.11
   3   5  -5  856.48   14.71
  -3  -5  -5  837.49   10.57
  -3  -5  -5  881.77   15.48
  -3  -5   5  886.21   14.98
   3  -5  -5  858.11   15.23
  -3  -5  -5  863.31   10.90
   3  -5  -5  873.00   14.13
  -3  -5   5  907.40   14.28
   3  -5  -5  893.54   14.09
  -3   5   5  867.24   14.79
  -3   5   5  889.49   16.46
   3  -5  -5  860.95   13.27
   3   5   5  855.55   10.22
  -3   5  -5  852.06   14.83
  -3  -5  -5  874.62   12.33
  -3  -5  -5  884.35   15.44
  -3   5   5  871.25   14.10
  -3  -5  -5  848.62   14.76
   3  -5   5  888.56   11.46
   3  -5  -5  876.64   15.86
  -3  -5   5  866.56   15.31
  -3  -6   5    0.05    0.68
   3  -6  -5    0.05    0.72
   3  -6   5    0.55    0.38
   3  -6  -5   -0.01    0.64
   3   6  -5    0.96    0.59
   3  -6  -5    0.05    0.54
  -3   6  -5    0.19    0.73
   3   6   5    0.29    0.22
  -3  -6  -5    1.66    1.07
  -3   6   5    0.52    0.65
   3  -6   5    0.77    0.45
  -3  -6  -5   -0.07    0.69
   3   6  -5    1.09    0.68
  -3  -6   5   -0.20    0.53
  -3  -6  -5    0.95    0.37
   3  -6  -5    0.80    0.64
  -3  -6  -5    0.64    0.36
   3  -6   5    0.28    0.15
  -3  -6   5    0.61    0.61
  -3  -6  -5    1.71    1.05
  -3  -6   5    0.97    0.88
  -3  -6  -5    0.49    0.30
   3  -6  -5    1.19    0.86
   3  -6  -5    1.04    0.80
   3  -6   5    0.52    0.21
  -3   6  -5    1.20    0.78
  -3  -6  -5    0.84    0.35
   3   6   5    0.93    0.52
  -3   6   5    1.27    1.27
   3  -6  -5    0.57    0.58
   3   6   5    0.68    0.26
  -3  -7   5    1.46    0.78
  -3  -7  -5    2.68    1.07
   3  -7  -5    2.54    0.88
   3  -7   5    2.41    0.55
   3  -7  -5    3.22    0.98
   3   7  -5    4.82    0.97
   3  -7  -5    4.37    0.88
  -3   7  -5    0.95    0.78
   3   7   5    1.95    0.41
  -3  -7  -5    1.20    0.92
  -3   7   5    2.54    0.82
  -3  -7  -5    5.86    1.22
   3  -7   5    1.81    0.48
   3   7  -5    3.62    0.82
  -3  -7   5    1.63    0.69
  -3  -7  -5    2.62    0.51
   3  -7   5    2.31    0.42
  -3  -7   5    2.20    0.78
  -3  -7  -5    2.74    0.51
  -3  -7   5    3.41    0.92
   3  -7  -5    0.97    0.69
   3  -7   5    1.71    0.34
  -3  -7  -5    2.02    0.47
  -3   7  -5    1.20    0.80
   3   7   5    3.07    0.65
  -3   7   5    2.70    1.29
   3  -7  -5    4.85    0.94
   3   7   5    1.91    0.39
  -3  -8   5   12.35    1.69
   3  -8  -5   11.49    1.68
   3   8  -5   12.79    1.43
   3  -8  -5   10.88    1.50
   3   8   5    9.88    0.87
   3  -8  -5    9.95    1.23
  -3   8  -5   10.41    1.43
   3  -8   5   10.25    1.04
  -3  -8  -5   10.61    1.02
  -3   8   5   10.17    1.42
  -3  -8  -5   12.27    1.66
  -3  -8  -5    9.54    1.40
   3   8  -5   10.14    1.26
  -3  -8  -5   11.83    1.66
   3  -8   5   11.12    0.97
  -3  -8   5   10.29    1.42
  -3  -8  -5    9.97    0.99
   3  -8   5   10.07    0.86
  -3  -8  -5   10.82    1.09
  -3  -8   5    9.38    1.35
  -3  -8   5    9.77    1.50
   3  -8  -5   10.95    1.62
   3   8   5   10.73    1.13
   3   8   5   10.69    0.91
  -3   8  -5   11.13    1.52
  -3   8   5   13.50    2.02
   3  -8  -5   11.72    1.31
   3  -8   5   11.46    1.14
  -3   9  -5  549.40    9.69
   3   9   5  530.87    8.69
   3  -9  -5  524.17   10.19
  -3  -9  -5  546.11    9.04
   3  -9   5  520.91    9.41
   3   9  -5  542.61   10.63
  -3  -9   5  522.48   10.86
  -3   9  -5  520.73   10.75
   3  -9   5  536.27    8.83
  -3  -9  -5  545.72    9.05
  -3  -9   5  545.40   11.64
  -3  -9   5  520.44   10.87
   3  -9   5  534.57    8.61
   3  -9  -5  525.84   11.23
  -3   9  -5  549.02    9.67
   3   9   5  546.28    9.50
  -3   9   5  550.43   13.17
   3   9   5  531.92    8.68
   3  -9  -5  534.38   10.24
  -3   9  -5  526.46   10.78
  -3  -9  -5  539.06   11.56
  -3   9   5  541.10   11.36
  -3  -9  -5  536.19   11.67
  -3  -9  -5  535.93   11.57
  -3  -9   5  536.48   11.87
   3  -9   5  512.35    9.37
   3   9  -5  530.13   10.54
   3  -9  -5  540.47   12.22
  -3  10  -5    5.64    1.25
  -3 -10   5    5.36    1.28
   3  10  -5    2.85    0.88
  -3 -10  -5    5.24    1.34
   3 -10   5    4.97    0.92
   3 -10  -5    5.37    1.29
  -3  10  -5    2.60    0.74
   3  10   5    4.11    0.74
  -3  10  -5    3.73    1.06
   3 -10  -5    4.41    1.03
  -3  10   5    4.77    1.09
   3  10  -5    3.93    0.98
  -3 -10  -5    2.67    0.63
   3 -10   5    4.85    0.91
  -3 -10  -5    6.33    1.43
  -3 -10   5    2.37    0.66
  -3  10  -5    3.16    0.78
  -3 -10  -5    2.92    0.72
  -3 -10   5    4.83    1.17
  -3 -10   5    5.58    1.26
  -3  10  -5    3.90    0.84
   3  10   5    4.43    0.90
  -3  10   5    5.80    1.58
   3  10   5    4.26    0.76
   3 -10  -5    2.87    0.86
  -3  11  -5  142.29    4.83
   3  11   5  175.35    4.75
   3 -11  -5  170.22    5.48
  -3 -11  -5  175.48    4.93
  -3 -11   5  173.73    5.99
   3  11  -5  174.51    5.78
   3 -11   5  175.03    5.23
  -3  11  -5  172.21    5.60
  -3 -11  -5  168.36    4.81
  -3 -11   5  173.34    5.99
  -3 -11   5  184.14    6.49
   3 -11  -5  179.95    5.70
  -3  11  -5  177.14    4.89
  -3  11  -5  151.80    4.96
   3  11   5  168.22    5.11
  -3  11   5  182.59    7.48
   3  11   5  172.89    4.70
   3 -11  -5  171.17    5.50
  -3  11  -5  173.99    5.61
  -3  11   5  172.73    6.19
   3  11  -5  166.48    5.65
  -3 -11   5  171.41    6.48
   3 -11   5  170.29    5.17
  -3 -11  -5  183.72    6.37
  -3 -12   5   13.55    1.87
   3  12  -5    8.85    1.37
   3 -12  -5   10.73    1.45
  -3  12  -5    8.93    1.11
  -3  12  -5    8.83    1.26
   3  12   5   14.05    1.38
  -3  12  -5    8.73    1.33
   3 -12  -5   12.04    1.56
   3 -12   5   15.69    1.61
  -3  12  -5   10.44    1.43
  -3 -12  -5   11.54    1.35
   3  12  -5    8.17    1.42
  -3  12   5   14.23    1.89
  -3 -12   5   14.65    1.74
  -3 -12  -5   14.30    1.96
  -3 -12  -5    8.77    1.13
  -3 -12   5   12.08    1.64
  -3 -12   5   13.68    1.87
   3  12   5   13.87    1.59
  -3  12  -5   10.92    1.38
  -3  12   5   12.12    2.22
   3  12   5   12.17    1.28
   3 -12   5   12.40    0.75
   3 -12  -5   11.96    1.57
   3 -12   5   13.15    1.50
  -3 -13  -5  237.82    7.55
  -3  13  -5  227.20    6.61
   3  13   5  231.02    6.19
  -3 -13  -5  225.21    6.20
   3 -13  -5  224.57    6.83
  -3 -13   5  233.50    7.44
   3  13  -5  230.89    7.15
   3 -13   5  230.16    6.64
  -3 -13  -5  226.74    6.22
  -3 -13   5  218.02    7.23
  -3 -13   5  246.26    7.99
  -3  13  -5  231.62    6.56
  -3  13  -5  230.74    5.76
   3 -13  -5  229.29    6.52
  -3  13  -5  232.71    6.68
   3  13   5  233.90    6.75
  -3  13   5  229.18    8.90
   3  13   5  231.66    6.20
   3 -13  -5  227.78    6.87
  -3  13  -5  236.08    6.59
  -3  13   5  231.28    7.72
   3  13  -5  233.41    7.19
  -3 -13   5  231.19    7.94
   3 -13   5  234.21    6.68
   3  14  -5    1.77    0.85
  -3 -14   5    1.56    1.02
   3 -14   5    2.10    0.87
  -3  14  -5    2.05    0.84
   3  14   5    1.81    0.75
   3 -14  -5    2.13    0.96
  -3 -14  -5    2.69    0.98
  -3  14  -5    1.64    0.92
   3  14  -5    1.87    0.96
  -3  14   5    2.59    1.02
   3 -14   5    2.77    0.96
   3 -14  -5    1.19    0.85
  -3 -14  -5    1.82    0.84
  -3 -14   5    2.72    1.26
  -3  14  -5    1.24    0.84
   3  14   5    0.82    0.69
  -3  14   5   -0.26    1.14
   3  14   5    1.13    0.61
  -3  14  -5    0.71    0.69
   3 -14  -5    2.10    0.93
  -3  15  -5  365.32    9.26
   3  15   5  355.76    8.57
   3  15  -5  347.39    9.64
   3 -15   5  343.74    9.01
  -3 -15   5  381.67   10.62
   3 -15  -5  375.47    8.55
  -3  15  -5  359.65    9.21
  -3  15   5  382.75   12.14
   3  15   5  376.00    9.72
   3  15   5  356.06    8.56
   3  15  -5  350.54    9.68
  -3  15  -5  368.90    8.43
  -3 -15   5  351.24   10.45
   3 -15   5  330.03    8.86
   3  16  -5    7.24    1.45
  -3 -16   5   10.71    1.93
  -3  16  -5    6.37    1.22
   3  16   5    8.33    1.37
   3  16  -5    6.23    1.32
  -3 -16   5    9.52    1.80
  -3  16  -5    7.47    1.40
  -3  16   5   10.20    2.22
   3  16   5    8.19    1.66
   3  16   5    8.53    1.37
  -3  17  -5   27.07    2.58
  -3 -17   5   25.35    2.84
  -3  17  -5   27.39    2.61
  -3  17   5   24.62    3.24
  -3 -17   5   33.33    3.22
  -3 -18   5    0.01    1.06
  -3  18   5    1.48    1.32
  -3 -19   5  271.77    9.76
  -4   0   5   33.48    2.65
  -4   0  -5   38.17    2.51
   4   0   5   31.00    1.04
   4   0   5   31.30    1.03
   4   0  -5   43.64    2.55
   4   0   5   30.36    1.03
   4   0  -5   39.84    2.44
   4   0  -5   43.96    2.86
   4   0   5   34.16    2.58
  -4   0   5   34.20    2.54
  -4   0  -5   39.31    2.83
  -4   0   5   37.54    3.00
  -4   0  -5   41.53    1.75
   4   0   5   30.15    1.01
  -4   0   5   31.41    1.76
  -4   0  -5   45.35    3.01
   4   0  -5   40.50    2.94
  -4   1   5  210.27    6.76
  -4  -1  -5  205.54    6.18
  -4   1  -5  209.79    6.09
   4  -1   5  206.10    3.54
   4   1  -5  203.85    5.81
   4  -1   5  200.32    3.41
   4  -1  -5  205.46    5.85
   4   1   5  201.78    3.17
   4  -1   5  206.94    3.55
   4   1  -5  210.97    5.90
   4   1  -5  201.60    6.48
   4  -1  -5  204.34    5.85
   4  -1  -5  204.97    6.55
   4  -1   5  209.22    6.52
  -4  -1   5  207.75    6.54
   4   1   5  201.24    6.44
  -4   1   5  213.40    6.60
  -4   1  -5  205.14    6.50
  -4  -1  -5  206.82    6.57
  -4   1   5  211.62    7.17
  -4   1  -5  205.48    4.53
  -4  -1  -5  214.19    4.18
   4  -1   5  194.93    3.38
  -4   1   5  203.40    5.05
  -4  -1   5  206.68    4.62
  -4   1  -5  207.03    6.52
  -4  -1  -5  212.66    6.68
   4   1  -5  204.17    6.71
   4  -1  -5  212.17    6.90
   4   1   5  205.31    3.18
  -4  -1  -5  205.95    3.47
  -4  -1   5  210.75    6.76
   4   2   5    4.49    1.25
   4   2  -5    5.27    1.29
   4  -2  -5    3.41    1.16
   4   2   5    3.03    0.33
  -4  -2   5    2.68    1.00
  -4  -2  -5    5.32    0.64
  -4   2   5    3.65    1.21
   4   2   5    3.24    0.33
  -4   2   5    5.23    0.90
  -4  -2  -5    8.00    1.64
   4  -2   5    3.81    0.46
  -4  -2   5    4.84    0.65
   4   2  -5    5.85    1.06
  -4   2  -5    4.60    1.21
  -4  -2  -5    6.52    1.39
   4   2   5    3.56    0.34
   4  -2   5    3.92    0.51
   4  -2  -5    3.99    0.99
  -4  -2  -5    3.26    0.83
   4  -2   5    3.97    1.13
   4   2  -5    4.47    1.00
   4  -2   5    4.47    0.53
   4  -2  -5    5.76    1.11
   4   2  -5    4.03    1.12
   4  -2  -5    3.43    1.04
  -4  -2   5    3.75    1.06
  -4   2   5    3.59    1.05
  -4   2  -5    6.06    1.42
   4   2   5    3.37    0.35
  -4   2   5    6.27    1.54
  -4   2  -5    4.11    0.73
  -4  -2  -5    3.99    0.50
   4  -2   5    4.23    0.48
  -4  -3  -5  588.89   11.85
  -4   3   5  632.94   12.84
  -4  -3  -5  627.99    9.41
   4  -3  -5  598.13   11.09
   4   3   5  585.60    8.03
   4   3  -5  601.19   11.27
   4  -3   5  613.81    8.47
   4   3   5  607.93    7.78
   4  -3   5  635.72    8.91
   4  -3  -5  633.79   11.67
   4   3  -5  619.06   11.40
   4   3  -5  593.96   12.17
   4  -3  -5  609.95   12.54
   4  -3   5  654.01    8.97
   4  -3  -5  612.75   11.55
  -4  -3   5  631.53   12.48
   4   3   5  624.75   12.46
  -4   3   5  625.83   12.43
  -4   3  -5  593.15   12.12
   4  -3  -5  606.48   11.12
   4   3   5  594.86    8.04
  -4   3  -5  572.68    9.89
  -4   3   5  633.48   13.53
  -4  -3  -5  596.21   12.41
  -4  -3  -5  579.84    8.11
  -4   3   5  611.72   10.79
   4  -3   5  615.47    8.47
  -4  -3   5  622.88    8.62
  -4   3  -5  610.11   12.19
   4   3  -5  612.98   12.63
   4   3   5  611.47    7.79
  -4  -3  -5  630.09   12.66
   4  -3  -5  612.37   12.92
  -4  -3   5  619.40   12.76
   4   4  -5   11.66    1.71
   4   4   5   10.66    1.62
   4  -4  -5   11.64    1.72
  -4  -4   5   11.28    1.67
  -4   4   5    9.03    1.45
   4  -4  -5    7.21    1.16
   4  -4   5   11.17    0.87
   4   4  -5    9.75    1.29
   4   4   5   10.05    0.67
  -4   4   5   10.75    1.31
  -4   4  -5    9.45    1.51
  -4  -4  -5   12.80    1.82
   4  -4   5   10.59    0.98
  -4  -4  -5    9.82    1.43
   4   4  -5   10.08    1.32
   4  -4  -5   10.90    1.44
  -4  -4  -5   10.29    1.66
  -4  -4   5   10.53    1.36
   4  -4   5   10.66    0.94
   4   4  -5    8.87    1.36
   4  -4  -5    9.70    1.37
   4  -4  -5    8.72    1.44
  -4  -4   5   13.21    1.71
  -4   4   5   10.42    1.51
  -4   4  -5    9.74    1.46
   4  -4  -5    9.87    1.27
  -4   4  -5   10.12    1.16
  -4   4   5   10.56    1.82
   4  -4   5   10.75    0.88
   4   4   5   10.04    0.67
  -4  -4   5    9.94    0.66
   4   5  -5   22.15    1.93
   4  -5  -5   20.01    1.73
   4   5   5   26.06    1.19
   4  -5   5   23.91    1.35
   4   5  -5   21.00    1.87
   4  -5  -5   22.18    1.94
  -4  -5   5   24.80    2.07
   4   5  -5   22.81    2.18
  -4  -5   5   26.50    2.32
   4  -5  -5   25.32    2.10
   4   5   5   29.14    2.46
  -4  -5  -5   21.25    0.90
  -4   5   5   27.61    2.34
  -4   5  -5   26.12    2.27
  -4  -5   5   27.28    2.18
   4  -5  -5   24.12    1.90
  -4   5   5   25.81    2.64
  -4   5   5   26.95    2.07
   4   5   5   25.22    1.18
   4  -5   5   25.03    1.38
  -4   5  -5   21.51    2.05
  -4  -5  -5   24.57    2.35
  -4  -5  -5   22.87    2.28
   4  -5  -5   25.30    2.44
  -4  -5  -5   21.66    2.06
  -4  -5   5   26.95    2.48
   4   6   5   16.11    1.95
  -4  -6   5   15.37    1.94
   4  -6  -5    9.94    1.54
   4   6  -5   11.90    1.46
   4  -6  -5   11.52    1.43
   4   6   5   15.49    1.00
   4  -6   5   13.36    1.11
  -4   6  -5   10.26    1.51
  -4  -6  -5   12.56    1.85
  -4  -6   5   15.67    1.71
  -4  -6  -5   10.64    1.52
   4  -6  -5   15.01    1.80
   4   6  -5   11.68    1.47
  -4  -6  -5   11.40    0.84
  -4  -6  -5   11.23    0.84
  -4  -6   5   15.94    1.92
  -4  -6   5   13.31    1.61
   4  -6  -5   10.76    1.48
  -4  -6  -5   18.34    2.17
  -4   6   5   14.02    1.74
   4  -6  -5   12.57    1.43
  -4   6   5   17.01    1.74
  -4   6   5   15.06    2.15
   4   6   5   15.47    1.01
  -4   6  -5   12.48    1.65
   4  -6   5   13.66    1.13
   4   7  -5  600.42   11.61
   4  -7  -5  586.47   11.26
   4   7   5  596.94    8.93
   4  -7   5  570.96    9.64
   4   7  -5  606.19   11.64
  -4  -7   5  586.10   11.80
  -4  -7  -5  586.07    9.46
   4  -7   5  575.01    8.00
   4  -7  -5  609.60   12.01
  -4  -7  -5  598.92    8.86
  -4  -7   5  589.59   12.49
   4  -7   5  581.99    8.00
  -4  -7   5  587.58   11.83
   4   7   5  580.31   12.29
  -4  -7  -5  598.18    9.49
   4  -7  -5  612.14   12.06
  -4   7  -5  589.22   11.90
  -4   7   5  598.48   13.87
   4  -7  -5  577.02   11.18
  -4   7   5  568.92   11.57
   4   7   5  588.94    8.89
  -4   7  -5  591.28   11.91
   4  -7   5  574.35    9.66
  -4  -7  -5  590.53   12.40
  -4  -7   5  590.13   12.97
   4  -7  -5  579.95   12.95
  -4  -7  -5  601.30   12.76
   4   8   5    0.73    0.88
   4  -8   5    1.21    0.57
  -4  -8   5    1.85    0.97
   4   8  -5    0.92    0.62
  -4   8  -5    1.41    0.89
   4  -8  -5    0.68    0.65
   4   8   5    0.86    0.51
  -4   8   5    1.08    0.74
  -4   8  -5    1.77    0.97
   4  -8   5    1.26    0.52
  -4  -8  -5    1.63    0.81
  -4  -8  -5    2.09    1.18
   4   8  -5    1.06    0.78
  -4  -8   5    0.88    0.75
  -4  -8  -5    1.52    0.55
  -4  -8  -5    1.51    0.53
  -4  -8   5    1.64    0.90
  -4  -8  -5    1.49    0.58
  -4  -8   5    1.45    0.81
   4  -8   5    1.29    0.44
   4   8   5    1.16    0.38
  -4   8   5    0.47    1.14
   4  -8  -5    1.56    0.77
   4   8   5    0.79    0.48
   4   9  -5  105.46    4.50
  -4  -9  -5  108.42    5.07
   4  -9  -5   99.77    4.24
   4   9   5  109.48    3.44
   4  -9   5  102.58    3.73
   4   9  -5  107.29    4.54
  -4  -9  -5  108.54    3.67
  -4  -9   5  107.11    4.66
  -4  -9  -5  103.64    3.44
  -4  -9   5  112.40    5.10
  -4  -9  -5  104.99    3.61
  -4  -9   5  120.41    4.92
   4   9   5  111.55    4.86
   4  -9   5  116.83    3.27
   4   9   5  112.61    3.04
  -4   9  -5  109.56    4.56
  -4   9   5  112.56    5.77
   4  -9  -5  104.21    4.32
   4   9   5  111.07    3.46
  -4   9   5  112.86    4.86
  -4   9  -5  107.32    4.54
   4  -9   5  109.20    3.83
  -4  -9   5  114.31    5.31
   4 -10   5   11.87    1.33
  -4 -10   5   13.13    1.91
   4  10  -5   15.39    1.76
   4  10   5   13.98    1.30
   4 -10  -5   13.73    1.63
  -4 -10  -5   14.20    1.41
  -4  10   5   14.23    1.83
  -4  10  -5   12.08    1.58
   4 -10   5   12.06    1.30
   4  10  -5   14.92    1.78
  -4 -10  -5   14.83    2.03
  -4 -10  -5   14.50    1.33
  -4 -10   5   12.82    1.73
  -4 -10  -5   13.35    1.34
   4 -10   5   13.53    1.19
  -4 -10   5   14.33    1.76
  -4 -10   5   12.95    1.85
   4  10   5   13.75    1.12
  -4  10  -5   13.95    1.69
   4  10   5   14.04    1.30
  -4  10   5   16.35    2.36
   4 -10  -5   15.17    1.70
   4  10   5   15.01    1.88
   4 -11  -5  292.41    8.01
   4  11   5  306.64    6.87
   4 -11   5  292.31    7.28
  -4 -11  -5  294.71    7.01
   4  11  -5  306.43    8.36
  -4 -11   5  308.94    8.69
  -4 -11  -5  307.67    6.96
  -4 -11  -5  305.33    7.12
  -4 -11   5  310.65    9.07
  -4 -11   5  292.94    8.49
   4  11   5  297.02    8.43
  -4  11  -5  301.19    7.50
   4  11   5  308.96    6.33
  -4  11   5  307.26   10.20
   4 -11  -5  288.31    7.95
   4  11   5  294.85    6.76
  -4  11   5  301.67    8.73
  -4  11  -5  306.77    7.94
   4 -11   5  300.68    7.35
  -4 -11   5  296.12    9.17
  -4  11  -5  310.15    8.06
   4  11  -5  313.03    8.44
  -4 -12   5    1.57    1.01
   4 -12   5    1.27    0.73
   4  12  -5    2.24    1.06
  -4  12  -5    2.41    0.89
   4 -12  -5    1.67    0.99
   4  12   5    2.23    0.75
  -4  12   5    2.68    1.19
   4 -12   5    1.28    0.65
   4  12  -5    3.13    1.05
  -4  12  -5    2.00    0.97
  -4 -12  -5    1.25    0.59
  -4 -12   5    2.31    0.97
  -4 -12  -5    3.29    0.89
  -4 -12  -5    2.89    0.82
  -4 -12   5    2.46    1.05
  -4 -12   5    1.58    0.95
   4  12   5    2.37    0.67
  -4  12   5    3.56    1.56
   4 -12  -5    2.40    0.94
   4  12   5    3.33    0.84
   4  12   5    3.99    1.26
  -4  12  -5    3.50    1.13
   4  13   5  222.74    6.20
   4 -13  -5  221.98    7.15
   4  13  -5  223.46    7.39
   4 -13   5  212.85    6.53
  -4 -13  -5  227.36    6.39
   4  13   5  230.17    7.40
  -4 -13   5  224.85    7.93
   4 -13  -5  223.71    6.59
  -4  13  -5  223.00    6.34
   4  13   5  224.34    5.82
  -4  13   5  223.94    8.96
   4  13   5  219.79    6.16
   4 -13  -5  217.90    7.08
  -4  13   5  216.99    7.72
  -4 -13   5  231.87    8.28
   4  13  -5  230.43    7.50
   4 -13   5  211.38    6.51
  -4  13  -5  230.49    6.76
  -4 -14   5    6.19    1.46
   4  14  -5    5.30    1.32
   4 -14   5    7.41    1.28
   4 -14  -5    6.63    1.15
  -4  14  -5    7.31    1.25
   4  14   5    8.19    1.23
   4  14  -5    3.86    1.15
   4 -14   5    7.30    1.32
  -4  14  -5    6.26    1.27
  -4 -14   5    8.66    1.71
  -4  14  -5    6.67    1.16
  -4  14   5    8.03    1.89
   4  14   5    6.29    1.08
  -4  15  -5  124.76    5.30
   4  15   5  127.59    4.95
   4  15  -5  131.77    5.91
  -4 -15   5  125.26    6.13
  -4  15  -5  128.86    5.38
  -4  15   5  141.00    7.31
   4  15   5  125.29    4.89
   4  15  -5  128.08    5.81
  -4 -15   5  124.52    6.25
  -4  16  -5    2.92    1.13
  -4 -16   5    1.16    1.12
  -4  16  -5    2.07    1.04
  -4  16   5    1.77    1.45
  -4  17  -5  298.43    9.01
  -4 -17   5  289.91   10.06
  -4  17  -5  294.16    8.93
  -4 -18   5    1.07    1.08
   5   0  -5    0.39    0.93
  -5   0   5    0.15    0.81
   5   0   5   -0.17    0.77
   5   0   5   -0.55    0.39
  -5   0   5    1.07    0.65
   5   0   5    0.54    0.40
   5   0  -5   -0.78    0.79
  -5   0  -5    2.26    1.22
   5   0   5    0.00    0.31
  -5   0  -5    1.37    0.85
   5   0  -5   -0.09    0.73
  -5   0   5    0.41    0.83
  -5   0   5    0.28    0.76
   5   0   5    0.25    0.33
  -5   0  -5    0.43    0.19
  -5  -1  -5  293.36    4.26
  -5   1   5  302.02    8.81
  -5  -1  -5  314.34    8.39
   5   1   5  313.51    5.51
   5   1   5  312.17    5.63
   5  -1   5  312.05    5.68
   5  -1   5  327.89    5.87
   5   1  -5  315.22    8.09
   5  -1  -5  312.80    8.13
   5   1   5  316.96    5.54
   5  -1   5  326.56    5.86
   5   1  -5  314.72    8.05
   5  -1  -5  305.71    8.04
  -5  -1   5  314.27    8.81
  -5   1   5  317.15    8.77
   5  -1   5  314.08    8.56
   5   1   5  313.30    8.64
  -5   1   5  328.06    9.48
   5   1   5  305.61    5.60
  -5   1  -5  302.78    5.02
   5  -1   5  313.17    5.68
  -5  -1   5  307.58    6.43
  -5   1   5  306.84    6.94
   5   1  -5  311.57    8.98
   5  -1  -5  303.73    8.92
  -5  -1  -5  284.59    4.23
  -5   1  -5  311.57    8.67
  -5  -1  -5  299.06    8.62
  -5  -1   5  316.20    9.02
   5   2  -5    7.86    1.50
   5   2   5    8.73    0.78
   5  -2  -5    7.66    1.46
   5  -2   5    8.21    1.39
  -5  -2   5    9.12    1.55
  -5   2   5    9.47    1.62
   5   2   5    8.78    0.85
   5   2   5    8.24    1.50
   5  -2   5    8.27    0.79
  -5   2   5    9.07    1.22
   5   2  -5    6.11    1.20
   5   2   5    8.10    0.77
  -5   2  -5    9.68    1.60
   5  -2   5    7.81    0.83
  -5  -2  -5   10.09    1.80
   5  -2  -5    7.82    1.32
  -5  -2  -5    8.40    1.42
   5   2  -5    7.74    1.31
   5  -2   5    8.53    0.86
   5  -2  -5    7.96    1.31
  -5  -2   5    8.58    1.49
  -5   2   5    9.26    1.59
  -5   2  -5    8.66    0.83
   5   2   5    8.54    0.83
   5  -2   5    8.85    0.86
  -5  -2   5    9.50    0.97
  -5   2   5   12.37    1.95
  -5  -2  -5    6.89    0.67
  -5  -3  -5  113.08    5.10
   5   3   5  109.61    2.95
  -5   3   5  114.28    5.25
  -5  -3  -5  113.41    4.91
   5  -3  -5  111.24    4.52
   5   3  -5  119.47    4.78
   5  -3   5  108.75    3.20
   5  -3   5  113.41    3.43
   5   3   5  113.89    2.99
   5  -3  -5  115.76    4.81
   5   3  -5  117.44    4.73
   5  -3   5  113.71    3.43
   5  -3  -5  113.39    4.76
  -5  -3   5  109.40    5.01
   5  -3   5  109.73    4.85
  -5   3   5  103.86    4.90
   5  -3  -5  113.54    4.56
   5   3   5  109.13    4.95
  -5   3   5  111.09    5.39
  -5   3  -5  112.52    3.27
  -5  -3   5  109.69    3.16
  -5   3   5  107.44    4.12
   5  -3   5  113.37    3.26
   5   3  -5  117.51    5.34
   5  -3  -5  118.07    5.34
  -5   3  -5  110.51    4.93
  -5  -3   5  109.46    5.16
   5   4  -5    9.88    1.73
   5  -4  -5    6.52    1.46
  -5  -4   5   10.03    1.73
  -5   4   5    9.10    1.59
   5  -4  -5    8.23    1.30
   5  -4   5    9.53    1.00
   5   4   5   10.11    1.63
  -5   4   5   11.28    1.46
   5   4  -5    8.59    1.42
   5   4   5   10.43    0.90
  -5   4  -5    6.52    1.38
  -5  -4  -5    8.47    1.74
  -5  -4  -5    8.55    1.46
   5   4  -5    7.11    1.27
   5  -4  -5    8.52    1.46
   5  -4   5    8.52    0.98
   5  -4  -5    7.19    1.36
   5  -4   5    8.73    1.03
  -5  -4   5    8.61    1.53
  -5   4   5    6.69    1.42
   5  -4  -5    7.88    1.29
  -5  -4   5   10.18    0.88
   5  -4   5    9.48    0.99
  -5   4  -5    7.27    1.01
  -5   4   5   11.96    2.01
   5   4   5    9.69    0.89
   5  -4   5    9.51    1.58
  -5   5   5  638.01   13.95
  -5  -5  -5  640.24   13.85
   5   5  -5  628.51   12.63
   5  -5  -5  623.63   12.40
   5  -5   5  640.70   10.30
   5   5   5  656.03    9.78
   5  -5  -5  642.01   12.95
   5   5  -5  638.15   12.71
   5  -5   5  656.97   10.86
  -5  -5   5  633.58   12.91
   5  -5   5  656.03   13.22
  -5  -5   5  665.16   13.78
   5  -5  -5  642.84   12.98
  -5   5   5  660.78   13.65
   5  -5   5  661.83   10.88
  -5  -5   5  624.44   12.86
   5   5   5  620.13   13.37
   5  -5  -5  631.11   12.46
  -5   5   5  659.25   14.74
  -5   5   5  638.93   12.27
  -5  -5   5  627.07    8.74
   5  -5   5  651.54   10.38
   5   5   5  668.65    9.81
  -5  -5   5  669.57   14.22
  -5   5  -5  636.98   13.16
  -5  -5  -5  641.87   13.34
  -5  -6   5   17.38    2.23
  -5  -6   5   16.53    0.80
   5   6  -5   18.02    1.94
   5  -6  -5   17.46    1.86
   5   6   5   17.28    2.06
   5  -6   5   18.99    1.48
   5   6   5   17.92    1.29
   5   6  -5   18.81    1.94
  -5   6  -5   20.25    2.22
   5  -6  -5   18.34    2.07
  -5  -6  -5   21.05    2.44
   5  -6   5   18.54    1.55
  -5  -6  -5   18.74    1.11
  -5  -6   5   15.46    1.83
   5  -6  -5   20.93    2.12
  -5  -6   5   16.72    2.10
  -5  -6   5   16.90    1.93
  -5   6   5   15.16    1.96
   5  -6  -5   18.58    1.94
  -5   6   5   16.90    1.88
  -5   6   5   19.13    2.47
   5  -6   5   15.54    1.36
   5   6   5   18.00    1.28
   5   7  -5   36.99    2.72
   5  -7  -5   39.57    2.76
   5  -7   5   36.13    2.14
   5   7   5   37.39    1.95
   5   7  -5   36.75    2.72
  -5  -7   5   40.51    2.96
   5  -7  -5   36.26    2.80
  -5  -7  -5   38.77    1.79
   5  -7   5   37.26    1.39
  -5  -7   5   39.97    3.12
  -5  -7   5   38.72    2.91
  -5   7   5   40.15    3.12
   5  -7  -5   37.68    2.85
   5   7   5   38.87    3.04
   5  -7  -5   35.70    2.62
  -5   7   5   37.98    3.40
  -5   7   5   38.44    2.81
   5  -7   5   37.10    2.14
   5   7   5   38.55    1.97
  -5  -7   5   39.50    3.27
  -5   7  -5   38.82    2.92
  -5  -8   5   12.07    1.93
   5   8  -5    8.46    1.47
   5   8   5   11.81    1.81
   5  -8  -5    9.82    1.51
   5   8   5   11.38    1.13
  -5   8   5    9.60    1.53
   5  -8   5   10.57    1.23
  -5   8  -5   11.62    1.78
   5   8  -5    9.77    1.52
  -5  -8   5   12.14    1.72
  -5  -8  -5    8.79    1.11
   5  -8  -5   10.02    1.65
  -5  -8  -5    9.34    1.02
  -5  -8   5   12.59    1.75
  -5  -8   5   11.87    1.91
  -5  -8  -5    9.23    1.19
   5  -8  -5    8.19    1.44
   5  -8  -5    9.51    1.50
  -5   8   5   12.16    2.00
   5  -8   5   11.99    1.29
   5   8   5   10.96    1.13
  -5   9  -5  361.10    9.31
   5   9  -5  370.45    9.61
   5  -9  -5  353.62    9.13
   5  -9   5  366.86    8.10
   5   9   5  367.82    7.52
   5   9  -5  363.64    9.56
  -5  -9   5  379.18    9.79
  -5  -9  -5  369.85    7.94
  -5  -9  -5  357.39    7.24
  -5  -9   5  374.46   10.29
  -5  -9   5  360.68    9.63
  -5  -9  -5  369.40    7.95
   5   9   5  366.30    9.90
  -5   9   5  372.56   11.23
   5  -9  -5  345.07    9.05
  -5   9   5  364.60    9.62
   5  -9   5  360.84    8.05
   5   9   5  373.10    7.56
  -5  -9   5  380.80   10.66
   5 -10   5    0.52    0.50
  -5 -10   5    0.86    1.04
   5  10  -5    3.83    1.19
   5  10   5    3.27    1.17
   5 -10  -5    4.07    1.04
  -5  10   5    2.20    0.94
   5  10   5    2.00    0.63
   5 -10   5    1.43    0.65
   5  10  -5    2.21    0.86
  -5  10  -5    3.06    1.11
  -5 -10   5    1.57    0.96
  -5 -10  -5    3.45    0.87
  -5 -10  -5    3.25    0.80
  -5 -10   5    4.15    1.18
  -5 -10  -5    3.14    0.93
  -5 -10   5    4.33    1.38
  -5  10   5    2.58    1.41
   5 -10  -5    2.70    1.10
   5  10   5    2.24    0.61
  -5  11  -5  121.85    5.13
   5 -11  -5  116.44    5.12
   5  11   5  112.36    4.13
   5 -11   5  106.37    4.38
   5  11  -5  115.52    5.30
  -5 -11  -5  123.39    4.23
  -5 -11   5  116.00    5.69
   5  11   5  110.05    5.23
  -5  11   5  112.21    6.18
   5 -11  -5  119.61    5.20
  -5  11   5  117.24    5.45
   5  11   5  112.39    4.12
   5 -11   5  108.82    4.42
  -5 -11   5  117.57    5.88
   5  11  -5  119.78    5.38
   5  12   5   25.41    2.03
   5 -12   5   22.94    2.08
   5  12  -5   25.76    2.59
  -5 -12  -5   29.93    2.18
  -5  12  -5   27.83    2.37
   5  12   5   25.04    2.54
  -5 -12   5   24.49    2.67
  -5  12   5   30.65    3.40
  -5  12   5   27.20    2.73
   5  12   5   25.28    2.01
   5 -12   5   25.75    2.19
  -5 -12   5   28.25    2.99
   5  12  -5   27.03    2.63
   5  13   5  238.82    6.70
   5 -13   5  227.58    7.05
   5  13  -5  240.53    8.11
  -5 -13  -5  233.08    6.63
  -5 -13   5  238.01    8.52
   5  13   5  223.31    7.73
  -5  13  -5  234.11    7.14
  -5  13   5  240.73    9.49
   5  13   5  238.24    6.69
   5 -13   5  230.22    7.06
  -5 -13   5  232.86    8.71
   5  13  -5  228.73    7.91
   5  14   5    1.10    1.04
  -5 -14  -5    2.52    0.90
  -5 -14   5    3.40    1.38
  -5  14   5    0.86    1.23
  -5 -15   5  250.27    9.15
   5  15   5  235.79    8.03
  -5  15   5  265.99   10.28
  -5 -16   5   10.12    1.95
  -6   0   5   14.90    2.05
   6   0   5   14.81    1.27
   6   0   5   16.35    1.35
   6   0   5   16.00    2.13
   6   0  -5   11.82    1.73
   6   0   5   16.50    1.34
   6   0  -5   11.73    1.76
  -6   0   5   18.58    2.30
  -6   0   5   16.81    2.29
   6   0   5   14.30    1.28
  -6   0   5   16.93    1.65
  -6   1   5  247.51    8.27
  -6  -1  -5  215.44    3.54
  -6  -1  -5  238.61    7.76
   6   1   5  247.84    5.71
   6   1   5  253.16    5.60
   6  -1   5  248.09    5.75
   6  -1   5  262.21    5.87
   6   1  -5  247.72    7.65
   6  -1  -5  233.67    7.50
   6   1   5  255.01    5.62
   6  -1   5  251.05    5.75
   6   1  -5  238.78    7.52
   6  -1  -5  231.22    7.48
  -6  -1   5  252.60    8.32
  -6   1   5  252.51    8.21
   6   1   5  248.04    5.71
  -6   1   5  261.08    8.74
   6  -1   5  252.46    8.12
   6  -1   5  250.80    5.78
   6   1   5  243.93    8.12
  -6  -1   5  251.44    6.27
  -6   1   5  241.43    6.57
  -6  -1   5  260.98    8.50
  -6  -2   5    8.95    1.71
  -6   2   5   10.20    1.80
   6   2   5    8.54    1.02
   6  -2   5   10.60    1.76
   6  -2   5    8.85    1.14
  -6   2   5    9.07    1.35
   6   2   5    7.89    0.93
   6   2   5   11.67    1.93
   6   2  -5    6.05    1.37
   6  -2   5    8.53    1.08
   6  -2  -5    7.36    1.40
   6   2   5    8.89    0.97
   6   2  -5    7.82    1.42
   6  -2   5    9.26    1.08
   6  -2  -5    7.44    1.50
  -6  -2   5   10.49    1.87
  -6   2   5    8.73    1.64
  -6  -2   5   10.12    1.22
   6   2   5    9.11    1.04
  -6   2  -5    7.01    0.45
  -6   2   5    8.64    1.94
   6  -2   5    8.37    1.03
  -6  -2  -5    8.40    0.76
  -6   3   5  370.82   10.41
   6   3   5  355.13    7.05
   6  -3   5  353.79    7.40
   6   3  -5  375.23    9.70
   6  -3   5  362.57    7.59
   6  -3  -5  369.17    9.88
   6   3   5  360.70    7.10
   6   3  -5  387.32    9.82
   6  -3   5  375.05    7.68
   6  -3  -5  376.83   10.00
  -6  -3   5  353.68   10.07
  -6   3   5  372.09   10.25
   6  -3   5  357.58    9.83
  -6   3   5  369.65   10.75
  -6  -3   5  357.90    7.34
   6   3   5  351.03   10.07
  -6   3   5  357.19    8.71
   6  -3   5  347.65    7.36
  -6   3  -5  361.70    5.83
  -6  -3  -5  367.08    6.58
  -6  -3   5  347.37   10.24
   6   4   5   18.54    1.42
  -6   4   5   19.79    2.40
   6  -4  -5   23.81    2.31
   6   4  -5   22.30    2.28
   6  -4   5   17.57    1.49
   6   4   5   17.71    1.41
   6  -4  -5   27.59    2.59
   6  -4   5   20.07    1.64
   6   4  -5   27.51    2.56
   6  -4  -5   26.18    2.52
   6  -4   5   20.44    1.64
   6  -4   5   22.24    2.35
  -6  -4   5   18.45    2.26
   6  -4  -5   24.34    2.33
  -6   4   5   18.17    2.27
  -6  -4   5   18.54    1.41
  -6   4   5   18.56    1.93
   6   4   5   20.03    2.40
   6  -4   5   17.84    1.51
  -6   4   5   20.51    2.54
  -6  -4  -5   25.61    1.62
  -6  -4   5   20.37    2.47
  -6  -5   5   13.24    1.90
   6  -5   5   12.42    1.91
  -6   5   5   11.98    1.95
   6   5   5    9.07    1.08
   6  -5  -5    9.16    1.46
  -6   5   5   11.52    1.62
   6  -5   5    9.79    1.20
   6   5  -5    8.41    1.49
   6   5   5    8.87    1.85
   6   5   5   10.33    1.12
   6   5  -5    8.14    1.47
   6  -5  -5    8.23    1.48
   6  -5   5    9.76    1.22
   6  -5  -5    9.83    1.72
   6  -5   5    9.45    1.23
  -6  -5   5   10.76    1.77
  -6   5   5   11.49    1.78
  -6  -5   5   10.46    0.98
   6  -5  -5    7.88    1.34
  -6   5   5    8.38    1.81
  -6  -5  -5    8.99    1.10
   6  -5   5   10.58    1.23
   6  -6   5   11.07    1.76
  -6  -6   5   10.63    1.84
  -6   6   5   10.42    1.84
   6   6   5    9.24    1.07
   6  -6  -5   10.11    1.51
   6   6  -5    9.86    1.61
  -6   6   5    9.98    1.53
   6  -6   5   11.47    1.33
   6   6   5   10.60    1.18
   6   6   5   10.92    1.87
   6   6  -5   11.29    1.70
   6  -6  -5   10.99    1.76
   6  -6   5    9.61    1.27
  -6  -6   5    8.43    1.59
   6  -6   5   13.37    1.51
   6  -6  -5    8.86    1.58
  -6  -6   5    9.51    1.74
  -6  -6   5    9.36    1.63
  -6   6   5   13.50    1.97
  -6  -6   5    9.96    0.89
   6  -6  -5   11.26    1.66
  -6   6   5   13.50    2.15
   6  -6   5   10.03    1.28
   6   7  -5  434.43   10.86
   6  -7  -5  425.09   10.53
   6  -7   5  425.38    9.06
   6   7   5  433.52    8.50
   6   7  -5  417.83   10.71
   6  -7  -5  427.91   11.07
  -6  -7   5  408.87   10.76
   6  -7   5  445.18    9.46
   6  -7   5  434.58   10.84
  -6  -7   5  430.96   11.52
   6  -7  -5  442.98   11.26
  -6   7   5  434.67   11.44
  -6  -7   5  428.64   10.99
   6  -7   5  446.33    9.46
   6  -7  -5  409.53   10.37
  -6   7   5  448.39   12.43
   6   7   5  417.55   11.28
  -6   7   5  441.10   10.72
   6  -7   5  428.18    9.07
   6   7   5  441.77    8.55
  -6  -7   5  430.73   11.96
  -6  -8   5   18.58    2.55
   6   8  -5   13.73    1.96
   6  -8  -5   12.87    1.85
   6  -8   5   14.61    1.58
  -6   8   5   13.92    1.84
   6   8   5   14.48    1.44
   6   8   5   17.41    2.26
   6   8  -5   12.35    1.85
   6  -8   5   17.55    2.14
   6  -8  -5   13.11    1.97
  -6  -8   5   10.61    1.82
   6  -8  -5   14.06    2.02
   6  -8  -5   11.75    1.73
   6  -8   5   14.05    1.57
  -6   8   5   16.52    2.68
   6   8   5   15.63    1.49
   6   9  -5   62.64    3.95
   6  -9   5   56.57    3.15
   6   9   5   56.32    2.90
   6   9  -5   66.22    4.05
   6  -9  -5   65.85    4.12
  -6  -9   5   56.83    4.06
   6  -9  -5   61.85    4.03
  -6   9   5   64.35    4.67
   6   9   5   57.41    3.99
  -6   9   5   59.54    3.88
   6  -9   5   55.39    3.12
   6   9   5   55.70    2.86
  -6  -9   5   64.63    4.50
  -6 -10   5   24.86    2.89
   6  10  -5   19.28    2.26
   6 -10   5   21.81    2.02
   6  10   5   18.88    1.73
   6  10  -5   18.21    2.26
  -6 -10   5   23.85    2.81
   6 -10  -5   19.53    2.37
   6 -10  -5   19.41    2.40
   6  10   5   25.22    2.71
  -6  10   5   21.78    2.46
  -6  10   5   24.29    2.96
   6 -10   5   22.87    2.08
   6  10   5   23.05    1.91
   6  11  -5  284.19    9.08
   6 -11   5  266.98    7.66
   6  11  -5  287.72    9.16
  -6 -11   5  274.22    9.41
  -6  11   5  284.85   10.28
  -6  11   5  286.26    9.14
   6 -11   5  273.85    7.75
  -6  12  -5    0.57    0.75
  -6 -12   5    0.77    1.19
  -6  12   5    1.08    1.41
  -6 -13   5  189.74    7.88
  -6  13   5  201.62    8.81
  -6 -14   5   24.07    2.94
  -7   0   5    0.33    0.97
   7   0   5    0.02    0.50
  -7   0   5    0.65    0.57
   7   0   5    0.42    0.46
   7   0  -5    0.44    0.84
   7   0   5   -0.51    1.11
   7   0   5    0.50    0.58
   7   0  -5   -0.54    1.04
  -7   0   5    3.02    1.52
   7   0   5   -0.04    0.57
  -7   1   5  215.21    8.15
   7   1   5  200.04    5.76
   7  -1   5  205.51    5.79
   7   1   5  197.92    5.60
   7  -1   5  207.08    5.81
   7   1  -5  194.66    7.26
   7  -1  -5  208.33    7.56
   7   1   5  203.75    5.67
   7  -1   5  212.85    5.86
   7   1  -5  204.93    7.41
   7  -1  -5  194.22    7.34
  -7  -1   5  206.92    7.94
  -7   1   5  204.88    7.85
   7   1   5  205.09    5.82
  -7   1   5  197.35    7.91
  -7  -1   5  209.52    6.33
   7  -1   5  202.58    5.75
  -7   1   5  215.31    6.71
   7  -1   5  210.52    7.95
   7   1   5  212.08    8.04
  -7  -1   5  187.61    7.72
  -7  -2   5   21.16    2.64
  -7   2   5   20.41    2.50
   7   2   5   19.50    1.70
   7   2   5   19.99    1.69
   7  -2   5   21.55    1.80
   7   2  -5   24.99    2.61
   7  -2   5   21.39    1.81
   7  -2  -5   26.82    2.64
   7   2   5   21.24    1.73
   7   2  -5   24.93    2.57
   7   2   5   19.41    2.52
   7  -2   5   20.40    1.79
   7  -2  -5   24.33    2.57
  -7  -2   5   23.17    2.70
   7   2   5   20.38    1.72
  -7   2   5   18.47    2.39
  -7  -2   5   21.44    1.93
  -7   2   5   20.52    2.06
   7  -2   5   20.76    1.78
   7  -2   5   25.71    2.84
  -7   2   5   21.92    2.70
  -7   3   5   69.32    4.61
   7   3   5   70.33    3.17
   7  -3   5   70.12    3.32
   7   3  -5   63.72    4.12
   7  -3   5   70.38    3.39
   7  -3  -5   69.15    4.33
   7   3   5   67.39    3.12
   7   3  -5   67.81    4.23
   7  -3   5   72.26    3.43
   7  -3  -5   75.13    4.48
  -7  -3   5   70.68    4.56
  -7   3   5   68.33    4.49
  -7  -3   5   75.53    3.46
  -7   3   5   72.60    4.76
   7  -3   5   70.53    4.48
  -7   3   5   72.40    3.95
   7  -3   5   71.49    3.35
   7   3   5   74.56    4.72
  -7  -3   5   69.23    4.65
   7   4   5   14.48    1.46
  -7  -4   5   16.97    2.48
  -7   4   5   17.02    2.34
  -7   4   5   14.04    1.89
   7  -4   5   14.09    1.50
   7  -4   5   12.61    2.09
   7   4  -5   12.91    1.97
   7   4   5   14.29    1.44
   7  -4   5   12.76    1.48
   7  -4  -5   14.95    2.05
   7   4  -5   15.55    2.13
   7  -4   5   13.77    1.54
   7  -4  -5   13.02    2.03
  -7  -4   5   15.66    2.30
  -7   4   5   14.13    2.15
  -7  -4   5   15.76    1.55
  -7   4   5   14.57    2.42
   7  -4   5   14.57    1.53
   7   5   5  390.99    8.50
   7   5  -5  405.00   10.95
   7  -5   5  391.35    8.95
   7   5   5  398.41    8.59
   7  -5  -5  422.77   11.36
   7  -5   5  402.90    9.19
   7   5  -5  388.06   10.77
  -7  -5   5  396.79   11.46
   7  -5  -5  400.43   11.09
   7  -5   5  411.91    9.25
  -7   5   5  395.16   11.28
   7  -5   5  419.53   11.26
  -7   5   5  407.93   11.93
  -7   5   5  399.73   10.37
   7  -5   5  388.92    8.92
  -7  -5   5  390.59   11.66
   7   6   5   12.75    1.41
   7  -6   5   14.65    2.23
  -7   6   5   14.43    1.93
   7   6  -5   11.99    1.90
   7  -6   5   11.37    1.43
   7   6   5   11.15    1.36
   7   6  -5   11.22    1.88
   7  -6  -5   11.38    1.94
   7  -6   5   13.75    1.61
   7  -6  -5   12.84    2.02
   7  -6   5   12.25    1.53
  -7  -6   5   12.03    1.99
  -7   6   5   11.07    1.87
  -7   6   5   11.86    2.20
   7  -6   5   11.32    1.48
   7  -7   5   11.33    1.85
  -7   7   5    7.07    1.47
   7   7  -5    7.97    1.56
   7  -7   5    6.99    1.13
   7   7  -5    8.78    1.69
   7  -7  -5    7.99    1.68
   7  -7   5   11.39    1.52
   7  -7  -5    7.96    1.65
   7  -7   5    8.96    1.37
  -7  -7   5    6.03    1.64
  -7   7   5    5.84    1.57
  -7   7   5    8.39    1.89
   7  -7   5    8.91    1.33
   7  -8   5   13.66    2.04
   7   8  -5   13.43    1.98
  -7   8   5   19.00    2.38
   7  -8   5   17.88    1.94
   7   8  -5   13.88    2.05
   7  -8  -5   16.57    2.26
   7  -8   5   19.41    2.06
   7  -8  -5   14.71    2.19
  -7  -8   5   16.82    2.34
  -7   8   5   19.21    2.48
  -7   8   5   18.43    2.65
   7   9  -5  369.34   10.79
   7   9  -5  378.90   10.93
   7  -9  -5  377.48   11.07
   7  -9   5  374.40    9.49
   7  -9   5  366.00   10.33
  -7  -9   5  377.92   11.42
   7  -9  -5  387.52   11.20
   7  -9   5  386.18    9.62
  -7   9   5  372.05   11.98
  -7   9   5  365.96   10.71
  -7 -10   5    9.23    2.03
  -7  10   5    9.66    2.11
  -7 -11   5   77.21    5.09
  -7  11   5   79.37    5.47
  -7 -12   5   25.96    3.15
   8   0  -5   43.04    3.57
   8   0  -5   43.89    3.60
  -8   0   5   37.45    3.56
  -8   0   5   39.02    3.00
   8   1  -5  123.75    6.16
   8  -1  -5  125.98    6.23
   8   1  -5  113.00    5.86
   8  -1  -5  117.52    6.04
  -8  -1   5  122.08    6.49
  -8   1   5  124.89    6.50
  -8  -1   5  117.10    5.13
  -8   1   5  121.01    6.39
  -8   1   5  125.93    5.52
  -8  -2   5    1.04    0.68
  -8   2   5    1.84    1.05
   8   2  -5    1.00    1.14
   8  -2  -5   -0.22    1.11
   8   2  -5    1.27    1.05
   8  -2  -5   -1.61    1.51
  -8  -2   5    1.78    1.29
  -8   2   5    1.08    1.27
  -8   2   5    2.68    1.50
   8   3  -5  282.86    9.50
   8  -3  -5  293.30    9.81
   8   3  -5  284.55    9.55
   8  -3  -5  284.54    9.69
  -8  -3   5  289.80   10.19
  -8   3   5  299.35   10.27
  -8   3   5  318.17   10.68
  -8   3   5  307.35    9.21
   8  -4  -5   18.33    2.45
   8  -4  -5   15.27    2.14
  -8  -4   5   21.30    2.78
  -8   4   5   18.18    2.58
  -8   4   5   22.30    2.43
  -8   4   5   20.54    2.79
  -8   5   5    7.53    1.55
  -8  -5   5   10.20    2.00
  -8   5   5    9.87    1.98
  -8   5   5   12.20    2.26
  -8   6   5   18.76    2.30
  -8  -6   5   19.60    2.67
  -8   6   5   18.20    2.60
  -8   6   5   23.37    2.95
  -8  -7   5  299.30   10.55
  -8   7   5  320.20   10.70
  -8   7   5  321.36   11.03
  -8   7   5  303.83    9.82
  -8  -8   5    1.08    1.09
  -8   8   5    1.23    1.34
  -8   8   5    4.32    1.67
  -9   1   5  213.69    7.95
  -9   2   5   27.75    2.83
  -9   2   5   33.68    3.62
  -9   3   5   29.57    3.01
  -9   3   5   26.38    3.20
   0   0  -6 1352.42   16.69
   0   0  -6 1340.95   20.87
   0   0  -6 1294.02   20.57
   0   0  -6 1311.13   17.76
   0   0  -6 1333.84   18.79
   0   1  -6    0.47    0.43
   0  -1  -6    1.32    0.77
   0   1  -6    1.44    0.93
   0  -1  -6   -0.08    0.80
   0   1  -6    0.74    0.50
   0  -1  -6    0.28    0.48
   0  -1  -6    0.18    0.37
   0  -1   6    0.65    0.45
   0   1  -6    2.68    1.14
   0  -1  -6    0.40    0.75
   0  -2  -6   26.95    1.51
   0  -2   6   33.63    1.58
   0   2  -6   26.19    2.34
   0  -2  -6   22.89    2.14
   0   2  -6   26.08    2.31
   0   2  -6   25.57    1.42
   0  -2  -6   27.63    2.34
   0  -2  -6   25.57    1.74
   0   2  -6   25.44    1.74
   0  -2  -6   30.69    2.16
   0  -3  -6    1.20    0.72
   0  -3   6    0.30    0.38
   0   3  -6    0.28    0.61
   0   3  -6   -0.03    0.31
   0  -3  -6    0.12    0.52
   0  -3  -6    0.63    0.82
   0  -3  -6    0.26    0.39
   0  -3   6    0.25    0.36
   0   3  -6   -0.22    0.78
   0  -3  -6   -0.02    0.73
   0   3  -6    0.34    0.47
   0  -4   6  706.48   10.72
   0   4  -6  664.77    8.33
   0  -4  -6  670.81   10.82
   0  -4   6  696.59   10.44
   0   4  -6  685.84   13.20
   0   4   6  685.65   13.11
   0   4  -6  683.37    8.99
   0   4  -6  670.64    8.33
   0  -4  -6  674.03   11.95
   0  -4  -6  687.39   13.35
   0  -4  -6  684.49   13.31
   0  -4  -6  684.19   12.62
   0  -5  -6    0.09    0.56
   0  -5   6    0.04    0.42
   0   5  -6    2.51    1.07
   0   5  -6    0.18    0.16
   0   5  -6    0.50    0.31
   0  -5  -6    0.82    0.70
   0  -5  -6    0.79    0.86
   0  -5   6    0.18    0.28
   0   5   6    0.70    0.72
   0  -5  -6    1.38    0.84
   0  -5  -6    0.52    0.52
   0  -5   6    0.61    0.30
   0  -5   6    0.33    0.37
   0   5   6    0.52    0.85
   0   5  -6    0.93    0.36
   0  -5  -6    0.31    0.67
   0  -6   6  198.83    4.77
   0   6   6  191.23    5.88
   0   6  -6  182.98    3.81
   0  -6  -6  151.97    2.72
   0  -6   6  190.90    4.16
   0  -6  -6  148.48    2.71
   0  -6   6  186.90    4.74
   0  -6  -6  175.80    4.99
   0  -6   6  192.97    4.17
   0  -6  -6  179.90    6.16
   0   6  -6  174.88    5.96
   0   6   6  187.91    6.21
   0  -6  -6  180.49    5.63
   0   6  -6  182.55    3.80
   0  -6  -6  180.14    6.22
   0  -6  -6  180.81    6.14
   0  -6  -6  181.91    6.01
   0  -7   6    0.14    0.35
   0  -7  -6    1.18    0.82
   0  -7  -6    0.38    0.86
   0   7  -6   -0.87    0.68
   0  -7  -6   -0.02    0.20
   0  -7  -6   -0.04    0.66
   0   7  -6    0.41    0.35
   0  -7   6    0.21    0.35
   0  -7  -6    0.19    0.25
   0   7   6   -0.54    0.73
   0  -7  -6    0.10    0.22
   0  -7   6    0.05    0.40
   0  -7  -6   -0.17    0.67
   0  -7   6    0.09    0.44
   0  -7  -6   -0.10    0.21
   0  -7  -6   -0.54    0.56
   0   7   6    0.23    0.65
   0   7  -6   -0.29    0.40
   0  -7  -6    0.72    0.73
   0  -8  -6  141.89    5.47
   0  -8  -6  135.39    3.15
   0   8   6  135.22    5.23
   0   8  -6  139.77    3.84
   0  -8   6  129.08    3.97
   0  -8  -6  136.09    3.16
   0  -8   6  126.19    3.94
   0  -8   6  139.85    4.46
   0  -8  -6  138.93    4.85
   0   8  -6  142.15    5.36
   0  -8  -6  143.73    5.47
   0   8   6  127.96    5.32
   0  -8  -6  139.74    5.23
   0   8  -6  141.59    3.86
   0  -8  -6  147.45    5.79
   0  -8  -6  139.04    5.39
   0  -8   6  131.37    4.06
   0  -9   6    0.80    0.61
   0  -9  -6    0.91    0.93
   0  -9  -6    0.37    0.75
   0   9  -6    2.29    1.01
   0  -9  -6    0.30    0.36
   0  -9  -6    0.40    0.67
   0   9  -6    0.48    0.50
   0  -9   6   -0.04    0.45
   0  -9  -6    0.54    0.41
   0   9   6    0.51    0.82
   0  -9   6    0.10    0.44
   0  -9   6   -0.07    0.47
   0  -9  -6   -0.31    0.55
   0  -9  -6   -0.17    0.74
   0   9   6    0.39    0.81
   0   9  -6    1.28    0.58
   0 -10  -6  461.56   11.07
   0 -10  -6  454.43    7.94
   0 -10  -6  459.95   10.65
   0  10   6  478.11   11.10
   0  10  -6  470.37    8.84
   0 -10   6  467.25    9.20
   0 -10  -6  465.70    8.01
   0 -10   6  462.69    9.14
   0 -10   6  452.79    9.70
   0 -10  -6  456.22   10.31
   0  10  -6  461.71   10.44
   0 -10  -6  463.18   10.67
   0  10   6  459.76   11.31
   0  10  -6  467.82    8.83
   0 -10   6  452.69    9.02
   0 -11   6    0.18    0.55
   0 -11  -6   -0.01    0.77
   0 -11  -6    0.08    0.78
   0  11  -6   -0.54    0.76
   0  11  -6    0.50    0.50
   0 -11   6    1.16    0.70
   0  11   6    1.50    1.04
   0 -11   6    0.46    0.64
   0 -11   6    0.02    0.53
   0 -11  -6    1.54    0.91
   0  11   6    0.15    0.87
   0  11  -6    0.89    0.50
   0 -12   6    4.61    0.97
   0 -12  -6    6.17    1.25
   0  12  -6    3.79    0.92
   0  12  -6    6.60    1.09
   0 -12   6    7.09    1.18
   0 -12  -6    5.17    1.03
   0  12   6    3.71    1.05
   0 -12   6    7.80    1.32
   0 -12   6    8.21    1.30
   0  12   6    6.96    1.53
   0  12  -6    5.39    1.01
   0 -13   6    0.29    0.57
   0 -13  -6    0.69    0.85
   0  13  -6   -0.09    0.52
   0  13  -6    0.43    0.69
   0 -13   6    0.99    0.70
   0  13   6    1.14    0.97
   0 -13   6    0.47    0.58
   0 -13   6   -0.03    0.61
   0 -13  -6   -0.94    0.79
   0  13   6    1.70    1.14
   0  13  -6    0.50    0.68
   0 -14   6  280.33    7.86
   0  14  -6  303.82    7.94
   0 -14   6  285.13    7.93
   0 -14   6  294.42    8.50
   0  14   6  296.39    9.96
   0  14  -6  299.78    8.19
   0  14  -6  305.23    7.93
   0 -14  -6  302.05    8.44
   0  15  -6    0.79    0.66
   0 -15  -6   -1.14    0.88
   0  15  -6   -0.45    0.85
   0 -15   6    0.87    0.74
   0  15   6   -0.54    1.06
   0  15  -6    0.16    0.64
   0  16  -6   48.73    3.27
   0 -16   6   46.28    3.46
   0  16   6   48.72    4.27
   0  16  -6   47.46    3.20
   0 -16  -6   47.67    3.27
   0 -17   6    1.15    1.07
   0  17   6    0.85    1.69
   0 -18   6  217.95    8.01
   0  18   6  216.66    9.70
   0 -19   6    0.64    0.99
   0  19   6    1.24    1.50
   1   0  -6    0.22    0.10
   1   0  -6    0.36    0.75
  -1   0  -6   -0.29    0.47
  -1   0  -6   -0.33    0.73
   1   0  -6    0.38    0.35
   1   0  -6    0.83    0.17
  -1   0  -6    0.58    0.43
   1   0  -6    0.16    0.09
  -1   0  -6    0.41    0.72
   1   0  -6    0.54    0.57
  -1   0   6    0.19    0.54
  -1   0  -6   -0.75    0.81
   1   0  -6    0.75    0.83
   1   0  -6    0.69    0.16
   1   0  -6   -0.87    0.94
  -1   1  -6    2.49    0.54
   1   1  -6    3.61    0.99
   1  -1  -6    2.72    0.91
  -1  -1  -6    3.68    0.78
  -1   1  -6    5.29    1.26
  -1  -1  -6    4.46    1.25
  -1  -1   6    4.37    0.89
   1   1  -6    4.00    0.65
   1  -1  -6    2.83    0.65
   1   1  -6    2.88    0.32
  -1  -1  -6    3.30    0.77
  -1   1  -6    2.27    0.62
   1   1  -6    2.92    0.30
   1   1  -6    3.74    1.13
  -1   1  -6    3.22    1.05
  -1  -1  -6    3.92    1.11
   1   1  -6    4.09    0.81
   1  -1  -6    3.08    0.71
  -1  -1   6    3.61    0.78
  -1   1   6    3.15    0.66
  -1   1  -6    3.36    1.00
   1  -1  -6    3.82    1.09
  -1  -1  -6    4.01    1.09
   1   1  -6    3.55    0.34
   1  -1  -6    2.89    1.04
   1  -2  -6  749.69    9.51
  -1  -2   6  913.97   13.90
  -1   2   6  913.05   13.51
   1   2  -6  915.09   10.48
   1  -2  -6  752.46    9.51
   1   2  -6  899.08   12.97
  -1  -2  -6  881.97   10.25
   1   2  -6  903.97   15.69
   1  -2  -6  883.67   13.42
   1  -2  -6  931.86   15.78
  -1  -2   6  877.52   13.24
  -1   2  -6  914.24   15.67
   1   2  -6  918.06   11.53
  -1  -2  -6  914.73   15.76
   1  -2  -6  893.24   13.29
  -1   2  -6  884.55   15.09
   1  -2  -6  899.00   16.03
  -1  -2  -6  907.19   14.99
  -1   2  -6  921.07   15.71
  -1  -2  -6  878.66   13.70
  -1   2  -6  873.73   12.45
   1   2  -6  910.55   10.49
  -1  -2  -6  908.48   15.70
  -1   2  -6  914.20   12.20
   1   2  -6  892.86   14.22
   1  -2  -6  901.01   15.02
  -1  -2  -6  872.47   13.51
   1  -3  -6    3.20    1.14
   1   3  -6    2.61    0.87
   1  -3  -6    2.97    1.01
  -1  -3  -6    1.38    0.59
  -1   3  -6    2.20    0.95
  -1  -3   6    1.93    0.71
   1   3  -6    2.04    0.38
  -1  -3  -6    2.38    1.00
   1  -3  -6    2.84    0.78
   1  -3  -6    1.02    0.21
  -1  -3  -6    3.24    0.93
   1   3  -6    1.98    0.39
  -1   3  -6    3.43    0.67
   1  -3  -6    1.18    0.21
  -1   3  -6    3.34    1.05
  -1   3   6    2.20    0.74
  -1  -3  -6    2.51    0.41
   1  -3  -6    1.37    0.61
  -1  -3   6    1.92    0.73
   1  -3   6   -0.13    0.07
  -1  -3  -6    4.13    1.25
  -1   3   6    2.61    1.18
  -1   3  -6    1.60    0.86
   1  -3  -6    3.23    1.14
  -1  -3  -6    0.75    0.72
   1   3  -6    2.14    0.39
  -1  -4   6  115.14    4.07
  -1   4   6  124.82    4.33
   1  -4  -6  112.67    2.45
   1   4  -6  117.60    2.85
   1  -4  -6  110.92    2.29
   1  -4  -6  113.52    2.45
  -1  -4  -6  114.71    2.94
   1  -4  -6  116.64    4.11
  -1  -4   6  119.12    3.96
   1  -4   6  120.19    2.51
  -1   4  -6  116.71    4.85
   1  -4  -6  116.18    4.80
  -1  -4  -6  116.28    4.85
   1  -4  -6  115.60    4.14
  -1   4   6  123.39    5.20
  -1   4  -6  107.76    4.57
  -1  -4  -6  116.42    4.57
  -1   4  -6  117.35    4.85
  -1  -4  -6  114.12    4.26
  -1   4  -6  116.00    3.12
   1   4  -6  118.11    2.85
   1  -4  -6  112.28    2.30
  -1  -4  -6  118.20    4.89
   1  -4  -6  120.98    4.82
  -1  -4  -6  102.22    4.05
   1  -5  -6    4.75    0.50
   1  -5  -6    4.11    1.02
  -1  -5  -6    4.07    0.92
  -1  -5   6    4.64    0.88
  -1  -5  -6    4.91    1.15
   1  -5  -6    3.64    1.01
   1  -5  -6    4.01    0.84
  -1  -5  -6    4.26    0.98
   1   5  -6    4.82    0.64
  -1   5  -6    4.79    0.61
   1  -5  -6    4.87    0.50
   1  -5  -6    4.42    0.54
  -1   5  -6    4.28    1.11
  -1   5   6    4.10    0.93
  -1  -5   6    4.31    0.67
  -1   5  -6    5.28    1.15
   1  -5  -6    4.43    0.54
  -1  -5  -6    4.48    0.65
   1  -5  -6    4.86    0.93
  -1  -5   6    4.64    0.74
  -1  -5   6    4.45    0.83
   1  -5   6    4.37    0.55
   1   5   6    4.36    1.13
  -1   5   6    5.87    1.35
  -1   5  -6    4.01    0.99
  -1  -5  -6    4.32    1.01
  -1  -5  -6    4.76    1.04
   1   5  -6    4.12    0.58
  -1  -6  -6  397.02    9.11
  -1   6   6  398.79    8.99
  -1  -6  -6  398.57    9.79
   1  -6   6  402.03    6.32
  -1   6  -6  404.68    6.17
   1   6  -6  397.77    7.01
   1  -6  -6  396.13    6.27
   1  -6   6  400.79    6.32
   1  -6  -6  409.91    6.79
  -1  -6   6  409.67    7.51
   1  -6   6  411.06    6.36
  -1  -6   6  404.28    8.42
   1  -6  -6  396.32    8.78
   1  -6   6  399.88    6.72
  -1  -6  -6  407.64    7.51
   1  -6  -6  406.53    6.77
  -1  -6   6  402.10    7.46
  -1   6  -6  402.55    9.64
   1  -6  -6  400.76    9.61
  -1  -6  -6  408.01    9.85
  -1   6  -6  401.68    6.15
   1  -6  -6  402.19    8.93
   1   6   6  416.44    9.24
  -1   6   6  392.01   10.03
  -1  -6  -6  390.91    9.30
  -1   6  -6  391.35    9.51
  -1  -6  -6  394.94    9.07
   1   6  -6  397.18    7.01
  -1   6  -6  401.28    6.14
   1  -6  -6  399.18    6.27
   1  -6  -6  404.81    9.83
  -1  -6   6  400.88    8.53
   1  -7  -6    1.22    0.46
  -1   7  -6    1.59    1.03
  -1  -7   6    1.21    0.65
   1  -7  -6    2.11    1.06
  -1  -7  -6    1.47    0.82
   1  -7   6    1.09    0.37
  -1  -7  -6    0.92    0.82
  -1  -7  -6    1.76    0.95
  -1   7  -6    0.99    0.42
   1  -7  -6    1.81    0.90
  -1  -7  -6    1.52    0.82
   1  -7  -6    1.83    0.96
   1   7  -6    1.25    0.53
  -1   7  -6    1.30    0.31
   1  -7  -6    1.38    0.47
   1  -7   6    1.05    0.39
  -1   7  -6    3.35    1.07
  -1   7   6    2.50    0.94
  -1  -7   6    0.82    0.56
   1  -7  -6    1.66    0.56
   1  -7   6    0.98    0.47
  -1  -7   6    1.41    0.58
   1  -7   6    1.86    0.56
  -1  -7   6    1.53    0.77
   1  -7  -6    1.07    0.51
   1  -7  -6    2.70    0.99
  -1  -7  -6    0.26    0.47
  -1   7  -6    1.76    0.49
   1   7   6    2.97    0.94
  -1   7   6    1.58    1.06
  -1  -7  -6    1.70    0.89
   1   7  -6    1.33    0.60
   1  -8   6  338.16    5.81
  -1   8   6  334.81    8.52
  -1  -8  -6  325.90    8.51
  -1  -8  -6  332.87    8.79
  -1   8  -6  336.05    6.28
  -1  -8  -6  326.52    5.11
   1  -8   6  351.58    6.58
   1   8  -6  329.24    6.77
   1  -8  -6  333.07    6.17
  -1  -8   6  334.44    7.31
  -1  -8  -6  321.45    5.09
   1  -8   6  345.63    6.54
   1  -8   6  349.26    6.88
  -1  -8   6  339.22    7.34
  -1  -8   6  339.01    8.00
   1  -8  -6  323.94    8.32
  -1  -8  -6  332.61    7.45
  -1   8  -6  339.33    8.63
   1  -8  -6  333.34    8.43
  -1   8  -6  336.15    6.27
   1   8   6  337.52    8.38
  -1   8   6  332.39    9.32
  -1  -8  -6  334.22    8.82
   1  -8  -6  351.01    8.84
  -1  -8  -6  339.46    8.65
  -1  -8  -6  328.71    8.47
  -1   8  -6  344.01    8.67
  -1   8  -6  298.29    4.38
   1   8  -6  335.81    6.80
   1  -8  -6  327.50    6.13
  -1  -8   6  332.49    7.80
   1  -8  -6  328.95    9.10
   1  -9  -6    7.98    0.91
  -1  -9   6   10.16    1.37
   1  -9  -6    7.75    1.36
   1  -9   6    6.96    0.76
  -1   9  -6    7.39    1.38
   1  -9  -6    4.99    1.10
  -1  -9  -6    8.84    1.45
  -1  -9  -6    7.54    0.73
   1  -9  -6    6.24    1.21
  -1   9  -6    8.70    0.98
  -1  -9  -6    9.93    1.63
  -1  -9  -6    5.81    1.17
   1   9  -6    7.30    1.03
   1  -9   6    8.31    0.99
   1  -9  -6    7.40    0.92
  -1  -9  -6    6.61    1.39
  -1  -9  -6    8.28    0.76
  -1  -9   6    5.81    0.89
  -1   9   6    7.92    1.42
   1   9  -6    8.89    1.53
   1  -9  -6    6.47    1.25
   1  -9   6    7.00    0.95
  -1   9  -6    8.00    1.36
   1   9   6    8.17    1.47
  -1  -9   6    6.29    0.98
   1  -9   6    6.67    0.98
  -1  -9   6    6.48    1.20
   1  -9  -6    8.45    1.39
  -1  -9  -6    8.48    1.26
  -1   9  -6    6.64    0.90
   1   9   6    5.41    1.16
  -1   9   6    7.42    1.57
  -1  -9  -6    7.06    1.37
   1   9  -6    6.35    0.96
   1 -10  -6   93.77    4.78
  -1 -10  -6   96.56    4.61
   1  10   6   87.64    4.47
  -1  10  -6   91.88    3.36
   1 -10   6   89.44    3.42
   1  10  -6   95.97    3.64
  -1 -10  -6   94.51    4.50
  -1 -10   6   92.26    3.85
   1 -10  -6   93.74    3.24
   1 -10   6   94.04    3.50
  -1 -10   6   95.53    3.92
   1 -10   6   89.29    3.64
   1  10  -6   84.55    4.22
  -1 -10   6   89.27    4.12
   1 -10  -6   87.58    4.33
  -1 -10  -6   89.61    3.96
  -1  10  -6   91.05    4.28
   1 -10  -6   91.26    4.34
   1  10   6   91.90    4.40
  -1  10  -6   92.10    3.36
  -1  10   6  101.70    5.22
  -1 -10  -6   94.86    4.51
   1  10  -6   91.69    3.58
  -1  10  -6   85.56    4.15
   1 -10  -6   87.38    4.26
   1 -10  -6   89.39    3.17
  -1 -10   6   92.06    4.07
   1 -10   6   91.09    2.91
  -1  10   6   90.98    4.46
  -1 -11   6    2.65    0.98
   1 -11   6    2.14    0.57
   1 -11  -6    1.38    0.60
  -1 -11  -6    0.97    1.02
  -1  11  -6    1.01    0.82
   1 -11  -6    1.37    0.86
  -1  11  -6    2.25    0.73
  -1 -11  -6    2.68    1.05
   1 -11   6    1.59    0.73
   1  11  -6    1.22    0.74
   1 -11  -6    1.66    0.62
  -1 -11   6    3.60    1.02
  -1  11   6    2.38    1.06
   1 -11   6    1.87    0.64
   1  11   6    2.04    0.99
  -1 -11   6    2.04    0.77
  -1  11  -6    2.73    1.03
   1 -11   6    2.95    0.87
  -1 -11   6    2.57    0.94
   1 -11  -6    2.55    1.00
  -1  11  -6    2.18    0.76
   1  11   6    1.99    1.01
  -1  11   6    2.88    1.39
  -1 -11  -6    1.73    0.98
   1  11  -6    1.25    0.76
   1  11  -6    2.68    1.07
   1  12   6  378.65   10.28
   1  12   6  379.64    7.78
   1 -12   6  368.83    8.41
  -1  12  -6  389.89    8.38
   1  12  -6  383.85    8.66
  -1 -12   6  369.64    8.94
   1 -12   6  373.41    8.47
  -1 -12   6  379.39    9.01
   1 -12   6  391.56    8.95
  -1 -12   6  392.44    9.77
  -1  12  -6  372.47    9.27
   1  12   6  382.50    7.78
   1 -12  -6  382.27    9.55
  -1  12  -6  382.24    8.30
   1  12   6  367.30    9.98
  -1  12   6  379.15   11.21
   1  12  -6  382.19    8.65
  -1 -12  -6  374.20    9.69
  -1  12  -6  370.72    9.21
  -1 -12   6  390.79    9.53
   1 -12  -6  385.86    9.55
  -1  12   6  362.46   10.04
  -1 -13   6    2.76    0.96
   1 -13  -6    2.41    1.04
  -1  13  -6    2.21    1.05
   1 -13  -6    4.11    1.06
  -1  13  -6    2.59    0.87
   1 -13   6    4.11    0.96
   1  13  -6    2.94    0.88
  -1 -13  -6    3.81    1.13
  -1 -13   6    3.03    0.94
  -1  13   6    3.79    1.24
   1 -13   6    2.64    0.80
  -1 -13   6    3.29    1.04
   1 -13   6    3.91    0.96
  -1 -13   6    3.90    1.22
  -1  13  -6    2.14    0.91
  -1  13  -6    2.96    0.93
   1  13   6    2.93    1.18
  -1  13   6    5.90    1.74
   1  13  -6    3.05    0.89
  -1 -14   6   13.76    1.80
  -1  14  -6   11.46    1.53
   1 -14  -6   12.59    1.73
  -1  14  -6   13.97    1.66
   1  14  -6   14.39    1.65
   1 -14  -6   12.33    1.65
  -1 -14  -6   14.57    1.88
  -1 -14   6   12.74    1.68
   1 -14   6   16.51    1.88
  -1 -14   6   14.86    1.79
  -1 -14   6   13.08    1.81
   1  14  -6   17.38    1.88
  -1  14  -6   14.36    1.69
   1  14   6   14.61    2.06
  -1  14   6   16.08    2.44
  -1  15  -6   -0.90    0.82
  -1  15  -6    0.09    0.68
   1 -15  -6    1.38    0.85
   1  15  -6   -0.14    0.65
  -1 -15  -6    1.26    0.96
   1 -15   6    0.94    0.78
  -1 -15   6    0.37    0.81
  -1  15  -6    1.19    0.73
   1  15   6    0.75    1.23
  -1  15   6    0.01    1.14
   1  15  -6    2.03    0.89
   1  16  -6  248.45    7.78
   1 -16   6  250.60    7.99
  -1 -16   6  262.28    8.66
   1  16   6  248.92    9.25
  -1  16   6  253.72   10.25
   1  16  -6  256.19    7.86
  -1 -16  -6  255.67    8.07
   1 -17   6    0.84    1.02
  -1 -17   6    0.39    0.94
   1  17   6    0.78    1.42
  -1  17   6    1.10    1.57
  -1 -18   6  106.12    5.69
   1  18   6  113.99    6.66
  -1  18   6  111.80    7.11
  -1 -19   6    3.14    1.05
  -2   0   6  945.30   15.74
  -2   0  -6  972.08   16.81
  -2   0   6  931.36   13.41
   2   0  -6  965.62   12.59
   2   0  -6  949.60   12.75
   2   0  -6  956.31   12.59
   2   0  -6  905.29   15.02
   2   0  -6  949.33   13.34
  -2   0   6  938.28   14.99
   2   0  -6  945.24   12.72
  -2   0  -6  935.64   16.62
  -2   0  -6  927.50   15.10
  -2   0  -6  917.62   14.45
  -2   0  -6  944.20   12.53
   2   0  -6  941.65   16.13
  -2   1   6   11.36    1.19
   2   1  -6    9.55    1.37
   2  -1  -6    9.36    1.63
  -2  -1   6    8.68    1.31
  -2   1   6   11.02    1.46
  -2  -1  -6   10.47    1.63
   2  -1  -6    9.40    0.84
  -2   1  -6   11.00    1.65
  -2  -1  -6   11.85    1.71
   2   1  -6    8.15    0.79
   2  -1  -6    8.87    0.80
  -2  -1  -6    8.36    1.10
  -2   1  -6    9.45    1.16
   2  -1  -6    8.62    0.82
   2   1  -6    8.72    0.78
   2  -1  -6    9.22    1.05
   2   1  -6    7.57    1.14
   2  -1  -6    7.73    1.26
  -2  -1   6    9.20    1.22
  -2   1   6    8.83    1.25
   2  -1  -6    8.28    0.78
  -2   1  -6   11.19    1.38
  -2  -1  -6   10.09    1.38
  -2   1  -6    8.45    0.70
  -2  -1  -6    9.35    0.95
  -2   1  -6    8.83    1.54
  -2   2  -6   47.29    3.07
   2   2  -6   42.44    1.82
  -2   2   6   37.97    2.12
  -2  -2   6   42.29    2.68
  -2  -2  -6   44.01    3.01
   2  -2  -6   42.16    1.74
   2  -2  -6   44.55    1.85
   2   2  -6   44.44    1.86
   2  -2  -6   44.67    1.85
   2   2  -6   44.11    2.53
   2  -2  -6   47.02    2.72
  -2  -2   6   41.21    2.53
  -2   2   6   40.72    2.42
   2  -2  -6   43.16    2.27
  -2   2  -6   44.52    3.03
  -2   2   6   38.96    3.00
  -2  -2  -6   43.72    3.00
   2  -2  -6   43.82    1.77
  -2   2  -6   46.19    2.72
  -2  -2  -6   42.41    2.53
  -2  -2  -6   46.93    2.61
   2   2  -6   44.15    2.80
  -2   2  -6   44.67    2.29
   2  -2  -6   48.53    3.06
  -2  -2  -6   46.24    2.19
   2   3  -6    0.48    0.57
   2  -3  -6    1.33    0.71
  -2  -3  -6    1.02    0.55
  -2  -3   6    1.46    0.67
   2   3  -6    0.87    0.39
   2  -3  -6    1.38    0.69
  -2   3  -6    0.93    0.64
  -2  -3  -6    2.64    1.10
  -2  -3  -6    1.62    0.86
   2  -3  -6    0.65    0.32
  -2  -3  -6    1.16    0.57
   2  -3  -6    0.12    0.40
   2   3  -6    1.65    0.50
  -2   3  -6    0.96    0.43
  -2   3   6    0.66    0.53
   2  -3  -6    0.88    0.41
   2   3  -6    1.24    0.56
   2  -3  -6    0.43    0.54
  -2  -3   6    0.72    0.59
  -2   3   6   -0.51    0.68
  -2   3   6    1.14    0.87
  -2   3  -6    1.95    0.75
   2  -3  -6   -0.09    0.37
  -2  -3  -6    1.10    0.72
  -2   3  -6    0.08    0.64
  -2  -4  -6  545.64   11.87
   2  -4  -6  553.61    8.44
   2  -4  -6  556.24    8.93
   2   4  -6  549.32    8.85
   2  -4  -6  551.12    8.91
   2  -4  -6  552.06   10.99
  -2  -4   6  537.56   10.63
   2  -4  -6  549.93   10.29
  -2   4  -6  551.93   11.69
  -2   4   6  566.46   12.58
  -2   4  -6  536.63   11.04
  -2  -4  -6  572.12   12.08
   2  -4  -6  561.46    8.47
  -2  -4  -6  534.56   10.41
  -2  -4  -6  534.19   10.80
   2   4  -6  533.52   10.97
  -2   4  -6  536.97    9.18
   2  -4  -6  538.98   11.91
   2   4  -6  552.64    8.87
  -2   4   6  538.25   10.26
  -2  -4  -6  534.81   10.05
  -2   4  -6  547.72   11.65
  -2  -4   6  532.00   10.91
   2  -5  -6    1.99    1.08
   2   5  -6    0.77    0.42
  -2  -5   6    0.85    0.72
  -2  -5  -6    1.04    0.62
  -2   5  -6    1.89    1.05
   2  -5  -6    1.93    0.85
  -2  -5  -6    0.09    0.66
   2  -5  -6    0.88    0.45
  -2  -5  -6    0.10    0.67
   2   5  -6    0.87    0.56
  -2   5  -6    1.37    0.58
  -2   5   6    1.08    0.73
  -2  -5  -6    1.14    0.91
   2  -5  -6   -0.13    0.75
   2  -5  -6    1.00    0.67
  -2  -5   6    0.78    0.50
   2  -5  -6    0.34    0.47
  -2  -5  -6    0.80    0.26
   2  -5  -6    0.08    0.63
  -2  -5   6    1.53    0.75
  -2  -5   6    1.15    0.54
  -2   5   6    1.70    1.16
  -2   5  -6    0.40    0.69
  -2  -5  -6    0.48    0.62
  -2   5  -6    0.96    0.89
   2  -5  -6    0.51    0.37
  -2   6  -6  145.58    5.48
  -2  -6  -6  146.82    4.98
   2  -6  -6  150.18    3.87
   2  -6   6  148.03    3.07
  -2  -6  -6  148.64    5.71
   2   6  -6  144.75    4.15
   2  -6  -6  151.59    4.27
  -2  -6   6  148.88    4.54
   2  -6   6  146.04    3.05
   2  -6  -6  141.46    5.45
   2  -6  -6  144.67    5.33
  -2  -6   6  151.63    5.20
  -2  -6  -6  148.77    3.48
   2  -6  -6  156.04    4.33
  -2  -6   6  149.76    4.56
   2  -6  -6  147.96    5.09
  -2   6  -6  147.03    5.54
   2   6   6  151.42    4.81
  -2   6  -6  150.96    5.60
  -2   6   6  154.80    6.23
  -2  -6  -6  147.92    5.71
  -2  -6  -6  149.88    4.94
   2  -6  -6  146.59    3.83
  -2  -6  -6  146.83    5.34
   2   6  -6  143.91    4.14
  -2   6   6  141.22    4.99
   2  -6  -6  149.83    5.90
  -2   6  -6  148.99    3.85
  -2  -6   6  137.05    5.09
   2  -7  -6    4.41    1.13
   2   7  -6    4.11    0.80
  -2  -7   6    4.67    1.12
   2  -7  -6    2.95    1.09
  -2  -7  -6    3.47    0.87
  -2   7  -6    2.69    0.94
   2  -7  -6    4.42    1.11
  -2  -7  -6    3.13    0.96
   2  -7  -6    3.89    0.71
   2  -7   6    4.36    0.59
  -2  -7  -6    2.53    0.84
   2   7  -6    3.90    0.80
  -2   7   6    1.62    0.72
  -2   7  -6    4.62    0.71
   2  -7   6    3.56    0.55
  -2  -7   6    4.51    0.90
   2  -7  -6    4.40    0.92
  -2  -7   6    3.35    0.81
  -2  -7   6    1.87    0.79
   2  -7   6    2.68    0.41
   2  -7  -6    4.63    0.89
   2  -7  -6    4.20    1.14
  -2  -7  -6    5.07    0.75
  -2  -7  -6    2.24    1.11
   2   7   6    4.18    0.89
  -2   7   6    5.25    1.46
  -2  -7  -6    2.45    0.80
  -2   7  -6    3.99    1.11
   2  -7  -6    4.12    0.75
  -2   8  -6  330.35    8.70
  -2  -8  -6  329.38    8.39
   2  -8   6  356.46    6.46
   2  -8  -6  321.28    6.70
   2   8  -6  322.57    7.19
  -2  -8   6  340.86    7.85
   2  -8   6  346.45    6.39
   2  -8  -6  332.54    7.48
   2  -8   6  344.44    6.06
  -2  -8   6  349.34    8.67
   2  -8  -6  313.24    8.67
  -2  -8   6  334.67    7.79
  -2  -8  -6  328.64    7.00
   2  -8  -6  324.13    8.64
   2  -8  -6  318.85    8.37
  -2   8  -6  326.22    8.63
   2   8   6  349.58    7.97
  -2   8   6  353.00   10.13
  -2  -8  -6  333.77    9.07
  -2  -8  -6  327.37    8.77
   2  -8  -6  322.27    6.70
   2   8  -6  323.96    7.21
  -2   8   6  339.75    8.65
  -2  -8   6  344.28    8.69
   2  -8  -6  329.06    9.38
  -2   8  -6  325.56    5.96
   2   9  -6    0.90    0.63
  -2   9  -6    0.96    0.89
  -2  -9   6    2.07    0.90
  -2  -9  -6    2.05    0.96
  -2   9  -6    1.57    0.50
   2  -9  -6    3.45    1.09
  -2   9  -6    2.42    1.02
  -2   9  -6    1.32    0.56
   2  -9  -6    0.23    0.85
   2  -9   6    1.48    0.57
  -2  -9  -6    3.47    1.19
   2  -9  -6    0.87    0.51
   2   9  -6    0.41    0.54
  -2   9   6    1.92    0.98
  -2  -9   6    1.42    0.69
   2  -9   6    1.33    0.60
  -2  -9   6    0.83    0.68
   2  -9   6    0.58    0.40
  -2  -9   6    1.60    0.85
  -2   9  -6    1.47    0.57
   2   9   6    1.35    0.77
  -2   9   6    1.98    1.22
   2  -9  -6    1.14    0.64
  -2 -10  -6  373.64    9.51
  -2  10  -6  381.49    9.42
   2 -10   6  379.24    7.70
   2  10   6  399.16    6.89
  -2  10  -6  386.20    7.72
   2  10  -6  383.36    8.43
   2 -10  -6  379.37    7.88
  -2 -10   6  375.77    8.88
   2 -10   6  384.91    7.76
   2 -10   6  385.97    7.76
  -2 -10   6  382.66    9.63
  -2 -10   6  387.10    9.00
   2  10   6  403.35    6.90
  -2  10  -6  381.68    7.68
  -2  10  -6  370.67    9.33
   2 -10  -6  375.66    9.46
   2  10   6  391.24    8.98
  -2  10   6  398.08   11.41
  -2 -10  -6  372.32    9.83
   2  10  -6  384.65    8.44
   2 -10  -6  377.01    7.86
  -2  10   6  391.42    9.93
  -2 -10   6  392.31    9.84
   2 -11  -6    2.27    0.79
  -2 -11   6    2.18    1.01
  -2 -11  -6    0.54    0.73
  -2  11  -6    0.79    0.76
  -2  11  -6    1.95    0.74
  -2  11  -6    1.80    0.94
   2 -11   6    0.99    0.49
  -2 -11  -6    3.05    1.05
   2  11  -6    3.46    0.98
   2 -11  -6    1.14    0.56
   2 -11  -6    1.41    0.88
  -2  11   6    4.24    1.22
  -2 -11   6    2.31    0.76
   2 -11   6    1.88    0.59
  -2 -11   6    2.70    0.89
   2 -11   6    2.29    0.73
  -2 -11   6    3.64    0.99
  -2  11  -6    3.07    0.84
   2  11   6    3.27    1.02
  -2  11   6    4.51    1.66
   2  11  -6    2.26    0.81
  -2 -12   6    0.43    0.63
   2 -12  -6    2.51    0.81
  -2  12  -6    0.82    0.53
  -2  12  -6    2.22    0.94
   2 -12   6    0.14    0.50
  -2  12  -6    2.91    1.05
   2  12  -6    3.85    0.91
  -2 -12  -6    2.53    1.10
  -2 -12   6   -0.14    0.68
  -2  12   6    0.67    0.75
   2 -12   6    0.85    0.55
   2 -12  -6    1.94    0.83
  -2 -12   6   -0.01    0.70
   2 -12   6    1.20    0.59
  -2 -12   6    0.80    0.80
  -2  12  -6    1.69    0.71
   2  12   6    0.93    0.75
  -2  12   6    1.09    1.04
   2  12  -6    2.85    0.84
  -2 -13   6    3.11    1.07
   2 -13  -6    0.55    0.72
  -2  13  -6    0.62    0.70
  -2  13  -6    0.88    0.88
   2  13  -6    2.39    0.93
  -2  13  -6    1.07    0.80
  -2 -13  -6    2.00    1.13
  -2 -13   6    1.71    0.81
  -2  13   6    1.21    0.87
  -2 -13   6    2.17    0.97
   2 -13   6    1.26    0.74
  -2 -13   6    3.54    1.23
   2 -13  -6    1.09    0.82
  -2  13  -6    1.38    0.69
   2  13   6    1.36    0.93
  -2  13   6    1.65    1.40
   2  13  -6    0.81    0.75
   2  14  -6  349.46    9.12
   2 -14   6  376.81    9.05
  -2 -14   6  378.67   10.45
   2 -14  -6  359.04    9.27
   2  14   6  369.09    9.89
  -2  14   6  383.93   12.31
  -2  14  -6  356.19    9.07
   2  14  -6  346.82    9.07
  -2 -14   6  389.22   10.69
  -2 -14  -6  351.22    9.91
  -2 -15   6   -1.26    1.03
   2 -15  -6    2.32    0.94
   2  15  -6    0.00    0.69
  -2 -15  -6    2.71    1.29
  -2 -15   6    1.68    1.11
   2  15   6    0.48    0.71
  -2  15   6    0.62    1.43
   2  15  -6    0.46    0.69
  -2 -16  -6   50.13    3.65
   2  16  -6   51.89    3.49
  -2 -16   6   54.07    3.97
  -2  16   6   48.09    4.55
   2  16  -6   52.04    3.48
  -2 -16   6   50.12    3.85
  -2 -17   6    3.98    1.31
  -2  17   6    3.68    1.81
  -2 -18   6  185.96    7.80
   3   0  -6   -0.39    0.72
  -3   0   6    1.91    0.85
  -3   0  -6    0.44    0.84
   3   0  -6    0.03    0.51
  -3   0  -6   -0.40    0.52
  -3   0   6    0.18    0.39
   3   0  -6    0.42    0.53
   3   0  -6    1.37    0.73
  -3   0   6    0.21    0.65
  -3   0  -6    0.80    0.91
  -3   0  -6    0.65    0.58
  -3  -1   6    7.37    0.84
   3   1  -6    6.21    1.28
   3  -1  -6    5.82    1.19
  -3  -1   6    7.12    1.33
  -3   1   6    6.76    1.32
   3  -1  -6    4.95    0.80
  -3   1  -6    6.11    1.24
   3   1  -6    6.38    0.91
  -3  -1  -6    6.90    1.47
   3  -1  -6    5.43    0.88
  -3  -1  -6    4.76    0.91
  -3   1   6    7.31    0.95
  -3   1  -6    7.49    1.13
   3   1  -6    5.60    0.85
   3  -1  -6    4.42    0.82
   3   1  -6    5.88    1.09
   3  -1  -6    6.49    1.18
  -3   1  -6    6.60    1.42
  -3  -1   6    7.64    1.29
  -3   1   6    7.45    1.26
   3  -1  -6    4.99    0.79
  -3   1  -6    5.21    1.00
  -3  -1  -6    5.19    0.89
  -3  -1  -6    6.74    0.63
  -3  -2   6  676.79   13.39
  -3   2   6  678.92   13.50
  -3  -2   6  691.73    9.54
   3   2  -6  691.82   11.14
   3  -2  -6  674.68   10.99
   3  -2  -6  689.04   11.34
  -3   2  -6  685.13   13.72
   3   2  -6  673.93   11.07
   3  -2  -6  678.61   11.29
   3   2  -6  672.05   12.88
   3  -2  -6  675.28   13.10
  -3  -2   6  706.44   13.12
  -3   2   6  698.02   12.96
   3  -2  -6  667.47   10.95
  -3   2   6  689.67   14.68
  -3   2  -6  670.74   11.84
  -3   2  -6  698.08   13.81
  -3  -2  -6  675.36   11.33
  -3  -2  -6  695.25   13.95
   3   2  -6  689.32   13.59
  -3  -2  -6  670.84   12.53
   3  -2  -6  675.97   13.92
  -3   2   6  661.42   11.31
  -3  -2  -6  693.36   10.11
  -3   2  -6  670.50   11.84
   3   3  -6    7.23    1.39
   3  -3  -6    6.51    1.39
  -3  -3  -6    6.11    0.87
  -3  -3   6    5.34    1.19
   3   3  -6    5.26    0.87
   3  -3  -6    5.80    0.87
  -3   3  -6    5.19    1.34
  -3  -3  -6    5.28    1.40
  -3  -3  -6    5.26    1.10
  -3   3   6    5.79    1.07
   3  -3  -6    4.81    0.92
   3   3  -6    5.08    0.87
  -3   3  -6    7.01    1.03
  -3   3  -6    7.61    1.47
   3  -3  -6    5.78    0.99
   3   3  -6    4.85    1.19
   3  -3  -6    5.98    1.29
  -3  -3   6    6.44    1.26
  -3   3   6    4.03    1.00
   3  -3  -6    5.13    0.83
  -3   3   6    7.84    1.78
  -3   3  -6    7.42    1.12
  -3  -3  -6    5.68    0.97
  -3  -4  -6  107.70    3.72
  -3   4  -6  112.25    3.95
   3   4  -6  112.21    3.80
   3  -4  -6  115.60    3.70
  -3   4  -6  121.68    5.08
   3  -4  -6  118.86    4.05
   3   4  -6  115.29    3.86
   3   4  -6  108.94    4.49
   3  -4  -6  112.55    4.79
   3  -4  -6  114.26    3.99
  -3  -4   6  114.66    4.70
   3  -4  -6  111.35    4.19
  -3   4   6  115.39    4.60
  -3   4   6  117.25    5.58
  -3   4  -6  107.77    4.22
   3  -4  -6  112.66    3.64
  -3   4  -6  113.81    4.93
  -3  -4  -6  111.03    3.74
  -3  -4  -6  113.89    5.09
   3   4  -6  113.99    4.84
  -3  -4  -6  112.95    4.59
  -3   4   6  114.61    4.18
   3  -4  -6  114.21    5.18
  -3  -4   6  108.41    4.78
   3  -5  -6    9.15    1.64
  -3  -5   6    6.60    1.26
  -3  -5  -6    8.58    1.15
   3  -5  -6    9.42    1.31
   3   5  -6    9.03    1.11
  -3   5  -6    9.49    1.52
   3  -5  -6    9.37    1.09
  -3  -5  -6    9.23    1.58
   3  -5   6    6.91    0.44
  -3  -5  -6    8.00    1.29
  -3   5   6    8.15    1.21
   3   5  -6    9.31    1.15
   3  -5  -6    9.90    1.26
  -3   5  -6    9.27    1.15
  -3   5  -6    9.99    1.54
   3  -5   6    6.21    0.42
  -3  -5   6    9.44    1.25
   3  -5  -6    8.66    1.19
   3  -5  -6   11.22    1.62
  -3  -5   6    8.42    1.36
  -3  -5  -6   10.87    1.23
  -3   5  -6    8.35    1.23
  -3   5   6    7.49    1.60
   3  -5  -6    9.51    1.12
  -3  -6  -6  489.40    9.77
  -3   6  -6  476.86    9.03
   3  -6   6  488.31    6.99
   3  -6  -6  473.67    8.93
  -3   6  -6  477.68   10.94
   3   6  -6  483.96    9.31
   3  -6  -6  489.72    9.66
   3  -6   6  479.48    6.96
  -3  -6   6  465.12    9.80
  -3  -6   6  492.55   10.89
   3  -6  -6  481.80    9.62
   3  -6  -6  460.93   10.11
  -3  -6   6  470.86    9.85
  -3   6  -6  467.03   10.44
  -3   6   6  493.07   12.38
   3  -6  -6  471.21    8.92
  -3   6  -6  481.12   11.01
  -3  -6  -6  477.53    8.79
  -3  -6  -6  475.57   11.35
  -3  -6  -6  478.23   10.80
  -3   6   6  476.65   10.15
   3  -6  -6  493.84   11.86
  -3  -6   6  474.13   11.04
   3   6  -6  484.35    9.32
  -3  -7   6    2.78    1.10
   3   7  -6    2.04    0.76
  -3  -7  -6    1.13    0.65
   3  -7  -6    3.49    1.06
   3  -7   6    1.04    0.36
  -3   7  -6    2.98    1.19
   3  -7  -6    0.99    0.58
  -3  -7  -6    2.45    1.21
  -3  -7  -6    0.71    0.82
   3   7  -6    1.89    0.75
  -3   7   6    2.05    1.03
   3  -7   6    1.73    0.48
  -3  -7   6    1.34    0.79
   3  -7  -6    1.31    0.76
  -3   7  -6    1.67    0.70
  -3   7  -6    2.24    1.18
  -3  -7  -6    1.25    0.39
  -3  -7   6    1.20    0.77
  -3  -7   6    1.07    0.82
   3  -7  -6    1.15    0.67
  -3   7  -6    2.08    1.09
  -3   7   6    1.01    1.26
   3  -7  -6    1.29    0.64
  -3  -8  -6  265.86    7.27
   3  -8   6  272.64    5.49
  -3   8  -6  260.27    6.06
   3   8   6  242.26    4.07
   3  -8  -6  268.41    6.49
  -3   8  -6  267.91    7.76
   3   8  -6  263.72    6.77
   3  -8   6  271.72    5.48
  -3  -8   6  278.78    7.37
   3  -8  -6  277.83    7.21
  -3  -8  -6  264.83    5.07
  -3  -8   6  277.35    8.06
  -3  -8   6  272.88    7.32
   3  -8  -6  257.31    7.51
   3  -8  -6  271.87    7.14
   3   8   6  237.84    4.04
   3   8   6  277.55    6.31
  -3   8   6  276.58    9.23
  -3   8  -6  273.34    7.86
   3  -8  -6  264.62    6.44
  -3  -8  -6  265.90    8.25
  -3   8   6  254.41    7.45
   3   8  -6  266.44    6.80
  -3  -8   6  271.88    8.21
   3   9  -6    4.36    0.97
  -3  -9   6    6.41    1.42
  -3  -9  -6    5.92    1.14
   3  -9  -6    5.11    1.25
   3  -9   6    7.21    0.90
  -3   9  -6    5.41    1.24
   3  -9  -6    4.43    0.91
  -3  -9  -6    4.79    1.33
   3   9  -6    4.51    0.89
  -3   9   6    5.72    1.14
   3  -9   6    5.11    0.78
  -3  -9   6    6.98    1.29
   3  -9  -6    5.58    1.14
  -3  -9   6    5.97    1.20
  -3  -9   6    5.27    1.27
  -3   9  -6    5.83    1.38
   3   9   6    7.17    1.07
  -3   9   6    5.39    1.54
   3  -9  -6    5.22    1.00
   3  -9  -6    3.86    1.06
  -3 -10  -6   46.67    3.12
   3 -10   6   44.63    2.35
   3 -10  -6   46.83    2.70
   3  10  -6   47.05    2.86
  -3  10  -6   44.87    3.06
  -3 -10   6   48.75    3.11
   3 -10   6   47.34    2.42
  -3 -10   6   50.24    3.45
  -3 -10   6   48.17    3.13
   3 -10  -6   49.82    3.24
   3  10   6   50.66    2.68
  -3  10   6   42.24    3.78
  -3  10  -6   45.86    3.13
   3 -10  -6   48.40    2.73
   3  10  -6   48.29    2.89
  -3  10   6   49.11    3.32
  -3 -10  -6   53.35    3.64
  -3 -10   6   55.11    3.71
   3  11  -6    1.11    0.75
  -3 -11   6    2.54    1.19
  -3  11  -6   -0.10    0.85
   3 -11  -6    2.92    0.89
   3  11  -6    0.64    0.65
  -3 -11  -6    1.12    1.20
  -3  11   6    0.93    0.85
  -3 -11   6    2.36    0.97
  -3 -11   6    1.62    0.86
  -3 -11   6    3.06    1.21
   3  11   6    0.54    0.63
  -3  11   6    1.87    1.40
   3 -11  -6    1.54    0.73
  -3  11  -6    0.20    0.78
   3  12  -6  334.46    8.77
  -3 -12   6  351.46    9.37
  -3  12  -6  329.55    8.91
  -3 -12   6  373.78   10.25
  -3 -12   6  353.28    9.40
   3  12   6  362.81    8.30
  -3  12   6  366.01   11.76
  -3  12  -6  339.25    9.01
   3  12  -6  333.37    8.74
  -3  12   6  357.48    9.99
  -3 -12   6  364.29   10.42
  -3 -12  -6  355.60   10.01
   3  13  -6    5.01    1.17
  -3 -13   6    3.14    1.26
  -3  13  -6    3.22    1.05
   3  13  -6    4.37    1.10
  -3 -13  -6    6.78    1.77
  -3 -13   6    3.21    1.12
  -3  13   6    2.93    1.26
   3  14  -6    9.92    1.57
  -3 -14   6   13.51    2.01
   3 -14  -6    9.83    1.51
  -3  14  -6    9.43    1.46
   3  14  -6   12.91    1.75
  -3 -14  -6   13.98    2.17
  -3 -14   6   10.71    1.86
  -3  14   6   16.02    2.72
  -3 -15   6    2.97    1.02
   3  15  -6    3.82    1.26
  -3 -15   6    3.70    1.40
  -3  15   6    6.16    1.79
   3  15  -6    3.80    1.12
  -3 -16   6  273.76    9.53
  -3  16   6  299.89   11.65
  -3 -16   6  279.68    9.87
  -3 -17   6    1.96    1.20
  -4   0  -6  560.69   11.35
  -4   0   6  546.96   12.39
   4   0  -6  545.29   10.56
   4   0  -6  558.09   10.66
  -4   0   6  545.54   11.96
  -4   0  -6  546.21    9.27
  -4   0  -6  549.05   12.42
  -4   0   6  549.57    9.35
   4   0  -6  556.24   12.68
   4   1  -6   13.73    1.91
   4  -1  -6   12.38    1.88
  -4  -1   6   13.74    1.91
  -4   1   6   10.27    1.61
   4   1  -6   12.47    1.44
  -4   1  -6   14.65    1.95
  -4  -1  -6   13.40    1.94
   4  -1  -6   12.21    1.44
  -4   1  -6   10.95    1.45
   4   1  -6   11.41    1.38
   4  -1  -6   13.31    1.49
  -4  -1   6   12.15    1.83
  -4   1   6   13.01    1.73
  -4   1  -6   13.96    1.30
  -4  -1  -6   12.03    1.05
  -4   1   6   12.51    1.27
  -4  -1   6   12.66    1.12
  -4  -1  -6   13.48    1.72
  -4  -2   6   34.63    2.84
  -4   2   6   30.17    2.68
  -4   2  -6   27.06    2.20
   4  -2  -6   25.81    1.95
   4   2  -6   18.61    1.68
   4  -2  -6   25.97    2.06
   4   2  -6   23.35    1.85
   4  -2  -6   23.31    1.95
  -4  -2   6   34.70    2.74
  -4   2   6   31.90    2.58
   4  -2  -6   25.56    1.94
  -4   2   6   29.93    2.94
  -4   2  -6   26.40    1.81
  -4  -2  -6   26.04    1.49
  -4   2  -6   24.30    2.41
  -4  -2  -6   28.08    2.70
  -4   2   6   32.80    2.08
   4   2  -6   23.67    2.44
   4  -2  -6   27.57    2.69
  -4  -2   6   32.77    1.54
  -4  -2  -6   27.00    1.23
  -4  -2  -6   26.44    2.31
  -4  -3   6   15.48    0.91
  -4   3   6   15.79    2.15
   4   3  -6   15.33    2.05
  -4   3  -6   14.23    1.62
   4  -3  -6   15.19    2.04
  -4  -3   6   14.63    1.92
   4  -3  -6   11.57    1.31
   4   3  -6   10.30    1.30
  -4   3  -6   12.97    1.87
  -4  -3  -6   12.42    1.92
   4  -3  -6   13.17    1.51
  -4  -3  -6   12.07    1.61
   4   3  -6    9.46    1.25
   4  -3  -6   13.95    1.61
  -4  -3   6   14.61    1.83
  -4   3   6   15.49    1.87
   4  -3  -6   13.17    1.43
  -4   3   6   16.23    2.35
  -4   3  -6   12.03    1.34
  -4   3   6   14.66    1.52
  -4  -3  -6   11.76    1.04
  -4  -4  -6  716.91   10.91
  -4   4  -6  699.39   12.57
   4   4  -6  614.43   11.76
   4  -4  -6  686.56   11.97
   4  -4   6  587.03    7.73
   4  -4  -6  717.90   12.75
   4   4  -6  621.65   11.84
   4  -4  -6  698.42   12.61
  -4  -4   6  709.33   14.02
  -4   4   6  733.00   13.94
  -4   4   6  755.04   15.83
   4  -4  -6  680.47   11.93
  -4   4  -6  675.17   11.77
  -4   4  -6  702.98   14.01
  -4   4   6  692.23   12.24
   4   4  -6  705.18   14.34
  -4  -4  -6  715.23   14.53
  -4  -4  -6  703.52   13.63
  -4  -4   6  713.83   14.45
   4  -5   6    5.60    0.56
  -4  -5   6    8.92    1.67
  -4  -5  -6    6.03    1.01
   4   5  -6    5.07    1.01
   4  -5  -6    8.42    1.26
  -4   5  -6    8.66    1.65
   4  -5   6    6.43    0.59
   4  -5   6    6.77    0.64
  -4  -5  -6    7.72    1.67
  -4   5   6    6.25    1.23
  -4  -5  -6    7.59    1.50
   4   5  -6    7.56    1.20
   4  -5  -6    7.71    1.30
   4  -5   6    5.76    0.60
  -4   5  -6    8.21    1.23
   4  -5  -6    7.28    1.30
  -4  -5   6    6.39    1.43
  -4   5   6    7.34    1.49
   4  -5  -6    6.66    1.12
  -4   5  -6    5.92    1.09
  -4   5   6    5.83    1.67
   4  -6   6  265.33    4.89
  -4  -6  -6  256.54    6.53
   4   6  -6  249.81    6.88
  -4   6  -6  245.43    6.76
   4  -6  -6  260.69    6.78
   4  -6   6  263.48    4.89
   4   6  -6  265.95    7.07
   4  -6  -6  261.98    7.31
   4  -6   6  273.71    5.21
  -4  -6   6  264.89    7.41
  -4  -6   6  263.91    8.09
   4  -6  -6  264.80    7.34
   4  -6   6  270.33    5.20
  -4  -6   6  266.37    7.43
  -4   6  -6  252.56    7.04
  -4   6   6  286.06    9.40
   4  -6  -6  253.85    6.71
  -4   6  -6  258.01    7.93
  -4   6   6  264.84    7.34
  -4  -6  -6  257.74    8.33
  -4  -6   6  258.39    8.33
  -4  -7   6    4.51    1.19
  -4  -7  -6    4.65    0.90
   4   7  -6    5.28    1.06
   4  -7  -6    5.97    1.15
  -4   7  -6    5.46    1.33
  -4   7   6    5.94    1.12
  -4  -7  -6    5.97    1.49
   4   7  -6    4.62    1.00
   4  -7  -6    5.89    1.19
  -4  -7   6    4.15    1.00
   4  -7  -6    4.68    1.13
  -4  -7   6    5.42    1.27
  -4  -7   6    5.83    1.17
  -4   7  -6    6.11    1.20
  -4   7   6    5.15    1.44
   4  -7  -6    5.52    1.08
   4  -8  -6  104.02    4.24
   4   8  -6  107.12    4.49
  -4  -8   6   96.81    4.51
   4  -8  -6  113.78    4.83
  -4  -8   6   95.34    4.85
  -4  -8   6   97.37    4.51
   4  -8  -6  109.27    4.75
  -4   8   6  109.34    5.92
   4  -8  -6  105.66    4.27
  -4   8  -6  102.19    4.86
  -4   8   6   97.97    4.55
  -4  -8  -6  107.80    5.35
  -4  -8   6  102.02    5.23
   4   8  -6  109.11    4.53
  -4  -9   6    3.19    1.35
   4   9  -6    3.26    0.91
   4  -9  -6    2.56    0.86
  -4   9  -6    4.10    1.19
  -4   9   6    2.90    1.07
   4   9  -6    4.40    1.07
  -4  -9  -6    3.45    1.37
  -4  -9   6    3.53    1.07
   4  -9  -6    4.76    1.26
  -4  -9   6    4.37    1.14
  -4  -9   6    5.08    1.41
   4  -9  -6    2.37    0.91
  -4   9   6    1.12    1.23
   4  -9  -6    3.75    1.07
  -4 -10  -6  259.20    8.62
   4 -10  -6  247.21    7.10
   4  10  -6  244.53    7.39
  -4 -10   6  249.60    7.76
   4 -10  -6  257.68    7.84
  -4 -10   6  258.94    8.47
  -4 -10   6  252.85    7.82
  -4  10   6  257.09    9.64
   4 -10  -6  250.92    7.13
  -4  10   6  236.56    7.77
  -4  10  -6  243.80    7.73
   4  10  -6  256.06    7.53
  -4 -10   6  255.72    8.81
  -4 -11   6    3.40    1.21
   4  11  -6    3.91    1.11
   4 -11  -6    3.68    0.99
  -4  11  -6    2.88    1.11
  -4  11   6    3.78    1.17
   4  11  -6    2.37    0.89
  -4 -11  -6    4.01    1.37
  -4 -11   6    3.25    0.99
  -4 -11   6    3.14    1.06
  -4 -11   6    3.16    1.19
  -4  11   6    6.45    1.93
   4 -11  -6    3.49    1.07
   4  12  -6    7.50    1.44
  -4 -12   6   11.33    2.15
  -4  12  -6    9.47    1.65
   4  12  -6    7.87    1.35
  -4 -12   6   10.75    1.86
  -4  12   6   12.03    2.43
   4  13  -6    5.00    1.28
  -4 -13   6    2.96    1.42
   4  13  -6    4.37    1.12
  -4  13  -6    3.02    1.08
  -4 -13   6    3.66    1.31
  -4  13   6    6.54    1.95
   4  14  -6  311.52    9.22
  -4 -14   6  306.14   10.06
  -4  14   6  319.37   11.70
   4  14  -6  301.39    9.09
  -4 -14   6  304.06   10.36
  -4 -15   6    5.89    1.61
  -4 -16   6   52.22    4.21
  -5   0   6    0.01    0.79
  -5   0   6    1.71    0.65
   5   0  -6   -0.86    0.87
  -5   0  -6    1.01    0.98
  -5   0  -6   -0.01    0.71
   5   0  -6   -1.29    0.98
  -5   0   6    0.14    0.94
  -5  -1   6   21.50    2.49
  -5   1   6   16.63    2.25
   5   1  -6   17.75    1.90
   5  -1  -6   15.78    1.83
  -5  -1  -6   19.78    2.42
   5   1   6   20.84    2.43
  -5  -1  -6   17.84    2.04
  -5   1  -6   14.55    1.81
   5   1  -6   16.16    1.81
   5  -1  -6   16.13    1.82
  -5  -1   6   23.87    2.48
  -5   1   6   19.84    2.28
  -5   1   6   18.32    1.60
  -5  -1   6   19.94    1.49
  -5   1  -6   19.70    2.38
  -5  -2   6  655.21   14.49
  -5  -2  -6  644.30   13.47
  -5   2   6  637.31   14.36
  -5   2  -6  629.95   13.08
   5  -2  -6  630.54   12.50
   5   2  -6  636.17   12.69
   5  -2  -6  639.96   12.89
   5   2  -6  655.58   12.83
   5  -2  -6  652.21   13.01
   5   2   6  641.98   14.07
  -5  -2   6  644.66   14.17
  -5   2   6  670.99   14.16
   5  -2  -6  639.76   12.54
  -5   2   6  672.41   15.44
  -5   2   6  652.02   11.75
  -5  -2   6  642.32    9.90
  -5   2  -6  644.80   14.08
  -5  -2  -6  665.24   14.47
  -5  -3   6    2.60    1.21
  -5   3   6    2.78    1.18
   5  -3  -6    3.87    0.99
   5   3  -6    3.52    0.99
  -5   3   6    3.21    0.95
  -5   3  -6    5.08    1.53
  -5  -3   6    2.45    0.47
  -5  -3  -6    3.95    1.39
   5  -3  -6    2.92    1.01
   5   3  -6    3.73    1.00
   5   3   6    5.21    1.40
  -5   3  -6    3.83    1.17
   5  -3  -6    2.95    0.88
  -5  -3   6    3.08    1.23
  -5   3   6    4.80    1.43
   5  -3  -6    2.18    0.83
  -5   3   6    2.97    1.57
  -5   4   6   82.74    4.74
  -5   4  -6   72.50    3.89
   5   4  -6   73.48    3.80
   5  -4  -6   73.12    3.70
   5  -4  -6   76.60    4.02
   5   4  -6   79.19    3.94
   5   4   6   84.98    4.65
   5  -4  -6   78.37    4.07
  -5  -4   6   81.06    4.60
  -5   4   6   76.42    4.34
   5  -4  -6   73.90    3.75
  -5   4   6   81.20    5.08
  -5   4   6   77.47    3.70
  -5   4  -6   79.48    4.50
  -5  -4   6   81.23    4.70
  -5  -4  -6   79.45    4.65
   5   5  -6   20.75    2.05
   5  -5  -6   19.53    1.94
   5  -5  -6   19.03    2.07
   5   5  -6   19.60    2.01
  -5  -5  -6   23.32    2.61
   5  -5  -6   24.05    2.31
  -5  -5   6   17.72    2.18
  -5   5   6   19.73    2.27
   5  -5  -6   18.01    1.87
  -5   5   6   19.62    2.65
  -5   5   6   19.80    1.95
   5   5   6   19.26    2.27
  -5   5  -6   21.04    2.35
  -5  -5   6   21.95    2.55
  -5  -6  -6  258.85    8.71
   5   6  -6  253.09    7.50
   5  -6  -6  253.99    7.31
   5   6  -6  253.04    7.51
   5  -6  -6  257.62    7.83
   5   6   6  258.31    8.41
  -5  -6   6  247.77    8.38
   5  -6  -6  256.03    7.83
  -5   6   6  239.65    8.08
  -5   6   6  255.55    9.31
   5  -6  -6  243.42    7.16
  -5   6   6  246.09    7.36
  -5   6  -6  253.77    8.16
  -5  -6   6  254.85    8.77
  -5  -7   6    2.09    0.95
   5   7  -6    2.38    0.98
   5  -7  -6    2.36    0.84
  -5   7   6    4.08    1.09
  -5   7  -6    4.07    1.42
   5   7  -6    2.79    0.96
  -5  -7  -6    3.45    1.38
   5   7   6    2.58    1.27
   5  -7  -6    2.11    1.05
  -5  -7   6    1.30    0.89
   5  -7  -6    3.03    1.04
  -5  -7   6    2.35    1.22
  -5  -7   6    1.75    0.95
  -5   7   6    1.50    1.21
   5  -7  -6    2.69    0.91
   5   8  -6  228.98    7.32
   5  -8  -6  211.37    6.78
   5   8  -6  220.07    7.21
   5  -8  -6  227.93    7.56
  -5  -8   6  220.70    7.42
  -5  -8   6  228.41    8.14
   5  -8  -6  232.69    7.65
  -5  -8   6  216.90    7.37
  -5   8   6  232.54    9.07
   5  -8  -6  212.90    6.82
  -5   8   6  230.00    7.47
  -5   8  -6  228.00    7.68
  -5  -8   6  240.90    8.69
  -5  -9   6   11.43    1.99
   5   9  -6   10.97    1.72
   5  -9  -6    9.77    1.58
  -5   9   6   11.29    1.71
  -5   9  -6    8.28    1.58
   5   9  -6   11.09    1.71
   5  -9  -6   13.38    1.89
  -5  -9   6   10.32    1.80
   5  -9  -6   12.02    1.84
  -5   9   6   10.60    2.08
   5  -9  -6   11.07    1.62
   5  10  -6   30.76    2.71
   5 -10  -6   34.59    3.00
  -5 -10   6   37.10    3.30
   5 -10  -6   32.61    2.95
  -5  10   6   32.92    3.55
  -5  10   6   36.50    3.08
  -5 -10   6   36.50    3.44
   5  10  -6   35.75    2.95
  -5  10  -6   33.32    2.91
  -5 -11   6   12.84    2.29
   5  11  -6    7.53    1.52
   5  11  -6    9.71    1.75
  -5  11  -6    8.20    1.66
   5 -11  -6    7.14    1.63
  -5 -11   6    8.86    1.88
   5 -11  -6    8.69    1.70
  -5  11   6   13.13    2.51
  -5  12  -6  314.06    9.22
   5  12  -6  316.41    9.42
  -5 -12   6  319.53   10.35
  -5  12   6  327.05   11.70
   5  12  -6  314.00    9.40
  -5 -13   6    4.94    1.52
  -5 -14   6    3.93    1.57
  -6   0   6  519.58   13.29
   6   0  -6  518.62   11.94
   6   0  -6  512.39   11.89
  -6   0   6  524.26   13.05
  -6   0   6  516.69   10.00
  -6  -1   6   11.58    2.09
  -6   1   6    9.14    1.90
  -6   1   6    7.91    1.29
  -6  -1   6    7.82    1.06
   6   1  -6    6.56    1.30
   6  -1  -6    5.86    1.36
   6   1  -6    5.45    1.21
   6  -1  -6    4.17    1.16
  -6  -1   6    7.82    1.71
  -6   1   6    8.42    1.81
  -6  -2   6    7.80    1.59
  -6   2   6    5.98    1.56
   6  -2  -6   10.47    1.57
  -6   2   6    6.69    1.17
   6   2  -6   10.96    1.64
   6  -2  -6    9.11    1.62
  -6   2  -6   11.97    2.12
   6   2  -6   11.47    1.70
   6  -2  -6   11.13    1.74
   6  -2  -6    8.20    1.41
  -6  -2   6    9.35    1.82
  -6   2   6    7.09    1.51
  -6   2   6    9.39    1.99
  -6   3   6   25.97    2.86
  -6   3  -6   33.93    3.17
  -6  -3   6   25.23    2.83
   6  -3  -6   27.08    2.46
   6   3  -6   31.37    2.74
   6  -3  -6   25.62    2.54
   6   3  -6   25.83    2.47
   6  -3   6   25.64    2.80
   6  -3  -6   27.18    2.60
  -6  -3   6   27.85    2.92
   6  -3  -6   27.09    2.47
  -6   3   6   21.16    2.45
  -6   3   6   25.81    2.27
  -6   3   6   25.14    2.96
  -6   4  -6  355.26   10.31
   6   4  -6  324.07    9.18
   6  -4  -6  313.41    8.85
   6  -4  -6  342.05    9.69
   6   4  -6  327.58    9.22
   6  -4  -6  348.44    9.78
  -6  -4   6  318.15   10.07
  -6   4   6  337.71   10.15
   6  -4  -6  320.39    8.90
  -6   4   6  335.15   11.01
  -6   4   6  342.71    8.76
  -6  -4   6  340.23   10.65
  -6  -5   6    4.73    1.47
   6  -5  -6    0.50    0.71
   6   5  -6    2.58    0.98
  -6   5   6    5.54    1.25
  -6   5  -6    6.47    1.76
   6   5  -6    1.24    0.93
   6  -5  -6    2.54    0.94
   6  -5  -6    2.11    1.19
  -6  -5   6    1.51    1.03
  -6   5   6    2.28    1.07
   6  -5  -6    3.69    1.13
  -6   5   6    2.96    1.60
  -6   6  -6  153.24    6.64
   6   6  -6  153.86    6.19
   6  -6  -6  150.22    5.98
   6  -6  -6  160.55    6.55
   6   6  -6  150.19    6.13
   6  -6  -6  157.93    6.51
  -6  -6   6  158.87    6.98
  -6   6   6  157.95    6.78
  -6   6   6  163.00    7.59
   6  -6  -6  154.67    6.02
  -6   6   6  157.88    6.07
  -6  -6   6  147.61    6.95
   6   7  -6   17.92    2.11
   6   7  -6   17.52    2.07
  -6   7  -6   22.05    2.62
   6  -7  -6   21.23    2.46
   6  -7  -6   20.36    2.36
  -6  -7   6   22.68    2.64
  -6   7   6   24.85    3.19
  -6   7   6   23.02    2.40
   6   8  -6  136.74    5.99
   6   8  -6  139.63    6.08
   6  -8  -6  136.29    6.20
  -6  -8   6  148.24    6.84
   6  -8  -6  131.60    6.08
  -6   8   6  142.41    7.30
  -6   8   6  145.08    6.13
   6   9  -6    0.99    1.00
  -6   9   6    0.72    0.82
   6   9  -6   -0.46    0.79
   6  -9  -6    1.68    1.07
   6  -9  -6    0.62    1.04
  -6  -9   6    2.49    1.56
  -6   9   6    2.61    1.55
   6  10  -6  268.61    8.76
   6  10  -6  256.44    8.62
   6 -10  -6  263.50    8.97
  -6 -10   6  259.91    9.41
   6 -10  -6  253.33    8.83
  -6  10   6  270.94   10.43
   6 -11  -6    9.82    1.86
  -6 -11   6   12.70    2.12
   6 -11  -6    9.78    1.67
  -6 -12   6    9.49    2.02
   7   0  -6   -0.89    1.24
   7   0  -6    0.61    0.91
  -7   0   6   -0.32    1.01
   7   1  -6   20.06    2.36
   7  -1  -6   20.06    2.40
   7   1  -6   19.34    2.33
   7  -1  -6   17.85    2.24
  -7  -1   6   15.21    2.38
  -7   1   6   19.27    2.58
   7   2  -6  365.12   10.49
   7  -2  -6  368.42   10.74
   7   2  -6  363.59   10.49
   7  -2  -6  377.13   10.87
  -7  -2   6  382.96   11.66
  -7   2   6  376.32   11.36
  -7   2   6  373.59   11.97
  -7   2   6  390.20    9.58
  -7   3   6   11.87    1.69
   7   3  -6    8.61    1.67
   7  -3  -6    7.50    1.62
   7   3  -6    5.10    1.26
   7  -3  -6    5.29    1.32
  -7  -3   6   13.03    2.28
  -7   3   6    9.11    1.74
  -7   3   6   11.68    2.35
   7   4  -6   47.88    3.61
   7  -4  -6   44.48    3.64
   7   4  -6   45.88    3.53
   7  -4  -6   41.00    3.47
  -7  -4   6   49.24    4.07
  -7   4   6   48.09    3.90
  -7   4   6   47.05    4.26
  -7   4   6   42.68    3.17
   7   5  -6   24.46    2.65
   7  -5  -6   24.05    2.65
   7   5  -6   23.46    2.60
  -7  -5   6   27.82    3.15
   7  -5  -6   24.18    2.64
  -7   5   6   24.98    2.95
  -7   5   6   26.49    2.57
  -7   5   6   25.48    3.15
   7   6  -6  207.91    7.77
   7  -6  -6  203.77    7.98
   7   6  -6  190.25    7.47
   7  -6  -6  208.47    8.09
  -7  -6   6  210.49    8.57
  -7   6   6  221.21    8.56
  -7   6   6  205.64    8.95
  -7   6   6  216.02    7.66
   7   7  -6    0.03    0.87
  -7   7   6    4.32    1.38
   7   7  -6   -0.29    1.08
   7  -7  -6    1.00    0.99
   7  -7  -6    1.44    1.02
  -7  -7   6    2.44    1.36
  -7   7   6    0.05    1.20
   7  -8  -6  209.74    8.16
  -7  -8   6  208.86    8.71
   7  -8  -6  203.06    8.08
  -7  -9   6   13.71    2.40
  -8   0   6  310.62   10.93
  -8  -1   6   18.64    2.72
  -8   1   6   15.67    2.41
  -8  -2   6   24.93    3.16
  -8   2   6   21.97    2.83
  -8  -3   6   22.48    3.09
  -8   3   6   22.36    2.91
  -8  -4   6  267.82   10.21
   0   0  -7   -0.34    0.59
   0   0  -7   -0.86    0.57
   0   1  -7  169.82    4.46
   0  -1  -7  172.63    4.97
   0   1  -7  184.98    5.35
   0  -1  -7  172.32    5.46
   0   2  -7    0.58    0.59
   0  -2  -7    1.13    0.72
   0   2  -7    0.19    0.39
   0  -2  -7   -0.13    0.51
   0  -2  -7    0.49    1.00
   0  -3  -7  391.81   10.37
   0  -3   7  413.25    6.74
   0  -3  -7  389.80    8.62
   0  -3  -7  398.83    9.37
   0  -4  -7    0.06    0.69
   0  -4  -7    0.62    0.96
   0  -4  -7    0.36    0.57
   0  -4   7   -0.03    0.35
   0  -5  -7    6.88    1.32
   0  -5  -7    4.14    1.21
   0  -5  -7    3.91    0.93
   0  -5   7    4.82    0.76
   0  -6  -7    0.56    0.82
   0  -6   7    0.12    0.33
   0  -6  -7   -0.22    0.84
   0  -6  -7   -0.29    0.61
   0  -6   7    0.51    0.43
   0   6   7   -0.52    0.75
   0  -7   7  403.49    7.69
   0  -7   7  401.47    7.92
   0  -7  -7  405.74   10.59
   0   7   7  397.45   10.43
   0  -7  -7  399.50    9.74
   0  -7  -7  409.40   10.42
   0  -8  -7   -0.06    0.90
   0  -8  -7    0.13    0.80
   0   8   7    1.38    0.92
   0  -8   7    0.18    0.55
   0   8   7    1.79    1.22
   0   9   7   83.94    4.48
   0  -9  -7   82.35    4.60
   0   9   7   88.02    4.76
   0 -10  -7    0.41    0.85
   0  10   7    0.54    0.65
   0  10   7   -0.09    0.75
   0  11   7  308.05    9.40
   0  11   7  296.50    9.37
   0 -11  -7  314.51    9.31
   0 -12  -7    0.28    0.95
   0  12  -7    0.86    0.87
   0  12   7    0.33    0.84
   0  13  -7  150.77    6.17
   0  13   7  137.69    6.64
   0  14   7   -1.07    1.10
   0  15   7   57.28    4.54
   0  16   7    0.53    1.17
  -1   0  -7   -0.14    0.43
   1   0  -7   -0.33    0.58
  -1   0  -7   -0.18    0.63
   1   0  -7    1.15    0.57
  -1   0  -7    0.54    0.59
  -1   0   7    0.00    0.40
  -1  -1   7  260.58    5.95
   1   1  -7  253.46    5.38
  -1   1  -7  269.50    8.27
  -1  -1  -7  261.08    8.16
   1  -1  -7  260.90    6.08
  -1  -1  -7  249.05    7.54
  -1  -1  -7  243.54    6.34
  -1   1  -7  257.60    6.03
  -1   1  -7  257.44    5.73
   1   1  -7  260.05    7.12
  -1  -1  -7  257.21    6.24
   1  -1  -7  255.60    7.31
   1   2  -7    2.16    0.75
   1  -2  -7    2.15    0.88
  -1  -2  -7    1.20    0.66
  -1   2  -7    2.64    0.98
  -1  -2  -7    2.06    1.02
   1  -2  -7    2.15    0.61
  -1  -2  -7    3.36    0.84
  -1   2  -7    1.66    0.54
  -1  -2   7    1.85    0.57
  -1  -2  -7    1.50    0.81
  -1  -3   7   68.11    3.21
  -1  -3   7   65.63    2.88
  -1   3  -7   70.31    4.08
  -1  -3  -7   74.53    4.21
   1  -3  -7   61.01    3.04
  -1  -3  -7   62.03    3.59
  -1  -3  -7   63.08    3.24
   1   3  -7   66.67    3.36
   1  -3  -7   69.51    3.80
  -1  -3  -7   65.54    3.24
   1  -4  -7    4.75    1.24
  -1  -4  -7    3.99    0.97
  -1   4  -7    3.35    1.15
  -1  -4   7    4.07    0.94
  -1  -4  -7    4.21    1.39
   1  -4  -7    4.30    1.01
  -1  -4  -7    5.10    1.11
  -1   4   7    3.52    0.92
  -1  -4   7    2.97    0.80
  -1  -4  -7    3.48    0.98
  -1  -5   7  426.06    9.00
  -1   5   7  424.64    9.61
  -1  -5   7  432.09    8.78
  -1   5  -7  427.88   10.88
   1  -5  -7  414.64    9.38
  -1  -5  -7  424.64   10.94
  -1   5   7  440.11   11.27
  -1  -5  -7  411.71    9.66
   1  -5  -7  427.62   10.65
  -1  -5  -7  419.36    9.76
   1  -6  -7    0.71    0.98
  -1  -6  -7   -0.11    0.73
  -1  -6   7    0.66    0.67
  -1   6  -7    0.38    0.90
  -1  -6  -7    0.45    0.96
   1  -6  -7    0.75    0.77
  -1  -6  -7    0.17    0.66
  -1   6   7    0.06    0.62
  -1  -6   7    0.02    0.49
  -1   6   7    0.14    0.95
  -1  -7   7   18.86    1.75
  -1   7   7   19.96    2.05
   1  -7  -7   18.69    2.19
  -1   7  -7   17.85    2.13
  -1  -7   7   19.88    1.83
   1  -7  -7   15.98    2.10
   1  -7  -7   19.36    2.01
   1   7   7   18.50    2.02
  -1  -7  -7   21.64    2.45
  -1   7   7   16.41    2.20
  -1  -7  -7   21.95    2.22
  -1  -8  -7    2.58    0.97
   1  -8  -7    5.39    1.36
  -1  -8   7    2.71    0.86
  -1   8  -7    3.55    1.02
  -1  -8  -7    1.57    1.07
  -1   8   7    2.34    0.95
  -1  -8   7    3.27    0.89
   1   8   7    4.06    1.14
  -1   8   7    2.55    1.24
  -1   9   7  411.47   10.40
  -1  -9   7  384.83    9.16
   1  -9  -7  390.43   10.54
  -1   9  -7  390.39   10.33
   1   9   7  392.88   10.01
  -1   9   7  390.78   11.10
  -1  -9  -7  411.90   10.83
  -1  -9   7  395.86    8.99
  -1  -9  -7  379.36   10.22
  -1  10  -7    3.32    1.28
   1 -10  -7    3.21    1.24
  -1 -10  -7    2.04    1.08
  -1  10   7    3.51    1.27
  -1 -10   7    2.22    1.07
   1  10   7    0.70    0.96
  -1  10   7    1.77    1.13
  -1  11   7  111.97    5.52
  -1 -11   7  113.00    4.95
  -1  11  -7  113.65    5.36
   1 -11  -7  115.70    5.45
   1  11   7  106.89    5.09
  -1  11   7  111.36    5.95
  -1 -11  -7  117.09    5.63
  -1  12  -7    1.90    0.95
   1 -12  -7    2.54    1.15
  -1 -12   7    2.31    1.03
   1  12   7    2.13    0.92
  -1  12   7    0.74    1.18
  -1  13  -7  175.82    6.67
   1  13   7  173.90    6.92
   1 -13  -7  175.41    6.80
  -1  13   7  172.56    7.91
   1  14   7    0.83    0.73
  -1  14   7    2.63    1.55
  -1  15   7  206.78    9.24
  -1  16   7   -0.83    1.12
   2   0  -7    4.55    1.23
  -2   0  -7    6.82    1.52
  -2   0  -7    5.44    0.90
  -2   0   7    7.00    1.06
  -2   0  -7    5.33    1.05
  -2  -1   7  146.18    5.36
   2  -1  -7  141.84    4.29
  -2  -1   7  139.79    4.82
  -2   1   7  143.59    4.80
  -2   1  -7  134.34    5.82
  -2  -1  -7  131.96    5.81
  -2   1  -7  136.91    5.21
  -2  -1  -7  131.77    5.06
  -2  -1  -7  138.01    4.80
  -2   1  -7  134.93    4.48
   2   1  -7  136.51    5.40
   2  -1  -7  138.22    5.54
   2   2  -7    1.50    0.89
   2  -2  -7    1.31    0.73
  -2  -2   7    0.71    0.79
   2  -2  -7    0.95    0.63
  -2   2  -7    2.60    1.15
  -2  -2  -7    0.50    0.94
  -2  -2  -7    0.59    0.53
  -2   2  -7    0.78    0.55
  -2   2   7    1.22    0.60
  -2  -2   7    0.07    0.70
  -2   2  -7    0.54    0.81
  -2  -2  -7    1.99    0.99
  -2  -3   7  319.79    8.28
  -2   3   7  319.94    7.60
  -2  -3   7  320.44    7.92
   2  -3  -7  318.69    7.51
  -2   3  -7  332.38    9.43
  -2   3  -7  334.22    8.72
  -2  -3  -7  327.61    9.48
  -2  -3  -7  327.41    8.30
  -2  -3  -7  313.85    8.06
  -2   3  -7  328.27    7.00
   2   3  -7  325.97    8.58
   2  -3  -7  315.27    9.09
   2  -4  -7    3.52    1.15
  -2  -4   7    2.58    0.81
   2  -4  -7    2.80    0.89
  -2   4  -7    3.25    1.15
  -2  -4  -7    1.56    1.02
  -2  -4  -7    2.63    0.92
  -2   4   7    1.76    0.74
  -2  -4   7    1.14    0.81
  -2   4   7    1.92    1.12
   2  -5  -7    5.21    1.30
  -2  -5   7    6.39    1.15
   2  -5  -7    3.03    0.91
  -2   5  -7    7.71    1.66
  -2  -5  -7    4.55    1.32
  -2  -5  -7    4.06    0.99
  -2   5   7    5.94    1.14
  -2  -5   7    5.36    1.08
  -2   5   7    7.21    1.66
  -2  -6   7    8.56    1.40
   2  -6  -7   10.24    1.52
  -2   6  -7    8.50    1.60
  -2  -6  -7    9.66    1.70
  -2   6   7    7.25    1.29
  -2  -6   7    8.78    1.41
  -2   6   7    7.64    1.65
  -2   7   7  478.80   10.89
  -2  -7   7  503.82   10.90
   2  -7  -7  466.10   10.68
  -2   7  -7  479.11   11.72
  -2   7   7  495.57   12.83
  -2  -7  -7  497.33   12.24
  -2  -7   7  471.36   10.75
  -2  -8   7    1.69    0.75
  -2   8  -7    2.98    1.20
  -2  -8  -7    3.00    1.27
  -2   8   7    2.66    1.01
  -2  -8   7    3.19    1.08
  -2   8   7    3.29    1.40
  -2   9   7   35.03    2.88
  -2  -9   7   40.25    2.93
   2   9   7   41.20    2.77
  -2   9  -7   38.60    3.11
  -2   9   7   41.75    3.68
  -2  -9   7   41.56    3.00
  -2 -10   7    1.70    0.92
  -2  10  -7    0.70    0.82
  -2  10   7    2.84    1.02
   2 -10  -7    0.67    0.96
  -2 -10   7    2.52    0.97
   2  10   7    3.02    0.89
  -2  10   7    3.21    1.35
  -2 -11   7  239.47    7.84
   2 -11  -7  225.73    7.81
  -2  11   7  244.51    9.47
  -2  11  -7  227.20    7.73
   2 -12  -7    1.57    1.03
  -2  12  -7    1.39    0.87
  -2 -12   7    4.29    1.46
  -2  12   7    2.82    1.81
  -2 -13   7  190.81    7.32
   2 -13  -7  182.85    6.97
  -2  13   7  190.62    8.74
  -2  13  -7  184.53    6.91
  -2 -14   7    0.86    0.84
  -2  14   7   -2.49    1.74
   3   0  -7    0.48    1.00
  -3   0   7    0.80    0.93
  -3   0  -7    0.68    1.12
  -3   0  -7    1.07    0.72
  -3   0   7    0.98    0.53
  -3   0   7   -0.59    0.70
  -3  -1   7  235.39    7.47
  -3   1   7  236.15    5.82
  -3  -1   7  234.46    7.10
  -3   1   7  227.57    6.90
  -3   1  -7  259.46    8.30
  -3  -1  -7  243.50    8.13
  -3  -1  -7  224.71    6.64
  -3   1  -7  224.67    6.40
   3   1  -7  230.09    7.65
   3  -1  -7  225.27    7.70
   3   2  -7    2.85    1.10
   3  -2  -7    2.59    0.99
  -3  -2   7    3.04    1.02
  -3   2  -7    2.05    0.88
  -3  -2  -7    1.71    0.93
  -3  -2  -7    1.49    0.58
  -3   2  -7    2.21    0.75
  -3   2   7    4.69    0.94
  -3  -2   7    3.40    0.93
  -3   2   7    2.65    0.85
  -3   3   7   32.31    2.24
  -3  -3   7   30.56    2.60
  -3  -3   7   30.35    2.50
  -3   3   7   30.92    2.47
  -3   3  -7   31.88    2.87
  -3  -3  -7   30.10    2.86
  -3  -3  -7   31.90    2.50
   3   3  -7   32.85    2.84
  -3   3  -7   31.51    2.15
  -3  -4   7    1.50    0.88
  -3   4  -7    1.76    1.17
  -3  -4  -7    0.81    0.71
  -3   4   7    2.09    0.77
  -3  -4   7    1.83    0.89
  -3   4   7    1.62    1.28
  -3  -5   7  444.43   10.98
  -3  -5   7  451.65   10.77
   3  -5  -7  444.53    9.94
  -3   5   7  493.18   13.03
  -3   5  -7  450.33   11.48
  -3   5   7  454.31   10.00
  -3  -6   7    2.16    0.90
   3  -6  -7    4.39    1.15
  -3   6  -7    2.60    1.16
  -3   6   7    2.23    0.94
  -3  -6   7    2.41    0.99
  -3  -7   7    3.76    1.14
   3  -7  -7    3.46    1.11
  -3   7  -7    2.85    1.24
  -3   7   7    2.63    0.95
  -3  -7   7    4.94    1.19
  -3   7   7    2.43    1.25
  -3  -8   7    4.11    1.24
  -3   8  -7    6.34    1.45
  -3   8   7    4.71    1.16
  -3  -8   7    5.53    1.34
  -3   8   7    4.90    1.70
  -3  -9   7  321.40    9.37
  -3   9   7  320.99   10.88
  -3   9  -7  324.09    9.46
  -3   9   7  314.66    9.09
  -3  -9   7  318.47    9.48
  -3 -10   7    2.12    0.98
  -3  10  -7    1.89    1.02
  -3  10   7    3.43    1.27
  -3 -10   7    3.19    1.25
  -3  10   7    4.52    1.68
  -3 -11   7  113.21    5.58
  -3  11   7  111.58    6.57
  -3  11  -7   97.01    5.05
  -3 -11   7  106.89    5.52
  -3  12  -7    8.54    1.56
  -3 -12   7    6.10    1.39
  -3  12   7    3.71    1.35
  -3 -13   7  143.30    6.59
  -3  13   7  145.51    7.89
  -3 -14   7    7.21    1.60
  -3 -15   7  213.14    8.45
  -4   0   7   16.38    2.14
  -4   0  -7   11.95    1.52
  -4   0   7   15.25    1.86
  -4  -1   7  110.69    5.38
  -4   1   7  107.65    5.32
  -4  -1   7  102.01    4.91
  -4   1   7  109.30    5.02
  -4  -1  -7  100.16    4.60
  -4   1  -7  105.58    4.55
  -4  -2   7    5.15    1.50
  -4   2  -7    5.16    1.15
  -4   2   7    3.81    0.86
  -4  -2   7    3.22    1.11
  -4   2   7    2.89    1.02
  -4  -3   7  388.20   10.65
  -4  -3   7  388.67   10.32
  -4   3   7  380.09    9.97
  -4   3   7  404.83   11.92
  -4   3   7  391.81    8.69
  -4   3  -7  360.44    8.82
  -4  -4   7    7.59    1.55
  -4   4   7    5.78    1.16
  -4  -4   7    5.85    1.41
  -4   4   7    4.79    1.15
  -4   4   7    7.05    1.66
  -4  -5   7    5.53    1.29
  -4   5   7    4.27    1.01
  -4  -5   7    5.34    1.35
  -4   5   7    3.76    1.51
  -4  -6   7    5.40    1.43
  -4   6   7    2.52    0.93
  -4  -6   7    3.20    1.10
  -4   6   7    3.37    1.41
  -4  -7   7  306.67    9.41
  -4   7   7  310.11   10.83
  -4   7   7  303.11    8.59
  -4  -7   7  321.89    9.93
  -4  -8   7    0.97    0.94
  -4   8   7    1.48    0.92
  -4  -8   7    1.06    0.90
  -4   8   7    2.78    1.41
  -4  -9   7   54.12    3.90
  -4   9   7   53.12    4.55
  -4   9   7   42.54    3.28
  -4  -9   7   52.75    3.97
  -4 -10   7    8.78    1.70
  -4 -10   7    9.44    1.81
  -4  10   7   12.85    2.54
  -4 -11   7  237.95    8.71
  -4 -11   7  236.34    8.91
  -4 -12   7    3.38    1.44
  -4 -13   7  151.54    7.14
  -4 -14   7    8.00    1.82
  -5   0   7    3.03    1.46
  -5   0   7   -0.36    0.95
  -5  -1   7  210.87    8.09
  -5   1   7  210.73    8.04
  -5  -1   7  224.31    7.96
  -5   1   7  231.28    8.00
  -5  -2   7    8.23    1.73
  -5   2   7   10.44    1.88
  -5  -2   7    9.72    1.66
  -5   2   7    7.53    1.52
  -5  -3   7   49.21    3.85
  -5  -3   7   47.03    3.67
  -5   3   7   46.97    3.50
  -5   3   7   57.21    4.54
  -5  -4   7    8.98    1.90
  -5   4   7    8.65    1.33
  -5  -4   7    9.40    1.79
  -5   4   7    8.85    1.74
  -5   4   7   10.94    2.14
  -5  -5   7  300.98    9.65
  -5   5   7  303.76    9.42
  -5   5   7  313.79   11.01
  -5   5   7  293.40    8.18
  -5  -5   7  291.84    9.82
  -5  -6   7    6.25    1.57
  -5   6   7    5.82    1.25
  -5  -6   7    5.87    1.45
  -5   6   7    8.76    2.15
  -5   7   7    5.02    1.20
  -5  -7   7    3.79    1.30
  -5   7   7    5.03    1.74
  -5   8   7    7.33    1.44
  -5  -8   7    4.43    1.43
  -5   8   7    8.01    2.09
  -5  -9   7  288.41    9.94
  -5 -10   7    0.68    1.21
  -5 -11   7  100.08    5.85
  -5 -12   7   18.25    2.50
  -6   0   7    8.85    1.79
  -6  -1   7  116.07    6.04
  -6   1   7  119.01    6.12
  -6  -2   7    9.45    1.86
  -6   2   7    8.29    1.75
  -6  -3   7  201.56    8.13
  -6   3   7  187.16    7.72
  -6  -4   7   17.27    2.57
  -6   4   7   11.58    2.02
  -6  -5   7    2.56    1.19
  -6   5   7    2.08    1.10
  -6  -6   7    7.82    1.81
  -6  -7   7  288.97   10.18
  -6  -8   7    4.68    1.46
  -6  -9   7   26.87    3.16
  -6 -10   7    5.81    1.67
  -7   0   7    0.21    1.17
  -7  -1   7  159.32    7.54
  -7   1   7  157.16    7.49
  -7  -2   7   10.54    2.01
  -7   2   7    9.26    1.89
  -7  -3   7   31.85    3.45
  -7   3   7   30.75    3.28
  -7  -4   7    7.96    2.10
  -7   4   7    2.83    1.22
  -7  -5   7  219.16    9.17
   0   8   8   94.73    5.20
   0   9   8    1.48    1.33
   0  10   8  317.99   10.12
   0  11   8    1.53    1.19
  -1   7   8    1.65    1.40
  -1   8   8  258.27    9.30
  -1   9   8    1.12    1.16
  -1  10   8   40.00    3.79
  -1  11   8   -0.25    0.97
  -1  12   8  266.01   10.06
  -1  13   8    1.17    1.06
  -2   6   8  222.82    7.19
  -2   6   8  232.12    9.01
  -2   7   8    4.02    0.97
  -2   7   8    4.06    1.78
  -2   8   8  103.93    5.07
  -2   8   8   96.91    5.92
  -2   9   8    2.34    1.35
  -2  10   8  206.52    8.91
  -2  11   8    2.80    1.49
  -3  -2   8  316.12    9.23
  -3  -3   8    3.78    1.26
  -3  -4   8  103.41    5.06
  -3   6   8  204.56    8.81
  -3   7   8    4.38    1.86
  -3   8   8  208.15    9.10
  -4   0   8  333.72    9.47
  -4  -1   8    0.78    0.83
  -4  -1   8    0.80    0.97
  -4   1   8   -0.10    0.93
  -4  -2   8   43.93    3.54
  -4  -2   8   50.02    3.52
  -4   2   8   47.25    3.40
  -4  -3   8    7.27    1.49
  -4  -3   8    4.13    1.15
  -4  -4   8  231.24    8.34
  -4  -4   8  227.22    7.96
  -4  -5   8    2.12    1.29
  -5   0   8   -1.73    1.42
  -5  -1   8    7.14    1.59
  -5   1   8    6.91    1.55
  -5  -2   8  246.46    8.78
  -5   2   8  252.55    8.67
  -5  -3   8    0.16    0.89
  -5   3   8   -0.38    1.09
  -5  -4   8   62.35    4.44
  -5  -5   8   15.06    2.44
  -5  -6   8  153.55    7.13
  -5  -7   8    1.34    1.42
  -6   0   8  307.24   10.34
  -6  -1   8    1.90    0.99
  -6   1   8    1.32    1.04
  -6  -2   8    8.32    2.03
  -6   2   8    5.18    1.36
  -6  -3   8    9.71    2.06
  -6   3   8   10.12    1.77
  -6  -4   8  168.16    7.77
  -6   4   8  163.52    7.37
  -6  -5   8   -0.64    1.02
   0   0   0    0.00    0.00
;
_shelx_hkl_checksum              41722
loop_
_symmetry_equiv_pos_as_xyz
'x, y, z'
'-x, -y, z+1/2'
'x+1/2, -y+1/2, z'
'-x+1/2, y+1/2, z+1/2'
loop_
_atom_site_label
_atom_site_type_symbol
_atom_site_fract_x
_atom_site_fract_y
_atom_site_fract_z
_atom_site_U_iso_or_equiv
_atom_site_adp_type
_atom_site_occupancy
_atom_site_symmetry_multiplicity
_atom_site_calc_flag
_atom_site_refinement_flags
_atom_site_disorder_assembly
_atom_site_disorder_group
Dy1 Dy 0.744151(9) 0.605544(4) 0.40591(15) 0.01104(4) Uani 1 1 d . . .
O1 O 0.7215(3) 0.6541(2) -0.2627(6) 0.0275(7) Uani 1 1 d . . .
O3 O 0.8541(2) 0.51034(11) 0.2238(4) 0.0254(4) Uani 1 1 d . . .
O4 O 0.6541(2) 0.50168(11) 0.5936(4) 0.0273(5) Uani 1 1 d . . .
O5 O 0.60311(18) 0.71588(8) 0.4082(6) 0.0249(3) Uani 1 1 d . . .
C3 C 0.9867(3) 0.75330(14) 0.3431(4) 0.0216(7) Uani 1 1 d . . .
H3 H 0.9295 0.7779 0.2472 0.026 Uiso 1 1 calc R . .
C4 C 0.5289(4) 0.47807(18) 0.6467(6) 0.0337(8) Uani 1 1 d . . .
H4 H 0.4460 0.5017 0.5879 0.040 Uiso 1 1 calc R . .
C5 C 0.9840(4) 0.4959(2) 0.1625(6) 0.0218(6) Uani 1 1 d . . .
H5 H 1.0553 0.5338 0.1704 0.026 Uiso 1 1 calc R . .
C6 C 0.7381(3) 0.62219(14) -0.0982(17) 0.0230(5) Uani 1 1 d . . .
H6 H 0.7392 0.5710 -0.1004 0.028 Uiso 1 1 calc R . .
O6 O 0.9698(2) 0.56241(10) 0.5925(3) 0.0239(4) Uani 1 1 d . . .
O7 O 0.4939(2) 0.42954(11) 0.7620(3) 0.0286(5) Uani 1 1 d . . .
O8 O 0.94174(19) 0.69171(9) 0.3978(7) 0.0277(4) Uani 1 1 d . . .
O9 O 0.7530(2) 0.6518(3) 0.0656(7) 0.0283(9) Uani 1 1 d . . .
N1 N 1.1727(3) 0.67814(15) 0.7268(4) 0.0325(6) Uani 1 1 d . . .
H1A H 1.1679 0.7231 0.6709 0.039 Uiso 1 1 calc R . .
H1B H 1.1093 0.6484 0.6584 0.039 Uiso 1 1 calc R . .
C1 C 1.1203(5) 0.6830(2) 0.9307(7) 0.0662(13) Uani 1 1 d . . .
H1C H 1.1312 0.6359 0.9941 0.099 Uiso 1 1 calc R . .
H1D H 1.0146 0.6974 0.9325 0.099 Uiso 1 1 calc R . .
1E H 1.1802 0.7189 1.0010 0.099 Uiso 1 1 calc R . .
C2 C 1.3280(6) 0.6504(2) 0.7086(11) 0.0836(18) Uani 1 1 d . . .
H2A H 1.3984 0.6863 0.7596 0.125 Uiso 1 1 calc R . .
H2B H 1.3504 0.6410 0.5708 0.125 Uiso 1 1 calc R . .
H2C H 1.3377 0.6056 0.7833 0.125 Uiso 1 1 calc R . .
loop_
_atom_site_aniso_label
_atom_site_aniso_U_11
_atom_site_aniso_U_22
_atom_site_aniso_U_33
_atom_site_aniso_U_23
_atom_site_aniso_U_13
_atom_site_aniso_U_12
Dy1 0.01081(5) 0.01055(5) 0.01175(6) -0.00114(12) -0.00053(13) -0.00007(3)
O1 0.0409(13) 0.0277(17) 0.0139(15) 0.0043(9) -0.0030(14) 0.0068(14)
O3 0.0244(10) 0.0278(11) 0.0241(11) -0.0058(9) 0.0027(8) 0.0096(8)
O4 0.0227(10) 0.0307(12) 0.0285(12) 0.0094(9) 0.0029(8) -0.0106(9)
O5 0.0254(8) 0.0214(8) 0.0279(9) -0.0021(16) -0.0043(17) 0.0114(7)
C3 0.0246(14) 0.0208(15) 0.0195(16) 0.0029(10) -0.0039(10) -0.0022(12)
C4 0.035(2) 0.034(2) 0.0312(19) -0.0005(16) 0.0050(15) -0.0086(14)
C5 0.0234(17) 0.0131(12) 0.0288(15) 0.0014(10) 0.0072(12) -0.0039(12)
C6 0.0292(12) 0.0230(11) 0.0168(13) -0.003(4) 0.003(2) 0.0018(9)
O6 0.0222(10) 0.0193(10) 0.0302(11) 0.0063(8) -0.0080(8) 0.0035(8)
O7 0.0249(10) 0.0300(12) 0.0311(12) 0.0066(9) 0.0075(9) -0.0085(9)
O8 0.0262(8) 0.0222(9) 0.0348(11) 0.0078(16) -0.0056(17) -0.0116(7)
O9 0.0426(18) 0.0292(19) 0.0131(15) 0.004 -0.0001(10) 0.000
N1 0.0324(15) 0.0320(15) 0.0331(15) 0.0111(12) -0.0080(12) -0.0074(11)
C1 0.085(3) 0.062(2) 0.051(3) -0.014(2) 0.023(3) -0.032(2)
C2 0.054(3) 0.046(3) 0.151(5) 0.019(3) 0.044(3) 0.002(2)
loop_
_atom_type_symbol
_atom_type_description
_atom_type_scat_dispersion_real
_atom_type_scat_dispersion_imag
_atom_type_scat_source
C C 0.0033 0.0016 'International Tables Vol C Tables 4.2.6.8 and 6.1.1.4'
H H 0.0000 0.0000 'International Tables Vol C Tables 4.2.6.8 and 6.1.1.4'
N N 0.0061 0.0033 'International Tables Vol C Tables 4.2.6.8 and 6.1.1.4'
O O 0.0106 0.0060 'International Tables Vol C Tables 4.2.6.8 and 6.1.1.4'
Dy Dy -0.1892 4.4098 'International Tables Vol C Tables 4.2.6.8 and 6.1.1.4'
loop_
_geom_angle_atom_site_label_1
_geom_angle_atom_site_label_2
_geom_angle_atom_site_label_3
_geom_angle
_geom_angle_site_symmetry_1
_geom_angle_site_symmetry_3
O3 Dy1 O8 100.42(9) . .
O3 Dy1 O5 148.59(13) . .
O8 Dy1 O5 79.42(6) . .
O3 Dy1 O7 87.08(8) . 2_664
O8 Dy1 O7 144.86(11) . 2_664
O5 Dy1 O7 76.87(7) . 2_664
O3 Dy1 O4 80.02(7) . .
O8 Dy1 O4 141.50(12) . .
O5 Dy1 O4 119.61(10) . .
O7 Dy1 O4 73.49(7) 2_664 .
O3 Dy1 O1 142.58(11) . 1_556
O8 Dy1 O1 80.55(14) . 1_556
O5 Dy1 O1 68.74(14) . 1_556
O7 Dy1 O1 113.70(9) 2_664 1_556
O4 Dy1 O1 77.07(13) . 1_556
O3 Dy1 O9 75.55(13) . .
O8 Dy1 O9 73.93(14) . .
O5 Dy1 O9 74.28(15) . .
O7 Dy1 O9 74.90(9) 2_664 .
O4 Dy1 O9 140.66(13) . .
O1 Dy1 O9 138.13(6) 1_556 .
O3 Dy1 O6 72.52(7) . .
O8 Dy1 O6 68.43(8) . .
O5 Dy1 O6 133.38(9) . .
O7 Dy1 O6 145.14(6) 2_664 .
O4 Dy1 O6 75.29(7) . .
O1 Dy1 O6 73.28(9) 1_556 .
O9 Dy1 O6 124.12(8) . .
C6 O1 Dy1 129.4(4) . 1_554
C5 O3 Dy1 135.5(2) . .
C4 O4 Dy1 135.9(2) . .
C3 O5 Dy1 144.3(2) 3_465 .
O8 C3 O5 124.2(3) . 3_565
O8 C3 H3 117.9 . .
O5 C3 H3 117.9 3_565 .
O7 C4 O4 131.6(3) . .
O7 C4 H4 114.2 . .
O4 C4 H4 114.2 . .
O6 C5 O3 127.8(3) 2_764 .
O6 C5 H5 116.1 2_764 .
O3 C5 H5 116.1 . .
O9 C6 O1 126.6(2) . .
O9 C6 H6 116.7 . .
O1 C6 H6 116.7 . .
C5 O6 Dy1 137.1(2) 2_765 .
C4 O7 Dy1 132.4(2) . 2_665
C3 O8 Dy1 147.8(2) . .
C6 O9 Dy1 133.2(4) . .
C1 N1 C2 113.4(4) . .
C1 N1 H1A 108.9 . .
C2 N1 H1A 108.9 . .
C1 N1 H1B 108.9 . .
C2 N1 H1B 108.9 . .
H1A N1 H1B 107.7 . .
N1 C1 H1C 109.5 . .
N1 C1 H1D 109.5 . .
H1C C1 H1D 109.5 . .
N1 C2 H2A 109.5 . .
N1 C2 H2B 109.5 . .
H2A C2 H2B 109.5 . .
N1 C2 H2C 109.5 . .
H2A C2 H2C 109.5 . .
H2B C2 H2C 109.5 . .
loop_
_geom_bond_atom_site_label_1
_geom_bond_atom_site_label_2
_geom_bond_distance
_geom_bond_site_symmetry_2
Dy1 O3 2.325(2) .
Dy1 O8 2.3307(15) .
Dy1 O5 2.3525(15) .
Dy1 O7 2.380(2) 2_664
Dy1 O4 2.400(2) .
Dy1 O1 2.400(5) 1_556
Dy1 O9 2.433(5) .
Dy1 O6 2.464(2) .
O1 C6 1.255(11) .
O1 Dy1 2.400(5) 1_554
O3 C5 1.235(4) .
O4 C4 1.228(4) .
O5 C3 1.240(3) 3_465
C3 O8 1.241(3) .
C3 O5 1.240(3) 3_565
C3 H3 0.9300 .
C4 O7 1.212(4) .
C4 H4 0.9300 .
C5 O6 1.226(4) 2_764
C5 H5 0.9300 .
C6 O9 1.230(12) .
C6 H6 0.9300 .
O6 C5 1.226(4) 2_765
O7 Dy1 2.380(2) 2_665
N1 C1 1.445(5) .
N1 C2 1.452(5) .
N1 H1A 0.9000 .
N1 H1B 0.9000 .
C1 H1C 0.9600 .
C1 H1D 0.9600 .
2 H2A 0.9600 .
C2 H2B 0.9600 .
C2 H2C 0.9600 .
loop_
_geom_hbond_atom_site_label_D
_geom_hbond_atom_site_label_H
_geom_hbond_atom_site_label_A
_geom_hbond_distance_DH
_geom_hbond_distance_HA
_geom_hbond_distance_DA
_geom_hbond_angle_DHA
_geom_hbond_site_symmetry_A
N1 H1A O5 0.90 2.16 2.939(4) 145.0 3_565
N1 H1A O1 0.90 2.32 3.076(5) 141.5 3_566
N1 H1B O6 0.90 2.03 2.893(3) 160.6 .
N1 H1B O8 0.90 2.41 3.000(4) 123.2 .
