#------------------------------------------------------------------------------
#$Date: 2020-03-17 04:32:56 +0200 (Tue, 17 Mar 2020) $
#$Revision: 249423 $
#$URL: file:///home/coder/svn-repositories/cod/cif/7/24/01/7240135.cif $
#------------------------------------------------------------------------------
#
# This file is available in the Crystallography Open Database (COD),
# http://www.crystallography.net/
#
# All data on this site have been placed in the public domain by the
# contributors.
#
data_7240135
loop_
_publ_author_name
'Zhang, Yuanbin'
'Wang, Lingyao'
'Hu, Jianbo'
'Duttwyler, Simon'
'Cui, Xili'
'Xing, Huabin'
_publ_section_title
;
 Solvent dependant supramolecular self-assembly of boron cage pillared
 metal-organic frameworks for selective gas separation
;
_journal_name_full               CrystEngComm
_journal_paper_doi               10.1039/D0CE00142B
_journal_year                    2020
_chemical_formula_sum            'C6 H7 B3 Cu0.25 N'
_chemical_formula_weight         141.44
_space_group_crystal_system      tetragonal
_space_group_IT_number           83
_space_group_name_Hall           '-P 4'
_space_group_name_H-M_alt        'P 4/m'
_atom_sites_solution_hydrogens   mixed
_audit_creation_method           SHELXL-2018/3
_audit_update_record
;
2019-05-21 deposited with the CCDC.	2020-03-16 downloaded from the CCDC.
;
_cell_angle_alpha                90
_cell_angle_beta                 90
_cell_angle_gamma                90
_cell_formula_units_Z            4
_cell_length_a                   13.6129(6)
_cell_length_b                   13.6129(6)
_cell_length_c                   10.0610(6)
_cell_measurement_reflns_used    9920
_cell_measurement_temperature    253(2)
_cell_measurement_theta_max      54.19
_cell_measurement_theta_min      5.53
_cell_volume                     1864.41(16)
_computing_structure_refinement  'SHELXL-2018/3 (Sheldrick, 2018)'
_computing_structure_solution    'SHELXT 2014/5 (Sheldrick, 2014)'
_diffrn_ambient_temperature      253(2)
_diffrn_measured_fraction_theta_full 0.987
_diffrn_measured_fraction_theta_max 0.987
_diffrn_measurement_device_type  'Bruker D8 Venture'
_diffrn_radiation_type           GaK\a
_diffrn_radiation_wavelength     1.34139
_diffrn_reflns_av_R_equivalents  0.0726
_diffrn_reflns_av_unetI/netI     0.0318
_diffrn_reflns_Laue_measured_fraction_full 0.987
_diffrn_reflns_Laue_measured_fraction_max 0.987
_diffrn_reflns_limit_h_max       16
_diffrn_reflns_limit_h_min       -16
_diffrn_reflns_limit_k_max       16
_diffrn_reflns_limit_k_min       -16
_diffrn_reflns_limit_l_max       11
_diffrn_reflns_limit_l_min       -12
_diffrn_reflns_number            21831
_diffrn_reflns_point_group_measured_fraction_full 0.987
_diffrn_reflns_point_group_measured_fraction_max 0.987
_diffrn_reflns_theta_full        53.495
_diffrn_reflns_theta_max         53.495
_diffrn_reflns_theta_min         5.534
_exptl_absorpt_coefficient_mu    1.620
_exptl_crystal_density_diffrn    0.504
_exptl_crystal_description       BLOCK
_exptl_crystal_F_000             289
_exptl_crystal_size_max          0.220
_exptl_crystal_size_mid          0.190
_exptl_crystal_size_min          0.160
_refine_diff_density_max         0.408
_refine_diff_density_min         -0.163
_refine_diff_density_rms         0.036
_refine_ls_extinction_method     none
_refine_ls_goodness_of_fit_ref   1.013
_refine_ls_hydrogen_treatment    constr
_refine_ls_matrix_type           full
_refine_ls_number_parameters     88
_refine_ls_number_reflns         1769
_refine_ls_number_restraints     18
_refine_ls_restrained_S_all      1.014
_refine_ls_R_factor_all          0.0477
_refine_ls_R_factor_gt           0.0467
_refine_ls_shift/su_max          0.001
_refine_ls_shift/su_mean         0.000
_refine_ls_structure_factor_coef Fsqd
_refine_ls_weighting_details
'w=1/[\s^2^(Fo^2^)+(0.1495P)^2^+0.0057P] where P=(Fo^2^+2Fc^2^)/3'
_refine_ls_weighting_scheme      calc
_refine_ls_wR_factor_gt          0.1596
_refine_ls_wR_factor_ref         0.1607
_reflns_Friedel_coverage         0.000
_reflns_number_gt                1714
_reflns_number_total             1769
_reflns_threshold_expression     'I > 2\s(I)'
_cod_data_source_file            d0ce00142b2.cif
_cod_data_source_block           20181226zh_zju_b12h12_2cu_0m_a_sq
_cod_original_cell_volume        1864.4(2)
_cod_database_code               7240135
_shelx_shelxl_version_number     2018/3
_shelx_space_group_comment
;
The symmetry employed for this shelxl refinement is uniquely defined
by the following loop, which should always be used as a source of
symmetry information in preference to the above space-group names.
They are only intended as comments.
;
_shelx_estimated_absorpt_t_min   0.717
_shelx_estimated_absorpt_t_max   0.782
_shelx_res_file
;
TITL 20181226ZH_ZJU_B12H12_2Cu_0m_a.res in P4/m
    20181226zh_zju_b12h12_2cu_0m_a_sq.res
    created by SHELXL-2018/3 at 14:21:24 on 29-Dec-2018
CELL  1.34139  13.6129  13.6129  10.0610   90.000   90.000   90.000
ZERR   4.000   0.0006   0.0006   0.0006    0.000    0.000    0.000
LATT 1
SYMM -X, -Y, Z
SYMM -Y, X, Z
SYMM Y, -X, Z
SFAC C  H  B  Cu N
UNIT 24 28 12 1 4
OMIT    -2   3   0
OMIT     2   3   0
OMIT    -3   4   0
OMIT     3   4   0
OMIT     2   2   0
OMIT    -2   3   2
OMIT     2   3   2
OMIT     2   3   1
OMIT  -3.00 107.00
L.S. 50
ACTA
BOND $H
FMAP 2
PLAN 20
ABIN
SIZE .22 .19 .16
ISOR .001 B2 B1 B2'
FREE C1   C1'
FREE C1'  C2
FREE C1   C2'
FREE C2'  C2
TEMP -20.300
WGHT    0.149500    0.005700
FVAR       1.71230   0.50332
B1    3    0.601720    0.543767    0.923857    10.45000    0.05298    0.05511 =
         0.05419    0.00032    0.00107   -0.00207
AFIX   3
H1A   2    0.676271    0.582124    0.872261    10.45000   -1.20000
PART 2
AFIX   0
B2'   3    0.512169    0.610987    0.925338    10.40000    0.04707    0.04577 =
         0.04692    0.00216   -0.00034   -0.00067
AFIX   3
H2A   2    0.553739    0.694450    0.885830    10.40000   -1.20000
PART 1
AFIX   0
B2    3    0.565046    0.589773    0.923963    10.40000    0.04883    0.04749 =
         0.04811    0.00077    0.00106   -0.00260
AFIX   3
H2B   2    0.606045    0.663601    0.871112    10.40000   -1.20000
PART 0
AFIX   0
B3    3    0.500000    0.500000    0.833664    10.25000    0.04641    0.04641 =
         0.04679    0.00000    0.00000    0.00000
AFIX   3
H3    2    0.500000    0.500000    0.731340    10.25000   -1.20000
PART 1
AFIX   0
C1    1    0.546742    0.302220    0.404938    21.00000    0.06001    0.03024 =
         0.05382    0.00298    0.01270    0.00121
AFIX  43
H1    2    0.579361    0.337247    0.337593    21.00000   -1.20000
AFIX   0
C2    1    0.548658    0.201476    0.402066    21.00000    0.09106    0.02871 =
         0.05682   -0.00396    0.01475    0.01473
AFIX  43
H2    2    0.582672    0.168363    0.334215    21.00000   -1.20000
PART 0
AFIX   0
C3    1    0.500046    0.148924    0.500000    10.50000    0.08247    0.02352 =
         0.06838    0.00000    0.00000    0.00024
C4    1    0.499673    0.043115    0.500000    10.50000    0.10554    0.02949 =
         0.07522    0.00000    0.00000   -0.00001
PART 2
C1'   1    0.453410    0.302105    0.404649   -21.00000    0.05822    0.03034 =
         0.05380    0.00400   -0.01212   -0.00364
AFIX  43
H1'   2    0.421373    0.337186    0.336846   -21.00000   -1.20000
AFIX   0
C2'   1    0.450566    0.201575    0.402367   -21.00000    0.08457    0.02743 =
         0.05918   -0.00442   -0.01457   -0.01330
AFIX  43
H2'   2    0.415510    0.168501    0.335458   -21.00000   -1.20000
PART 0
AFIX   0
CU1   4    0.500000    0.500000    0.500000    10.12500    0.01768    0.01768 =
         0.05685    0.00000    0.00000    0.00000
N1    5    0.500188    0.352153    0.500000    10.50000    0.03349    0.02355 =
         0.05464    0.00000    0.00000   -0.00012
HKLF 4




REM  20181226ZH_ZJU_B12H12_2Cu_0m_a.res in P4/m
REM wR2 = 0.1607, GooF = S = 1.013, Restrained GooF = 1.014 for all data
REM R1 = 0.0467 for 1714 Fo > 4sig(Fo) and 0.0477 for all 1769 data
REM 88 parameters refined using 18 restraints

END

WGHT      0.1057      0.1414

REM Highest difference peak  0.408,  deepest hole -0.163,  1-sigma level  0.036
Q1    1   0.6459  0.6412  0.8679  11.00000  0.05    0.29
Q2    1   0.5796  0.5777  0.9472  11.00000  0.05    0.23
Q3    1   0.6825  0.5208  0.8848  11.00000  0.05    0.19
Q4    1   0.5397  0.6028  1.0000  10.50000  0.05    0.18
Q5    1   0.5471  0.6039  0.9637  11.00000  0.05    0.17
Q6    1   0.5000  0.5000  0.6586  10.25000  0.05    0.17
Q7    1   0.4814  0.6243  0.9830  11.00000  0.05    0.14
Q8    1   0.4893  0.3694  0.5000  10.50000  0.05    0.14
Q9    1   0.6384  0.2394  0.3775  11.00000  0.05    0.11
Q10   1   0.5137  0.5810  0.8764  11.00000  0.05    0.11
Q11   1   0.5834  0.2504  0.4499  11.00000  0.05    0.10
Q12   1   0.0459  0.0346  0.0000  10.50000  0.05    0.10
Q13   1   0.3648  0.2256  0.3799  11.00000  0.05    0.10
Q14   1   0.3975  0.0515  0.5000  10.50000  0.05    0.10
Q15   1   0.3907  0.2391  0.5000  10.50000  0.05    0.10
Q16   1   0.6007  0.2444  0.5000  10.50000  0.05    0.10
Q17   1   0.5286  0.1588  0.5000  10.50000  0.05    0.09
Q18   1   0.5191  0.7223  1.0000  10.50000  0.05    0.09
Q19   1   0.3531  0.3487  0.5000  10.50000  0.05    0.09
Q20   1   0.7454  0.0620  0.5000  10.50000  0.05    0.09
;
_shelx_res_checksum              95396
_shelx_fab_file
;
   -1    3    0     -4.54      0.00
    1    3    0     -4.84      0.00
    3    3    0      1.41      0.00
   -2    4    0     -0.84      0.00
   -1    4    0      6.71      0.00
    0    4    0     11.36      0.00
    1    4    0      8.91      0.00
    2    4    0     -0.50      0.00
    4    4    0      2.37      0.00
   -4    5    0      2.01      0.00
   -3    5    0      1.71      0.00
   -2    5    0     -5.15      0.00
   -1    5    0      1.04      0.00
    0    5    0      5.42      0.00
    1    5    0      0.41      0.00
    2    5    0     -4.75      0.00
    3    5    0      2.33      0.00
    4    5    0      1.31      0.00
    5    5    0      0.13      0.00
   -5    6    0     -2.26      0.00
   -4    6    0     -1.60      0.00
   -3    6    0      2.76      0.00
   -2    6    0     -1.94      0.00
   -1    6    0     -2.89      0.00
    0    6    0     -2.04      0.00
    1    6    0     -3.83      0.00
    2    6    0     -1.72      0.00
    3    6    0      1.84      0.00
    4    6    0     -2.03      0.00
    5    6    0     -1.56      0.00
    6    6    0     -0.56      0.00
   -6    7    0      1.89      0.00
   -5    7    0      1.07      0.00
   -4    7    0     -2.64      0.00
   -3    7    0      1.08      0.00
   -2    7    0      2.86      0.00
   -1    7    0     -0.06      0.00
    0    7    0     -0.62      0.00
    1    7    0     -1.37      0.00
    2    7    0      2.92      0.00
    3    7    0      1.44      0.00
    4    7    0     -1.79      0.00
    5    7    0      0.75      0.00
    6    7    0      1.52      0.00
    7    7    0     -0.65      0.00
   -7    8    0     -1.23      0.00
   -6    8    0      0.59      0.00
   -5    8    0      2.06      0.00
   -4    8    0     -1.00      0.00
   -3    8    0     -0.32      0.00
   -2    8    0      3.18      0.00
   -1    8    0     -0.11      0.00
    0    8    0      0.83      0.00
    1    8    0     -0.37      0.00
    2    8    0      3.12      0.00
    3    8    0     -0.47      0.00
    4    8    0     -1.38      0.00
    5    8    0      1.32      0.00
    6    8    0      0.59      0.00
    7    8    0     -1.05      0.00
    8    8    0      0.37      0.00
   -8    9    0      1.11      0.00
   -7    9    0      0.60      0.00
   -6    9    0     -1.23      0.00
   -5    9    0     -0.21      0.00
   -4    9    0      0.08      0.00
   -3    9    0     -0.44      0.00
   -2    9    0      1.51      0.00
   -1    9    0     -0.30      0.00
    0    9    0      1.66      0.00
    1    9    0     -0.43      0.00
    2    9    0      1.08      0.00
    3    9    0     -0.80      0.00
    4    9    0     -0.19      0.00
    5    9    0      0.28      0.00
    6    9    0     -0.88      0.00
    7    9    0      0.61      0.00
    8    9    0      0.80      0.00
    9    9    0     -1.06      0.00
   -9   10    0     -2.12      0.00
   -8   10    0     -0.98      0.00
   -7   10    0      0.28      0.00
   -6   10    0     -1.29      0.00
   -5   10    0     -0.54      0.00
   -4   10    0      0.70      0.00
   -3   10    0     -0.19      0.00
   -2   10    0     -0.74      0.00
   -1   10    0     -0.46      0.00
    0   10    0      0.97      0.00
    1   10    0     -0.03      0.00
    2   10    0     -0.09      0.00
    3   10    0      0.18      0.00
    4   10    0      1.10      0.00
    5   10    0     -0.15      0.00
    6   10    0     -0.93      0.00
    7   10    0      0.50      0.00
    8   10    0     -0.89      0.00
    9   10    0     -2.23      0.00
   10   10    0     -2.46      0.00
  -10   11    0     -2.47      0.00
   -9   11    0     -0.84      0.00
   -8   11    0     -0.15      0.00
   -7   11    0      0.77      0.00
   -6   11    0     -0.06      0.00
   -5   11    0     -0.54      0.00
   -4   11    0     -0.48      0.00
   -3   11    0      0.12      0.00
   -2   11    0     -0.53      0.00
   -1   11    0      0.03      0.00
    0   11    0     -0.24      0.00
    1   11    0      0.32      0.00
    2   11    0      0.05      0.00
    3   11    0     -0.14      0.00
    4   11    0     -0.66      0.00
    5   11    0     -1.13      0.00
    6   11    0      0.18      0.00
    7   11    0      0.69      0.00
    8   11    0     -0.15      0.00
    9   11    0     -0.93      0.00
   10   11    0     -1.98      0.00
   11   11    0     -1.36      0.00
  -11   12    0      0.55      0.00
  -10   12    0     -0.67      0.00
   -9   12    0      0.59      0.00
   -8   12    0      0.40      0.00
   -7   12    0     -0.21      0.00
   -6   12    0      0.18      0.00
   -5   12    0      0.35      0.00
   -4   12    0      0.09      0.00
   -3   12    0      0.50      0.00
   -2   12    0     -0.23      0.00
   -1   12    0     -0.17      0.00
    0   12    0     -0.25      0.00
    1   12    0      0.09      0.00
    2   12    0      0.43      0.00
    3   12    0      0.58      0.00
    4   12    0     -0.03      0.00
    5   12    0      0.04      0.00
    6   12    0      0.36      0.00
    7   12    0     -0.21      0.00
    8   12    0      0.75      0.00
    9   12    0      0.36      0.00
   10   12    0     -1.09      0.00
   11   12    0      0.32      0.00
   -9   13    0      0.04      0.00
   -8   13    0     -0.03      0.00
   -7   13    0     -0.46      0.00
   -6   13    0     -0.07      0.00
   -5   13    0      0.34      0.00
   -4   13    0     -0.02      0.00
   -3   13    0     -0.31      0.00
   -2   13    0     -0.55      0.00
   -1   13    0     -0.22      0.00
    0   13    0      0.47      0.00
    1   13    0     -0.31      0.00
    2   13    0     -0.37      0.00
    3   13    0     -0.07      0.00
    4   13    0     -0.28      0.00
    5   13    0      0.10      0.00
    6   13    0     -0.49      0.00
    7   13    0     -0.67      0.00
    8   13    0      0.20      0.00
    9   13    0     -0.04      0.00
   -8   14    0     -0.60      0.00
   -7   14    0      0.01      0.00
   -6   14    0     -0.20      0.00
   -5   14    0      0.45      0.00
   -4   14    0     -0.19      0.00
   -3   14    0     -0.18      0.00
   -2   14    0     -0.16      0.00
   -1   14    0      0.14      0.00
    0   14    0      0.16      0.00
    1   14    0     -0.08      0.00
    2   14    0     -0.13      0.00
    3   14    0      0.02      0.00
    4   14    0     -0.32      0.00
    5   14    0      0.03      0.00
    6   14    0     -0.12      0.00
    7   14    0      0.36      0.00
    8   14    0     -0.53      0.00
   -6   15    0      0.20      0.00
   -5   15    0      0.80      0.00
   -4   15    0     -0.02      0.00
   -3   15    0      0.14      0.00
   -2   15    0     -0.42      0.00
   -1   15    0      0.30      0.00
    0   15    0     -0.03      0.00
    1   15    0     -0.09      0.00
    2   15    0     -0.60      0.00
    3   15    0      0.03      0.00
    4   15    0     -0.01      0.00
    5   15    0     -0.05      0.00
    6   15    0      0.01      0.00
   -3   16    0      0.13      0.00
   -2   16    0     -0.47      0.00
   -1   16    0      0.19      0.00
    0   16    0      0.09      0.00
    1   16    0     -0.22      0.00
    2   16    0     -0.48      0.00
    3   16    0      0.98      0.00
    1    1    1    -25.97      0.00
   -1    2    1      6.84      0.00
    0    2    1     11.99      0.00
    1    2    1      7.96      0.00
   -2    3    1      2.63      0.00
   -1    3    1     -0.92      0.00
    1    3    1     -3.13      0.00
    3    3    1     -6.41      0.00
   -3    4    1     -1.73      0.00
   -2    4    1     -1.11      0.00
   -1    4    1      1.22      0.00
    1    4    1      2.45      0.00
    2    4    1     -2.37      0.00
    3    4    1     -1.32      0.00
    4    4    1      0.54      0.00
   -4    5    1      1.23      0.00
   -3    5    1      0.83      0.00
   -2    5    1     -2.20      0.00
   -1    5    1      1.40      0.00
    0    5    1     -0.57      0.00
    1    5    1      1.13      0.00
    2    5    1     -1.87      0.00
    3    5    1      1.28      0.00
    4    5    1      0.75      0.00
    5    5    1      1.24      0.00
   -5    6    1     -0.85      0.00
   -4    6    1     -1.25      0.00
   -3    6    1      1.17      0.00
   -2    6    1     -0.52      0.00
   -1    6    1      0.64      0.00
    0    6    1     -0.45      0.00
    1    6    1      0.61      0.00
    2    6    1      0.33      0.00
    3    6    1      0.74      0.00
    4    6    1     -1.52      0.00
    5    6    1     -0.47      0.00
    6    6    1     -0.44      0.00
   -6    7    1      0.91      0.00
   -5    7    1      0.46      0.00
   -4    7    1     -1.62      0.00
   -3    7    1      0.69      0.00
   -2    7    1      2.39      0.00
   -1    7    1      1.75      0.00
    0    7    1      1.32      0.00
    1    7    1      1.46      0.00
    2    7    1      2.61      0.00
    3    7    1      0.60      0.00
    4    7    1     -1.11      0.00
    5    7    1      0.11      0.00
    6    7    1      0.73      0.00
    7    7    1      0.16      0.00
   -7    8    1     -0.47      0.00
   -6    8    1     -0.21      0.00
   -5    8    1      0.45      0.00
   -4    8    1     -0.78      0.00
   -3    8    1     -1.19      0.00
   -2    8    1      0.66      0.00
   -1    8    1     -0.68      0.00
    0    8    1      1.14      0.00
    1    8    1     -0.12      0.00
    2    8    1      0.84      0.00
    3    8    1     -1.46      0.00
    4    8    1     -0.95      0.00
    5    8    1      0.22      0.00
    6    8    1      0.07      0.00
    7    8    1     -0.38      0.00
    8    8    1     -0.19      0.00
   -8    9    1      0.47      0.00
   -7    9    1      0.38      0.00
   -6    9    1     -0.80      0.00
   -5    9    1      0.39      0.00
   -4    9    1      0.93      0.00
   -3    9    1     -0.76      0.00
   -2    9    1      0.48      0.00
   -1    9    1     -0.60      0.00
    0    9    1      1.00      0.00
    1    9    1     -0.32      0.00
    2    9    1      0.29      0.00
    3    9    1     -0.91      0.00
    4    9    1      0.83      0.00
    5    9    1      0.87      0.00
    6    9    1     -0.54      0.00
    7    9    1      0.39      0.00
    8    9    1      0.17      0.00
    9    9    1      0.10      0.00
   -9   10    1      1.22      0.00
   -8   10    1      0.17      0.00
   -7   10    1      0.36      0.00
   -6   10    1     -0.25      0.00
   -5   10    1      1.55      0.00
   -4   10    1      2.55      0.00
   -3   10    1      0.88      0.00
   -2   10    1      0.64      0.00
   -1   10    1      0.37      0.00
    0   10    1      0.26      0.00
    1   10    1      0.51      0.00
    2   10    1      0.60      0.00
    3   10    1      0.70      0.00
    4   10    1      2.60      0.00
    5   10    1      1.54      0.00
    6   10    1     -0.35      0.00
    7   10    1      0.41      0.00
    8   10    1      0.14      0.00
    9   10    1      0.88      0.00
   10   10    1      2.40      0.00
  -10   11    1      1.06      0.00
   -9   11    1      0.65      0.00
   -8   11    1     -0.30      0.00
   -7   11    1      0.40      0.00
   -6   11    1      0.04      0.00
   -5   11    1     -0.11      0.00
   -4   11    1      0.16      0.00
   -3   11    1      0.36      0.00
   -2   11    1     -0.09      0.00
   -1   11    1      0.52      0.00
    0   11    1     -0.28      0.00
    1   11    1      0.34      0.00
    2   11    1     -0.24      0.00
    3   11    1     -0.14      0.00
    4   11    1      0.29      0.00
    5   11    1     -0.37      0.00
    6   11    1      0.17      0.00
    7   11    1      0.25      0.00
    8   11    1     -0.27      0.00
    9   11    1      0.49      0.00
   10   11    1      1.25      0.00
   11   11    1      0.32      0.00
  -10   12    1      0.52      0.00
   -9   12    1      0.19      0.00
   -8   12    1     -0.53      0.00
   -7   12    1     -0.12      0.00
   -6   12    1      0.45      0.00
   -5   12    1     -0.36      0.00
   -4   12    1     -0.52      0.00
   -3   12    1      0.29      0.00
   -2   12    1      0.06      0.00
   -1   12    1      0.24      0.00
    0   12    1      0.12      0.00
    1   12    1      0.12      0.00
    2   12    1      0.05      0.00
    3   12    1      0.17      0.00
    4   12    1     -0.29      0.00
    5   12    1     -0.29      0.00
    6   12    1      0.65      0.00
    7   12    1     -0.24      0.00
    8   12    1     -0.48      0.00
    9   12    1     -0.14      0.00
   10   12    1     -0.19      0.00
   -9   13    1      0.08      0.00
   -8   13    1      0.32      0.00
   -7   13    1      0.19      0.00
   -6   13    1      0.44      0.00
   -5   13    1     -0.01      0.00
   -4   13    1     -0.48      0.00
   -3   13    1     -0.15      0.00
   -2   13    1      0.21      0.00
   -1   13    1     -0.29      0.00
    0   13    1     -0.02      0.00
    1   13    1     -0.11      0.00
    2   13    1      0.35      0.00
    3   13    1      0.07      0.00
    4   13    1     -0.42      0.00
    5   13    1      0.06      0.00
    6   13    1      0.02      0.00
    7   13    1     -0.25      0.00
    8   13    1      0.05      0.00
    9   13    1     -0.10      0.00
   -8   14    1      0.20      0.00
   -7   14    1      0.23      0.00
   -6   14    1     -0.24      0.00
   -5   14    1      0.29      0.00
   -4   14    1     -0.27      0.00
   -3   14    1     -0.12      0.00
   -2   14    1      0.01      0.00
   -1   14    1     -0.35      0.00
    0   14    1     -0.47      0.00
    1   14    1     -0.09      0.00
    2   14    1      0.39      0.00
    3   14    1      0.35      0.00
    4   14    1      0.14      0.00
    5   14    1      0.36      0.00
    6   14    1     -0.35      0.00
    7   14    1      0.31      0.00
    8   14    1      0.45      0.00
   -6   15    1     -0.09      0.00
   -5   15    1      0.51      0.00
   -4   15    1     -0.05      0.00
   -3   15    1      0.61      0.00
   -2   15    1      0.09      0.00
   -1   15    1      0.32      0.00
    0   15    1      0.00      0.00
    1   15    1      0.24      0.00
    2   15    1     -0.04      0.00
    3   15    1      0.20      0.00
    4   15    1      0.12      0.00
    5   15    1      0.41      0.00
    6   15    1     -0.19      0.00
   -2   16    1      0.23      0.00
   -1   16    1     -0.06      0.00
    0   16    1     -0.41      0.00
    1   16    1     -0.03      0.00
    2   16    1     -0.06      0.00
    1    1    2    -11.55      0.00
   -1    2    2      9.06      0.00
    1    2    2      9.61      0.00
    2    2    2      2.18      0.00
   -1    3    2     -0.97      0.00
    0    3    2     -3.19      0.00
    1    3    2     -1.40      0.00
    3    3    2     -2.20      0.00
   -3    4    2      3.86      0.00
   -2    4    2      0.07      0.00
   -1    4    2      0.94      0.00
    0    4    2     -5.21      0.00
    1    4    2      2.14      0.00
    2    4    2      0.26      0.00
    3    4    2      4.05      0.00
    4    4    2      0.56      0.00
   -4    5    2     -2.67      0.00
   -3    5    2      0.88      0.00
   -2    5    2      0.39      0.00
   -1    5    2      3.49      0.00
    0    5    2     -1.50      0.00
    1    5    2      2.58      0.00
    2    5    2      0.08      0.00
    3    5    2      0.57      0.00
    4    5    2     -3.35      0.00
    5    5    2     -1.31      0.00
   -5    6    2      0.68      0.00
   -4    6    2     -1.03      0.00
   -3    6    2      0.28      0.00
   -2    6    2     -1.16      0.00
   -1    6    2      1.86      0.00
    0    6    2     -0.05      0.00
    1    6    2      1.89      0.00
    2    6    2     -0.51      0.00
    3    6    2     -0.07      0.00
    4    6    2     -1.25      0.00
    5    6    2      0.92      0.00
    6    6    2      0.79      0.00
   -6    7    2     -0.29      0.00
   -5    7    2     -0.07      0.00
   -4    7    2     -0.38      0.00
   -3    7    2      0.67      0.00
   -2    7    2     -0.78      0.00
   -1    7    2      0.13      0.00
    0    7    2     -0.21      0.00
    1    7    2      0.00      0.00
    2    7    2     -0.51      0.00
    3    7    2      0.79      0.00
    4    7    2      0.19      0.00
    5    7    2     -0.08      0.00
    6    7    2     -0.01      0.00
    7    7    2     -0.13      0.00
   -7    8    2      0.41      0.00
   -6    8    2     -0.13      0.00
   -5    8    2     -0.39      0.00
   -4    8    2      0.04      0.00
   -3    8    2      0.52      0.00
   -2    8    2      0.13      0.00
   -1    8    2     -0.23      0.00
    0    8    2      0.88      0.00
    1    8    2     -0.11      0.00
    2    8    2     -0.10      0.00
    3    8    2      0.24      0.00
    4    8    2      0.01      0.00
    5    8    2     -0.31      0.00
    6    8    2      0.02      0.00
    7    8    2     -0.02      0.00
    8    8    2      0.36      0.00
   -8    9    2      0.19      0.00
   -7    9    2      0.02      0.00
   -6    9    2     -0.39      0.00
   -5    9    2     -0.08      0.00
   -4    9    2      0.38      0.00
   -3    9    2     -0.08      0.00
   -2    9    2      0.56      0.00
   -1    9    2      0.25      0.00
    0    9    2      0.92      0.00
    1    9    2      0.51      0.00
    2    9    2      0.39      0.00
    3    9    2     -0.01      0.00
    4    9    2      0.43      0.00
    5    9    2      0.32      0.00
    6    9    2     -0.49      0.00
    7    9    2     -0.25      0.00
    8    9    2      0.03      0.00
    9    9    2     -0.60      0.00
   -9   10    2     -0.58      0.00
   -8   10    2      0.14      0.00
   -7   10    2     -0.39      0.00
   -6   10    2     -0.70      0.00
   -5   10    2      0.40      0.00
   -4   10    2      0.75      0.00
   -3   10    2     -0.03      0.00
   -2   10    2     -0.16      0.00
   -1   10    2     -0.01      0.00
    0   10    2     -0.80      0.00
    1   10    2      0.19      0.00
    2   10    2     -0.36      0.00
    3   10    2     -0.24      0.00
    4   10    2      0.77      0.00
    5   10    2      0.30      0.00
    6   10    2     -0.85      0.00
    7   10    2     -0.38      0.00
    8   10    2      0.10      0.00
    9   10    2     -0.60      0.00
   10   10    2     -1.05      0.00
  -10   11    2     -0.95      0.00
   -9   11    2     -0.29      0.00
   -8   11    2      0.30      0.00
   -7   11    2      0.09      0.00
   -6   11    2     -0.07      0.00
   -5   11    2      0.00      0.00
   -4   11    2     -0.23      0.00
   -3   11    2     -0.20      0.00
   -2   11    2     -0.53      0.00
   -1   11    2      0.22      0.00
    0   11    2     -0.90      0.00
    1   11    2      0.27      0.00
    2   11    2     -0.47      0.00
    3   11    2     -0.26      0.00
    4   11    2      0.11      0.00
    5   11    2     -0.30      0.00
    6   11    2      0.18      0.00
    7   11    2      0.07      0.00
    8   11    2      0.04      0.00
    9   11    2     -0.21      0.00
   10   11    2     -0.39      0.00
   11   11    2     -0.35      0.00
  -10   12    2     -0.02      0.00
   -9   12    2      0.12      0.00
   -8   12    2      0.06      0.00
   -7   12    2     -0.54      0.00
   -6   12    2      0.17      0.00
   -5   12    2      0.11      0.00
   -4   12    2     -0.20      0.00
   -3   12    2     -0.24      0.00
   -2   12    2     -0.08      0.00
   -1   12    2      0.43      0.00
    0   12    2      0.10      0.00
    1   12    2      0.33      0.00
    2   12    2     -0.05      0.00
    3   12    2     -0.08      0.00
    4   12    2      0.15      0.00
    5   12    2      0.08      0.00
    6   12    2      0.63      0.00
    7   12    2     -0.15      0.00
    8   12    2      0.08      0.00
    9   12    2      0.21      0.00
   10   12    2     -0.03      0.00
   -9   13    2     -0.52      0.00
   -8   13    2      0.44      0.00
   -7   13    2     -0.34      0.00
   -6   13    2     -0.18      0.00
   -5   13    2      0.04      0.00
   -4   13    2      0.12      0.00
   -3   13    2     -0.33      0.00
   -2   13    2      0.20      0.00
   -1   13    2      0.04      0.00
    0   13    2      0.20      0.00
    1   13    2      0.11      0.00
    2   13    2      0.20      0.00
    3   13    2     -0.09      0.00
    4   13    2      0.25      0.00
    5   13    2      0.09      0.00
    6   13    2     -0.21      0.00
    7   13    2     -0.25      0.00
    8   13    2      0.22      0.00
    9   13    2     -0.35      0.00
   -7   14    2      0.55      0.00
   -6   14    2     -0.31      0.00
   -5   14    2      0.22      0.00
   -4   14    2      0.08      0.00
   -3   14    2     -0.31      0.00
   -2   14    2     -0.04      0.00
   -1   14    2     -0.10      0.00
    0   14    2     -0.35      0.00
    1   14    2     -0.12      0.00
    2   14    2      0.05      0.00
    3   14    2     -0.04      0.00
    4   14    2      0.16      0.00
    5   14    2     -0.18      0.00
    6   14    2     -0.56      0.00
    7   14    2      0.37      0.00
   -5   15    2     -0.05      0.00
   -4   15    2     -0.42      0.00
   -3   15    2     -0.16      0.00
   -2   15    2     -0.19      0.00
   -1   15    2      0.24      0.00
    0   15    2     -0.33      0.00
    1   15    2      0.27      0.00
    2   15    2      0.03      0.00
    3   15    2     -0.13      0.00
    4   15    2     -0.19      0.00
    5   15    2      0.09      0.00
   -1   16    2      0.29      0.00
    0   16    2     -0.54      0.00
    1   16    2      0.35      0.00
    0    1    3      7.26      0.00
    1    1    3      1.61      0.00
   -1    2    3      1.12      0.00
    0    2    3      0.03      0.00
    1    2    3      1.93      0.00
    2    2    3     -1.27      0.00
   -2    3    3     -2.03      0.00
   -1    3    3     -0.96      0.00
    0    3    3     -6.79      0.00
    1    3    3      0.03      0.00
    2    3    3     -1.51      0.00
    3    3    3      2.40      0.00
   -3    4    3      2.85      0.00
   -2    4    3      0.32      0.00
   -1    4    3      3.41      0.00
    0    4    3     -1.37      0.00
    1    4    3      3.93      0.00
    2    4    3      0.62      0.00
    3    4    3      2.87      0.00
    4    4    3      0.67      0.00
   -4    5    3     -1.95      0.00
   -3    5    3     -0.44      0.00
   -2    5    3     -1.49      0.00
   -1    5    3      1.76      0.00
    0    5    3     -1.99      0.00
    1    5    3      0.99      0.00
    2    5    3     -2.15      0.00
    3    5    3     -0.83      0.00
    4    5    3     -2.25      0.00
    5    5    3     -1.65      0.00
   -5    6    3      1.02      0.00
   -4    6    3      0.44      0.00
   -3    6    3      0.86      0.00
   -2    6    3     -1.40      0.00
   -1    6    3      0.54      0.00
    0    6    3     -1.38      0.00
    1    6    3      1.24      0.00
    2    6    3     -0.80      0.00
    3    6    3      0.52      0.00
    4    6    3      0.14      0.00
    5    6    3      0.87      0.00
    6    6    3      0.92      0.00
   -6    7    3     -0.17      0.00
   -5    7    3      0.87      0.00
   -4    7    3      0.02      0.00
   -3    7    3      0.27      0.00
   -2    7    3     -0.82      0.00
   -1    7    3      0.80      0.00
    0    7    3      0.05      0.00
    1    7    3      1.18      0.00
    2    7    3     -0.11      0.00
    3    7    3      0.65      0.00
    4    7    3      0.29      0.00
    5    7    3      0.52      0.00
    6    7    3      0.00      0.00
    7    7    3     -0.84      0.00
   -7    8    3      0.03      0.00
   -6    8    3      0.00      0.00
   -5    8    3     -0.01      0.00
   -4    8    3     -0.41      0.00
   -3    8    3      0.21      0.00
   -2    8    3     -0.05      0.00
   -1    8    3      0.14      0.00
    0    8    3      0.00      0.00
    1    8    3      0.05      0.00
    2    8    3     -0.12      0.00
    3    8    3      0.23      0.00
    4    8    3     -0.31      0.00
    5    8    3      0.09      0.00
    6    8    3     -0.04      0.00
    7    8    3     -0.37      0.00
    8    8    3      0.21      0.00
   -8    9    3     -0.09      0.00
   -7    9    3      0.31      0.00
   -6    9    3      0.50      0.00
   -5    9    3     -0.31      0.00
   -4    9    3     -0.16      0.00
   -3    9    3      0.61      0.00
   -2    9    3     -0.31      0.00
   -1    9    3     -0.33      0.00
    0    9    3      0.12      0.00
    1    9    3     -0.42      0.00
    2    9    3     -0.47      0.00
    3    9    3      0.64      0.00
    4    9    3     -0.30      0.00
    5    9    3     -0.16      0.00
    6    9    3      0.23      0.00
    7    9    3      0.25      0.00
    8    9    3      0.09      0.00
    9    9    3     -0.19      0.00
   -9   10    3     -0.24      0.00
   -8   10    3     -0.26      0.00
   -7   10    3     -0.10      0.00
   -6   10    3      0.15      0.00
   -5   10    3     -0.49      0.00
   -4   10    3     -0.36      0.00
   -3   10    3      0.63      0.00
   -2   10    3     -0.98      0.00
   -1   10    3      0.39      0.00
    0   10    3      1.19      0.00
    1   10    3      0.43      0.00
    2   10    3     -1.01      0.00
    3   10    3      0.51      0.00
    4   10    3     -0.34      0.00
    5   10    3     -0.38      0.00
    6   10    3      0.18      0.00
    7   10    3     -0.11      0.00
    8   10    3     -0.24      0.00
    9   10    3     -0.04      0.00
   10   10    3     -0.46      0.00
  -10   11    3     -0.55      0.00
   -9   11    3     -0.15      0.00
   -8   11    3      0.08      0.00
   -7   11    3     -0.01      0.00
   -6   11    3      0.27      0.00
   -5   11    3     -0.01      0.00
   -4   11    3     -0.38      0.00
   -3   11    3      0.54      0.00
   -2   11    3     -0.90      0.00
   -1   11    3      0.19      0.00
    0   11    3      0.24      0.00
    1   11    3      0.27      0.00
    2   11    3     -0.51      0.00
    3   11    3      0.65      0.00
    4   11    3     -0.06      0.00
    5   11    3     -0.18      0.00
    6   11    3      0.36      0.00
    7   11    3     -0.31      0.00
    8   11    3     -0.37      0.00
    9   11    3     -0.20      0.00
   10   11    3     -0.25      0.00
   11   11    3      0.11      0.00
  -10   12    3      0.38      0.00
   -9   12    3      0.04      0.00
   -8   12    3     -0.16      0.00
   -7   12    3     -0.46      0.00
   -6   12    3      0.28      0.00
   -5   12    3      0.23      0.00
   -4   12    3     -0.15      0.00
   -3   12    3      0.14      0.00
   -2   12    3     -0.17      0.00
   -1   12    3      0.06      0.00
    0   12    3     -0.19      0.00
    1   12    3     -0.27      0.00
    2   12    3     -0.06      0.00
    3   12    3      0.18      0.00
    4   12    3     -0.07      0.00
    5   12    3     -0.10      0.00
    6   12    3      0.35      0.00
    7   12    3     -0.05      0.00
    8   12    3      0.00      0.00
    9   12    3     -0.07      0.00
   10   12    3      0.08      0.00
   -8   13    3     -0.17      0.00
   -7   13    3     -0.38      0.00
   -6   13    3      0.21      0.00
   -5   13    3      0.00      0.00
   -4   13    3     -0.06      0.00
   -3   13    3     -0.14      0.00
   -2   13    3      0.17      0.00
   -1   13    3      0.05      0.00
    0   13    3      0.24      0.00
    1   13    3     -0.16      0.00
    2   13    3      0.17      0.00
    3   13    3     -0.09      0.00
    4   13    3      0.04      0.00
    5   13    3      0.04      0.00
    6   13    3      0.33      0.00
    7   13    3      0.12      0.00
    8   13    3      0.12      0.00
   -7   14    3      0.14      0.00
   -6   14    3      0.19      0.00
   -5   14    3      0.16      0.00
   -4   14    3     -0.09      0.00
   -3   14    3      0.14      0.00
   -2   14    3      0.10      0.00
   -1   14    3     -0.07      0.00
    0   14    3     -0.09      0.00
    1   14    3     -0.26      0.00
    2   14    3     -0.13      0.00
    3   14    3     -0.14      0.00
    4   14    3     -0.15      0.00
    5   14    3     -0.25      0.00
    6   14    3      0.11      0.00
    7   14    3     -0.22      0.00
   -4   15    3     -0.13      0.00
   -3   15    3      0.43      0.00
   -2   15    3     -0.31      0.00
   -1   15    3      0.04      0.00
    0   15    3      0.09      0.00
    1   15    3      0.14      0.00
    2   15    3     -0.18      0.00
    3   15    3      0.26      0.00
    4   15    3     -0.24      0.00
    0    0    4     -1.57      0.00
    0    1    4     -3.65      0.00
    1    1    4     -1.99      0.00
   -1    2    4      0.37      0.00
    0    2    4     -4.19      0.00
    1    2    4     -0.10      0.00
    2    2    4      0.13      0.00
   -2    3    4      0.14      0.00
   -1    3    4      2.48      0.00
    0    3    4     -1.88      0.00
    1    3    4      2.41      0.00
    2    3    4      0.36      0.00
    3    3    4     -0.31      0.00
   -3    4    4     -0.48      0.00
   -2    4    4     -2.07      0.00
   -1    4    4      1.01      0.00
    0    4    4     -0.85      0.00
    1    4    4      1.14      0.00
    2    4    4     -2.07      0.00
    3    4    4     -0.80      0.00
    4    4    4      2.66      0.00
   -4    5    4      1.58      0.00
   -3    5    4     -0.40      0.00
   -2    5    4     -2.16      0.00
   -1    5    4     -0.27      0.00
    0    5    4     -1.46      0.00
    1    5    4     -0.41      0.00
    2    5    4     -2.15      0.00
    3    5    4     -0.43      0.00
    4    5    4      1.30      0.00
    5    5    4     -0.56      0.00
   -5    6    4     -0.69      0.00
   -4    6    4      0.44      0.00
   -3    6    4      0.86      0.00
   -2    6    4     -0.30      0.00
   -1    6    4      1.01      0.00
    0    6    4      0.36      0.00
    1    6    4      1.10      0.00
    2    6    4     -0.22      0.00
    3    6    4      0.73      0.00
    4    6    4      0.45      0.00
    5    6    4     -0.64      0.00
    6    6    4     -0.22      0.00
   -6    7    4     -0.20      0.00
   -5    7    4     -0.19      0.00
   -4    7    4     -0.52      0.00
   -3    7    4     -0.04      0.00
   -2    7    4     -0.58      0.00
   -1    7    4      0.77      0.00
    0    7    4      0.84      0.00
    1    7    4      0.69      0.00
    2    7    4     -0.44      0.00
    3    7    4      0.15      0.00
    4    7    4     -0.12      0.00
    5    7    4     -0.22      0.00
    6    7    4     -0.04      0.00
    7    7    4      0.06      0.00
   -7    8    4      0.05      0.00
   -6    8    4     -0.32      0.00
   -5    8    4      0.12      0.00
   -4    8    4      0.01      0.00
   -3    8    4      0.26      0.00
   -2    8    4     -0.14      0.00
   -1    8    4     -0.04      0.00
    0    8    4      0.28      0.00
    1    8    4     -0.20      0.00
    2    8    4     -0.29      0.00
    3    8    4      0.11      0.00
    4    8    4      0.03      0.00
    5    8    4      0.27      0.00
    6    8    4     -0.34      0.00
    7    8    4     -0.19      0.00
    8    8    4      0.38      0.00
   -8    9    4      0.10      0.00
   -7    9    4     -0.06      0.00
   -6    9    4      0.29      0.00
   -5    9    4      0.10      0.00
   -4    9    4     -0.24      0.00
   -3    9    4      0.67      0.00
   -2    9    4      0.52      0.00
   -1    9    4      0.10      0.00
    0    9    4      0.30      0.00
    1    9    4     -0.20      0.00
    2    9    4      0.41      0.00
    3    9    4      0.82      0.00
    4    9    4     -0.39      0.00
    5    9    4      0.03      0.00
    6    9    4      0.17      0.00
    7    9    4      0.08      0.00
    8    9    4      0.18      0.00
    9    9    4      0.17      0.00
   -9   10    4     -0.01      0.00
   -8   10    4     -0.06      0.00
   -7   10    4     -0.09      0.00
   -6   10    4     -0.21      0.00
   -5   10    4     -1.05      0.00
   -4   10    4     -1.61      0.00
   -3   10    4      0.25      0.00
   -2   10    4     -0.13      0.00
   -1   10    4      0.37      0.00
    0   10    4      1.06      0.00
    1   10    4      0.24      0.00
    2   10    4     -0.22      0.00
    3   10    4      0.22      0.00
    4   10    4     -1.56      0.00
    5   10    4     -1.06      0.00
    6   10    4     -0.01      0.00
    7   10    4     -0.01      0.00
    8   10    4     -0.11      0.00
    9   10    4      0.08      0.00
   10   10    4      0.07      0.00
  -10   11    4      0.23      0.00
   -9   11    4     -0.04      0.00
   -8   11    4      0.04      0.00
   -7   11    4      0.13      0.00
   -6   11    4     -0.13      0.00
   -5   11    4      0.00      0.00
   -4   11    4     -0.26      0.00
   -3   11    4      0.85      0.00
   -2   11    4     -0.34      0.00
   -1   11    4     -0.02      0.00
    0   11    4      0.62      0.00
    1   11    4     -0.01      0.00
    2   11    4     -0.15      0.00
    3   11    4      0.73      0.00
    4   11    4     -0.15      0.00
    5   11    4     -0.19      0.00
    6   11    4     -0.03      0.00
    7   11    4      0.13      0.00
    8   11    4      0.17      0.00
    9   11    4      0.09      0.00
   10   11    4      0.34      0.00
   -9   12    4     -0.04      0.00
   -8   12    4      0.16      0.00
   -7   12    4      0.16      0.00
   -6   12    4     -0.04      0.00
   -5   12    4      0.39      0.00
   -4   12    4      0.11      0.00
   -3   12    4      0.07      0.00
   -2   12    4     -0.16      0.00
   -1   12    4     -0.42      0.00
    0   12    4     -0.28      0.00
    1   12    4     -0.37      0.00
    2   12    4      0.54      0.00
    3   12    4      0.24      0.00
    4   12    4      0.04      0.00
    5   12    4      0.15      0.00
    6   12    4     -0.16      0.00
    7   12    4      0.38      0.00
    8   12    4      0.43      0.00
    9   12    4     -0.18      0.00
   -8   13    4      0.42      0.00
   -7   13    4      0.02      0.00
   -6   13    4     -0.39      0.00
   -5   13    4      0.02      0.00
   -4   13    4     -0.07      0.00
   -3   13    4     -0.21      0.00
   -2   13    4      0.51      0.00
   -1   13    4     -0.17      0.00
    0   13    4     -0.27      0.00
    1   13    4      0.25      0.00
    2   13    4      1.60      0.00
    3   13    4      0.06      0.00
    4   13    4     -0.22      0.00
    5   13    4      0.04      0.00
    6   13    4     -0.25      0.00
    7   13    4      0.11      0.00
    8   13    4      0.32      0.00
   -6   14    4     -0.78      0.00
   -5   14    4      0.40      0.00
   -4   14    4     -0.17      0.00
   -3   14    4     -0.13      0.00
   -2   14    4      0.37      0.00
   -1   14    4      0.11      0.00
    0   14    4      0.00      0.00
    1   14    4      0.06      0.00
    2   14    4      0.47      0.00
    3   14    4     -0.29      0.00
    4   14    4      0.13      0.00
    5   14    4      0.34      0.00
    6   14    4     -0.38      0.00
   -3   15    4     -0.15      0.00
   -2   15    4     -0.11      0.00
   -1   15    4      0.20      0.00
    0   15    4      0.57      0.00
    1   15    4      0.37      0.00
    2   15    4     -0.26      0.00
    3   15    4     -0.30      0.00
    0    0    5     -2.18      0.00
    0    1    5     -0.33      0.00
    1    1    5      0.13      0.00
   -1    2    5     -0.29      0.00
    0    2    5      0.51      0.00
    1    2    5     -0.42      0.00
    2    2    5     -1.64      0.00
   -2    3    5      0.13      0.00
   -1    3    5      0.41      0.00
    0    3    5      0.51      0.00
    1    3    5      0.65      0.00
    2    3    5      0.48      0.00
    3    3    5     -0.30      0.00
   -3    4    5     -1.54      0.00
   -2    4    5     -1.24      0.00
   -1    4    5     -1.54      0.00
    0    4    5     -1.31      0.00
    1    4    5     -1.58      0.00
    2    4    5     -1.36      0.00
    3    4    5     -1.63      0.00
    4    4    5      0.93      0.00
   -4    5    5      0.77      0.00
   -3    5    5     -0.78      0.00
   -2    5    5      0.25      0.00
   -1    5    5      0.37      0.00
    0    5    5      0.83      0.00
    1    5    5      0.22      0.00
    2    5    5      0.22      0.00
    3    5    5     -0.61      0.00
    4    5    5      0.71      0.00
    5    5    5      0.00      0.00
   -5    6    5     -0.20      0.00
   -4    6    5     -0.41      0.00
   -3    6    5     -0.10      0.00
   -2    6    5      0.45      0.00
   -1    6    5      0.23      0.00
    0    6    5      0.35      0.00
    1    6    5     -0.04      0.00
    2    6    5      0.26      0.00
    3    6    5     -0.16      0.00
    4    6    5     -0.20      0.00
    5    6    5      0.10      0.00
    6    6    5      0.25      0.00
   -6    7    5     -0.21      0.00
   -5    7    5      0.01      0.00
   -4    7    5     -0.33      0.00
   -3    7    5      0.26      0.00
   -2    7    5     -0.17      0.00
   -1    7    5     -0.57      0.00
    0    7    5     -0.26      0.00
    1    7    5     -0.78      0.00
    2    7    5      0.08      0.00
    3    7    5      0.38      0.00
    4    7    5     -0.35      0.00
    5    7    5     -0.12      0.00
    6    7    5     -0.31      0.00
    7    7    5     -0.31      0.00
   -7    8    5      0.20      0.00
   -6    8    5      0.06      0.00
   -5    8    5      0.11      0.00
   -4    8    5      0.07      0.00
   -3    8    5      0.23      0.00
   -2    8    5     -0.04      0.00
   -1    8    5     -0.15      0.00
    0    8    5      0.86      0.00
    1    8    5     -0.11      0.00
    2    8    5      0.25      0.00
    3    8    5      0.10      0.00
    4    8    5     -0.27      0.00
    5    8    5      0.08      0.00
    6    8    5     -0.16      0.00
    7    8    5     -0.04      0.00
    8    8    5      0.18      0.00
   -8    9    5     -0.09      0.00
   -7    9    5     -0.05      0.00
   -6    9    5      0.53      0.00
   -5    9    5      0.24      0.00
   -4    9    5     -0.69      0.00
   -3    9    5     -0.41      0.00
   -2    9    5      0.45      0.00
   -1    9    5     -0.20      0.00
    0    9    5     -0.01      0.00
    1    9    5     -0.33      0.00
    2    9    5      0.37      0.00
    3    9    5     -0.37      0.00
    4    9    5     -0.62      0.00
    5    9    5      0.32      0.00
    6    9    5      0.51      0.00
    7    9    5      0.25      0.00
    8    9    5      0.04      0.00
    9    9    5     -0.28      0.00
   -9   10    5     -0.11      0.00
   -8   10    5      0.07      0.00
   -7   10    5     -0.09      0.00
   -6   10    5      0.15      0.00
   -5   10    5     -0.37      0.00
   -4   10    5     -1.91      0.00
   -3   10    5     -0.87      0.00
   -2   10    5      0.34      0.00
   -1   10    5     -0.63      0.00
    0   10    5     -0.97      0.00
    1   10    5     -0.52      0.00
    2   10    5      0.19      0.00
    3   10    5     -0.94      0.00
    4   10    5     -1.52      0.00
    5   10    5     -0.31      0.00
    6   10    5      0.24      0.00
    7   10    5      0.16      0.00
    8   10    5      0.14      0.00
    9   10    5     -0.29      0.00
   10   10    5     -0.51      0.00
   -9   11    5      0.25      0.00
   -8   11    5     -0.26      0.00
   -7   11    5      0.13      0.00
   -6   11    5      0.36      0.00
   -5   11    5      0.32      0.00
   -4   11    5     -0.68      0.00
   -3   11    5      0.01      0.00
   -2   11    5      0.34      0.00
   -1   11    5     -0.36      0.00
    0   11    5     -0.36      0.00
    1   11    5     -0.20      0.00
    2   11    5      0.37      0.00
    3   11    5     -0.17      0.00
    4   11    5     -0.47      0.00
    5   11    5      0.07      0.00
    6   11    5      0.01      0.00
    7   11    5     -0.07      0.00
    8   11    5     -0.26      0.00
    9   11    5      0.24      0.00
   -8   12    5     -0.61      0.00
   -7   12    5      0.02      0.00
   -6   12    5      0.27      0.00
   -5   12    5      0.31      0.00
   -4   12    5     -0.04      0.00
   -3   12    5     -0.14      0.00
   -2   12    5      0.14      0.00
   -1   12    5     -0.17      0.00
    0   12    5      0.10      0.00
    1   12    5     -0.01      0.00
    2   12    5      0.47      0.00
    3   12    5     -0.28      0.00
    4   12    5     -0.11      0.00
    5   12    5      0.24      0.00
    6   12    5      0.07      0.00
    7   12    5      0.06      0.00
    8   12    5     -0.99      0.00
   -7   13    5      0.41      0.00
   -6   13    5     -0.08      0.00
   -5   13    5      0.08      0.00
   -4   13    5      0.17      0.00
   -3   13    5     -0.08      0.00
   -2   13    5      0.13      0.00
   -1   13    5     -0.33      0.00
    0   13    5     -0.22      0.00
    1   13    5     -0.04      0.00
    2   13    5      0.57      0.00
    3   13    5     -0.34      0.00
    4   13    5      0.03      0.00
    5   13    5      0.15      0.00
    6   13    5      0.29      0.00
    7   13    5      0.81      0.00
   -4   14    5      0.02      0.00
   -3   14    5      0.10      0.00
   -2   14    5      0.10      0.00
   -1   14    5      0.19      0.00
    0   14    5      0.43      0.00
    1   14    5     -0.03      0.00
    2   14    5     -0.10      0.00
    3   14    5     -0.34      0.00
    4   14    5      0.27      0.00
    0    0    6      3.38      0.00
    0    1    6      2.07      0.00
    1    1    6      0.59      0.00
   -1    2    6     -0.94      0.00
    0    2    6      0.18      0.00
    1    2    6     -0.77      0.00
    2    2    6      0.39      0.00
   -2    3    6      1.17      0.00
   -1    3    6     -0.72      0.00
    0    3    6      0.45      0.00
    1    3    6     -0.53      0.00
    2    3    6      1.34      0.00
    3    3    6      0.40      0.00
   -3    4    6     -1.46      0.00
   -2    4    6     -0.16      0.00
   -1    4    6     -0.88      0.00
    0    4    6      0.58      0.00
    1    4    6     -1.03      0.00
    2    4    6     -0.32      0.00
    3    4    6     -1.22      0.00
    4    4    6      0.50      0.00
   -4    5    6      0.54      0.00
   -3    5    6     -0.76      0.00
   -2    5    6      0.92      0.00
   -1    5    6     -0.08      0.00
    0    5    6      0.43      0.00
    1    5    6      0.17      0.00
    2    5    6      0.86      0.00
    3    5    6     -0.74      0.00
    4    5    6      0.42      0.00
    5    5    6     -0.16      0.00
   -5    6    6     -0.15      0.00
   -4    6    6      0.23      0.00
   -3    6    6      0.10      0.00
   -2    6    6      0.32      0.00
   -1    6    6     -0.69      0.00
    0    6    6     -0.52      0.00
    1    6    6     -0.43      0.00
    2    6    6      0.20      0.00
    3    6    6     -0.08      0.00
    4    6    6      0.33      0.00
    5    6    6     -0.06      0.00
    6    6    6     -0.14      0.00
   -6    7    6      0.12      0.00
   -5    7    6     -0.07      0.00
   -4    7    6     -0.04      0.00
   -3    7    6      0.36      0.00
   -2    7    6      0.06      0.00
   -1    7    6     -0.18      0.00
    0    7    6      0.07      0.00
    1    7    6     -0.34      0.00
    2    7    6      0.03      0.00
    3    7    6      0.36      0.00
    4    7    6     -0.09      0.00
    5    7    6     -0.33      0.00
    6    7    6     -0.18      0.00
    7    7    6      0.40      0.00
   -7    8    6      0.47      0.00
   -6    8    6      0.25      0.00
   -5    8    6     -0.42      0.00
   -4    8    6     -0.32      0.00
   -3    8    6     -0.31      0.00
   -2    8    6     -0.21      0.00
   -1    8    6      0.13      0.00
    0    8    6      0.70      0.00
    1    8    6      0.25      0.00
    2    8    6      0.12      0.00
    3    8    6     -0.28      0.00
    4    8    6     -0.42      0.00
    5    8    6     -0.26      0.00
    6    8    6      0.14      0.00
    7    8    6      0.50      0.00
    8    8    6      0.22      0.00
   -8    9    6     -0.15      0.00
   -7    9    6     -0.22      0.00
   -6    9    6     -0.25      0.00
   -5    9    6     -0.01      0.00
   -4    9    6      0.99      0.00
   -3    9    6      0.18      0.00
   -2    9    6     -0.47      0.00
   -1    9    6     -0.25      0.00
    0    9    6      0.31      0.00
    1    9    6     -0.37      0.00
    2    9    6     -0.41      0.00
    3    9    6      0.14      0.00
    4    9    6      0.95      0.00
    5    9    6      0.02      0.00
    6    9    6     -0.39      0.00
    7    9    6     -0.17      0.00
    8    9    6     -0.19      0.00
    9    9    6     -0.06      0.00
   -9   10    6      0.22      0.00
   -8   10    6     -0.04      0.00
   -7   10    6     -0.16      0.00
   -6   10    6     -0.55      0.00
   -5   10    6      0.54      0.00
   -4   10    6      1.90      0.00
   -3   10    6      0.98      0.00
   -2   10    6     -0.24      0.00
   -1   10    6      0.02      0.00
    0   10    6      0.71      0.00
    1   10    6      0.04      0.00
    2   10    6     -0.22      0.00
    3   10    6      0.79      0.00
    4   10    6      1.82      0.00
    5   10    6      0.33      0.00
    6   10    6     -0.46      0.00
    7   10    6      0.03      0.00
    8   10    6      0.04      0.00
    9   10    6      0.02      0.00
   10   10    6      0.09      0.00
   -8   11    6      0.06      0.00
   -7   11    6      0.17      0.00
   -6   11    6     -0.28      0.00
   -5   11    6      0.35      0.00
   -4   11    6      0.72      0.00
   -3   11    6      0.12      0.00
   -2   11    6     -0.28      0.00
   -1   11    6     -0.20      0.00
    0   11    6     -0.11      0.00
    1   11    6     -0.04      0.00
    2   11    6     -0.13      0.00
    3   11    6     -0.03      0.00
    4   11    6      0.66      0.00
    5   11    6      0.08      0.00
    6   11    6     -0.49      0.00
    7   11    6      0.25      0.00
    8   11    6     -0.01      0.00
   -7   12    6     -0.07      0.00
   -6   12    6      0.24      0.00
   -5   12    6     -0.11      0.00
   -4   12    6     -0.19      0.00
   -3   12    6     -0.39      0.00
   -2   12    6     -0.01      0.00
   -1   12    6      0.20      0.00
    0   12    6     -0.17      0.00
    1   12    6      0.35      0.00
    2   12    6      0.29      0.00
    3   12    6     -0.48      0.00
    4   12    6     -0.27      0.00
    5   12    6     -0.07      0.00
    6   12    6     -0.29      0.00
    7   12    6      0.11      0.00
   -5   13    6     -0.15      0.00
   -4   13    6      0.16      0.00
   -3   13    6      0.31      0.00
   -2   13    6     -0.29      0.00
   -1   13    6     -0.05      0.00
    0   13    6     -0.30      0.00
    1   13    6     -0.15      0.00
    2   13    6     -0.14      0.00
    3   13    6     -0.03      0.00
    4   13    6      0.05      0.00
    5   13    6     -0.17      0.00
   -2   14    6     -0.11      0.00
   -1   14    6      0.28      0.00
    0   14    6      0.30      0.00
    1   14    6     -0.06      0.00
    2   14    6      0.02      0.00
    0    0    7     -0.94      0.00
    0    1    7     -0.39      0.00
    1    1    7     -0.47      0.00
   -1    2    7     -0.42      0.00
    0    2    7      0.13      0.00
    1    2    7     -0.20      0.00
    2    2    7      0.16      0.00
   -2    3    7      0.03      0.00
   -1    3    7     -0.21      0.00
    0    3    7      0.30      0.00
    1    3    7      0.03      0.00
    2    3    7     -0.04      0.00
    3    3    7     -1.63      0.00
   -3    4    7     -1.48      0.00
   -2    4    7     -0.13      0.00
   -1    4    7      0.88      0.00
    0    4    7      1.66      0.00
    1    4    7      0.92      0.00
    2    4    7     -0.28      0.00
    3    4    7     -1.20      0.00
    4    4    7      1.67      0.00
   -4    5    7      1.18      0.00
   -3    5    7     -0.74      0.00
   -2    5    7     -0.13      0.00
   -1    5    7     -0.20      0.00
    0    5    7     -0.50      0.00
    1    5    7     -0.06      0.00
    2    5    7     -0.22      0.00
    3    5    7     -0.73      0.00
    4    5    7      1.12      0.00
    5    5    7     -0.15      0.00
   -5    6    7      0.04      0.00
   -4    6    7      0.30      0.00
   -3    6    7     -0.03      0.00
   -2    6    7      0.20      0.00
   -1    6    7     -0.02      0.00
    0    6    7     -0.82      0.00
    1    6    7     -0.06      0.00
    2    6    7      0.06      0.00
    3    6    7     -0.16      0.00
    4    6    7      0.17      0.00
    5    6    7     -0.36      0.00
    6    6    7      0.46      0.00
   -6    7    7      0.24      0.00
   -5    7    7      0.09      0.00
   -4    7    7     -0.03      0.00
   -3    7    7      0.07      0.00
   -2    7    7      0.29      0.00
   -1    7    7      0.58      0.00
    0    7    7     -0.16      0.00
    1    7    7      0.15      0.00
    2    7    7      0.03      0.00
    3    7    7      0.15      0.00
    4    7    7      0.08      0.00
    5    7    7     -0.15      0.00
    6    7    7      0.10      0.00
    7    7    7     -0.33      0.00
   -7    8    7     -0.66      0.00
   -6    8    7     -0.10      0.00
   -5    8    7     -0.21      0.00
   -4    8    7      0.03      0.00
   -3    8    7     -0.22      0.00
   -2    8    7     -0.11      0.00
   -1    8    7      0.09      0.00
    0    8    7     -0.28      0.00
    1    8    7      0.10      0.00
    2    8    7     -0.07      0.00
    3    8    7     -0.17      0.00
    4    8    7      0.26      0.00
    5    8    7      0.11      0.00
    6    8    7      0.10      0.00
    7    8    7     -0.13      0.00
    8    8    7     -0.25      0.00
   -8    9    7      0.19      0.00
   -7    9    7     -0.10      0.00
   -6    9    7      0.36      0.00
   -5    9    7     -0.03      0.00
   -4    9    7     -0.23      0.00
   -3    9    7     -0.52      0.00
   -2    9    7      0.26      0.00
   -1    9    7      0.36      0.00
    0    9    7     -0.30      0.00
    1    9    7      0.03      0.00
    2    9    7      0.20      0.00
    3    9    7     -0.55      0.00
    4    9    7     -0.22      0.00
    5    9    7     -0.21      0.00
    6    9    7      0.14      0.00
    7    9    7     -0.10      0.00
    8    9    7     -0.01      0.00
    9    9    7      0.49      0.00
   -8   10    7     -0.12      0.00
   -7   10    7      0.30      0.00
   -6   10    7      0.20      0.00
   -5   10    7      0.17      0.00
   -4   10    7     -0.49      0.00
   -3   10    7     -0.80      0.00
   -2   10    7      0.61      0.00
   -1   10    7      1.15      0.00
    0   10    7      0.55      0.00
    1   10    7      0.81      0.00
    2   10    7      0.90      0.00
    3   10    7     -0.49      0.00
    4   10    7     -0.56      0.00
    5   10    7     -0.28      0.00
    6   10    7      0.22      0.00
    7   10    7      0.15      0.00
    8   10    7     -0.19      0.00
   -7   11    7      0.77      0.00
   -6   11    7     -0.54      0.00
   -5   11    7     -0.19      0.00
   -4   11    7      0.00      0.00
   -3   11    7     -0.61      0.00
   -2   11    7     -0.03      0.00
   -1   11    7      0.29      0.00
    0   11    7     -0.36      0.00
    1   11    7     -0.03      0.00
    2   11    7      0.15      0.00
    3   11    7     -0.28      0.00
    4   11    7     -0.07      0.00
    5   11    7     -0.31      0.00
    6   11    7     -0.46      0.00
    7   11    7      0.65      0.00
   -5   12    7     -0.54      0.00
   -4   12    7      0.59      0.00
   -3   12    7      0.10      0.00
   -2   12    7     -0.21      0.00
   -1   12    7      0.07      0.00
    0   12    7     -0.63      0.00
    1   12    7     -0.03      0.00
    2   12    7     -0.12      0.00
    3   12    7      0.06      0.00
    4   12    7      0.23      0.00
    5   12    7     -0.26      0.00
   -2   13    7     -0.22      0.00
   -1   13    7      0.26      0.00
    0   13    7     -0.48      0.00
    1   13    7      0.36      0.00
    2   13    7     -0.13      0.00
    0    0    8     -0.05      0.00
    0    1    8     -0.41      0.00
    1    1    8     -0.84      0.00
   -1    2    8     -0.71      0.00
    0    2    8     -0.30      0.00
    1    2    8     -0.42      0.00
    2    2    8     -0.35      0.00
   -2    3    8      0.30      0.00
   -1    3    8     -0.16      0.00
    0    3    8     -0.48      0.00
    1    3    8      0.20      0.00
    2    3    8      0.33      0.00
    3    3    8      0.29      0.00
   -3    4    8     -0.44      0.00
   -2    4    8     -0.34      0.00
   -1    4    8      0.15      0.00
    0    4    8     -0.15      0.00
    1    4    8      0.14      0.00
    2    4    8     -0.32      0.00
    3    4    8     -0.15      0.00
    4    4    8      0.19      0.00
   -4    5    8     -0.28      0.00
   -3    5    8     -0.26      0.00
   -2    5    8     -0.40      0.00
   -1    5    8     -0.10      0.00
    0    5    8     -0.63      0.00
    1    5    8     -0.17      0.00
    2    5    8     -0.32      0.00
    3    5    8     -0.14      0.00
    4    5    8     -0.02      0.00
    5    5    8     -0.57      0.00
   -5    6    8      0.34      0.00
   -4    6    8      0.01      0.00
   -3    6    8      0.25      0.00
   -2    6    8      0.06      0.00
   -1    6    8      0.41      0.00
    0    6    8     -0.08      0.00
    1    6    8      0.33      0.00
    2    6    8      0.07      0.00
    3    6    8      0.13      0.00
    4    6    8      0.15      0.00
    5    6    8      0.14      0.00
    6    6    8      0.84      0.00
   -6    7    8      0.24      0.00
   -5    7    8     -0.23      0.00
   -4    7    8     -0.26      0.00
   -3    7    8      0.04      0.00
   -2    7    8     -0.24      0.00
   -1    7    8     -0.07      0.00
    0    7    8     -0.43      0.00
    1    7    8     -0.35      0.00
    2    7    8     -0.42      0.00
    3    7    8      0.02      0.00
    4    7    8     -0.04      0.00
    5    7    8     -0.14      0.00
    6    7    8      0.17      0.00
    7    7    8     -0.12      0.00
   -7    8    8     -0.60      0.00
   -6    8    8     -0.05      0.00
   -5    8    8     -0.28      0.00
   -4    8    8      0.22      0.00
   -3    8    8      0.46      0.00
   -2    8    8      0.19      0.00
   -1    8    8      0.00      0.00
    0    8    8      0.00      0.00
    1    8    8     -0.03      0.00
    2    8    8      0.10      0.00
    3    8    8      0.31      0.00
    4    8    8      0.07      0.00
    5    8    8     -0.27      0.00
    6    8    8     -0.09      0.00
    7    8    8     -0.20      0.00
    8    8    8     -0.07      0.00
   -8    9    8      0.38      0.00
   -7    9    8     -0.44      0.00
   -6    9    8      0.33      0.00
   -5    9    8      0.06      0.00
   -4    9    8     -0.63      0.00
   -3    9    8     -0.38      0.00
   -2    9    8      0.61      0.00
   -1    9    8      0.23      0.00
    0    9    8     -0.08      0.00
    1    9    8      0.03      0.00
    2    9    8      0.52      0.00
    3    9    8     -0.31      0.00
    4    9    8     -0.46      0.00
    5    9    8     -0.04      0.00
    6    9    8      0.28      0.00
    7    9    8     -0.16      0.00
    8    9    8      0.51      0.00
   -7   10    8      0.04      0.00
   -6   10    8      0.39      0.00
   -5   10    8      0.00      0.00
   -4   10    8     -1.59      0.00
   -3   10    8     -1.40      0.00
   -2   10    8      0.23      0.00
   -1   10    8     -0.30      0.00
    0   10    8     -0.67      0.00
    1   10    8     -0.21      0.00
    2   10    8      0.47      0.00
    3   10    8     -1.16      0.00
    4   10    8     -1.39      0.00
    5   10    8     -0.41      0.00
    6   10    8      0.21      0.00
    7   10    8     -0.04      0.00
   -5   11    8      0.03      0.00
   -4   11    8     -0.13      0.00
   -3   11    8     -0.17      0.00
   -2   11    8      0.41      0.00
   -1   11    8     -0.10      0.00
    0   11    8     -0.22      0.00
    1   11    8     -0.10      0.00
    2   11    8      0.23      0.00
    3   11    8     -0.32      0.00
    4   11    8     -0.29      0.00
    5   11    8     -0.30      0.00
   -2   12    8     -0.18      0.00
   -1   12    8      0.15      0.00
    0   12    8      0.11      0.00
    1   12    8     -0.06      0.00
    2   12    8     -0.58      0.00
    0    0    9     -0.05      0.00
    0    1    9     -0.04      0.00
    1    1    9      0.28      0.00
   -1    2    9      0.54      0.00
    0    2    9      0.05      0.00
    1    2    9      0.36      0.00
    2    2    9     -0.17      0.00
   -2    3    9     -0.32      0.00
   -1    3    9      0.18      0.00
    0    3    9     -0.51      0.00
    1    3    9      0.15      0.00
    2    3    9     -0.24      0.00
    3    3    9      0.23      0.00
   -3    4    9      0.09      0.00
   -2    4    9     -0.34      0.00
   -1    4    9      0.25      0.00
    0    4    9     -0.34      0.00
    1    4    9      0.23      0.00
    2    4    9     -0.10      0.00
    3    4    9      0.33      0.00
    4    4    9     -0.10      0.00
   -4    5    9     -0.45      0.00
   -3    5    9     -0.01      0.00
   -2    5    9     -0.24      0.00
   -1    5    9      0.10      0.00
    0    5    9     -0.45      0.00
    1    5    9      0.13      0.00
    2    5    9     -0.02      0.00
    3    5    9      0.02      0.00
    4    5    9     -0.26      0.00
    5    5    9     -0.36      0.00
   -5    6    9      0.35      0.00
   -4    6    9      0.26      0.00
   -3    6    9      0.10      0.00
   -2    6    9     -0.11      0.00
   -1    6    9      0.14      0.00
    0    6    9     -0.33      0.00
    1    6    9      0.00      0.00
    2    6    9     -0.07      0.00
    3    6    9      0.04      0.00
    4    6    9      0.24      0.00
    5    6    9      0.09      0.00
    6    6    9     -0.18      0.00
   -6    7    9     -0.06      0.00
   -5    7    9      0.22      0.00
   -4    7    9      0.08      0.00
   -3    7    9     -0.24      0.00
   -2    7    9     -0.01      0.00
   -1    7    9      0.10      0.00
    0    7    9     -0.15      0.00
    1    7    9     -0.05      0.00
    2    7    9     -0.12      0.00
    3    7    9     -0.09      0.00
    4    7    9      0.00      0.00
    5    7    9      0.18      0.00
    6    7    9     -0.03      0.00
    7    7    9      0.00      0.00
   -7    8    9     -0.09      0.00
   -6    8    9      0.02      0.00
   -5    8    9     -0.10      0.00
   -4    8    9      0.00      0.00
   -3    8    9     -0.08      0.00
   -2    8    9      0.14      0.00
   -1    8    9     -0.15      0.00
    0    8    9      0.10      0.00
    1    8    9      0.13      0.00
    2    8    9      0.07      0.00
    3    8    9     -0.06      0.00
    4    8    9     -0.38      0.00
    5    8    9     -0.25      0.00
    6    8    9     -0.01      0.00
    7    8    9      0.11      0.00
   -6    9    9     -0.18      0.00
   -5    9    9      0.02      0.00
   -4    9    9      0.17      0.00
   -3    9    9      0.09      0.00
   -2    9    9      0.21      0.00
   -1    9    9     -0.22      0.00
    0    9    9      0.20      0.00
    1    9    9     -0.18      0.00
    2    9    9      0.00      0.00
    3    9    9      0.15      0.00
    4    9    9     -0.03      0.00
    5    9    9     -0.28      0.00
    6    9    9     -0.25      0.00
   -4   10    9      0.57      0.00
   -3   10    9      0.10      0.00
   -2   10    9      0.04      0.00
   -1   10    9     -0.48      0.00
    0   10    9      0.01      0.00
    1   10    9     -0.29      0.00
    2   10    9      0.10      0.00
    3   10    9      0.09      0.00
    4   10    9      0.13      0.00
    0    0   10      0.31      0.00
    0    1   10      0.19      0.00
    1    1   10      0.43      0.00
   -1    2   10      0.59      0.00
    0    2   10      0.39      0.00
    1    2   10      0.49      0.00
    2    2   10     -0.28      0.00
   -2    3   10     -1.21      0.00
   -1    3   10     -0.33      0.00
    0    3   10     -0.04      0.00
    1    3   10      0.20      0.00
    2    3   10     -0.37      0.00
    3    3   10     -0.27      0.00
   -3    4   10      0.38      0.00
   -2    4   10     -0.46      0.00
   -1    4   10      0.03      0.00
    0    4   10      0.17      0.00
    1    4   10      0.23      0.00
    2    4   10      0.10      0.00
    3    4   10      0.29      0.00
    4    4   10      0.32      0.00
   -4    5   10      0.10      0.00
   -3    5   10      0.14      0.00
   -2    5   10     -0.04      0.00
   -1    5   10      0.27      0.00
    0    5   10      0.05      0.00
    1    5   10     -0.12      0.00
    2    5   10     -0.18      0.00
    3    5   10     -0.56      0.00
    4    5   10     -0.48      0.00
    5    5   10      0.14      0.00
   -5    6   10      0.34      0.00
   -4    6   10      0.25      0.00
   -3    6   10      0.06      0.00
   -2    6   10      0.22      0.00
   -1    6   10      0.29      0.00
    0    6   10     -0.12      0.00
    1    6   10     -0.16      0.00
    2    6   10      0.43      0.00
    3    6   10      0.31      0.00
    4    6   10      0.12      0.00
    5    6   10      0.21      0.00
    6    6   10      0.03      0.00
   -5    7   10     -0.07      0.00
   -4    7   10      0.14      0.00
   -3    7   10     -0.15      0.00
   -2    7   10     -0.11      0.00
   -1    7   10     -0.17      0.00
    0    7   10     -0.01      0.00
    1    7   10     -0.12      0.00
    2    7   10      0.14      0.00
    3    7   10      0.23      0.00
    4    7   10     -0.03      0.00
    5    7   10     -0.04      0.00
   -4    8   10      0.39      0.00
   -3    8   10      0.15      0.00
   -2    8   10     -0.56      0.00
   -1    8   10     -0.76      0.00
    0    8   10      0.26      0.00
    1    8   10     -0.16      0.00
    2    8   10     -0.66      0.00
    3    8   10     -0.28      0.00
    4    8   10     -0.30      0.00
   -1    9   10     -0.02      0.00
    0    9   10      0.95      0.00
    1    9   10      0.14      0.00
    0    0   11      0.43      0.00
    0    1   11     -0.53      0.00
    1    1   11     -0.91      0.00
   -1    2   11     -0.14      0.00
    0    2   11     -0.34      0.00
    1    2   11     -0.43      0.00
    2    2   11      0.34      0.00
   -2    3   11      0.25      0.00
   -1    3   11     -0.24      0.00
    0    3   11     -0.16      0.00
    1    3   11     -0.34      0.00
    2    3   11     -0.04      0.00
    3    3   11      0.05      0.00
   -3    4   11      0.53      0.00
   -2    4   11      0.30      0.00
   -1    4   11     -0.53      0.00
    0    4   11     -0.10      0.00
    1    4   11     -0.46      0.00
    2    4   11     -0.21      0.00
    3    4   11      0.05      0.00
    4    4   11      0.31      0.00
   -4    5   11     -0.06      0.00
   -3    5   11     -0.02      0.00
   -2    5   11      0.04      0.00
   -1    5   11     -0.23      0.00
    0    5   11      0.51      0.00
    1    5   11      0.00      0.00
    2    5   11     -0.14      0.00
    3    5   11     -0.23      0.00
    4    5   11      0.05      0.00
   -2    6   11      0.24      0.00
   -1    6   11     -0.19      0.00
    0    6   11     -0.28      0.00
    1    6   11     -0.42      0.00
    2    6   11      0.05      0.00
    0    0   12      0.58      0.00
    0    1   12     -0.10      0.00
    1    1   12      0.16      0.00
    0    1    0     27.01      0.00
    1    1    0    -23.13      0.00
   -1    2    0    -10.79      0.00
    0    2    0      1.25      0.00
    1    2    0     -7.57      0.00
    2    2    0     12.00      0.00
   -2    3    0      6.68      0.00
    0    3    0     -7.60      0.00
    2    3    0      1.42      0.00
   -3    4    0      0.26      0.00
    3    4    0      2.18      0.00
   12   12    0      1.83      0.00
  -12   13    0      0.96      0.00
  -11   13    0      0.29      0.00
  -10   13    0      0.00      0.00
   10   13    0      0.00      0.00
   11   13    0      0.72      0.00
   12   13    0      0.84      0.00
  -10   14    0      0.38      0.00
   -9   14    0     -0.30      0.00
    9   14    0     -1.26      0.00
   10   14    0     -0.28      0.00
   -9   15    0     -0.45      0.00
   -8   15    0     -0.49      0.00
   -7   15    0      0.98      0.00
    7   15    0      0.55      0.00
    8   15    0     -0.66      0.00
    9   15    0     -0.95      0.00
   -7   16    0      0.65      0.00
   -6   16    0     -0.30      0.00
   -5   16    0     -0.11      0.00
   -4   16    0     -0.19      0.00
    4   16    0      0.75      0.00
    5   16    0     -0.13      0.00
    6   16    0     -0.35      0.00
    7   16    0      0.39      0.00
   -5   17    0     -0.12      0.00
   -4   17    0     -0.01      0.00
   -3   17    0     -0.18      0.00
   -2   17    0     -0.28      0.00
   -1   17    0     -0.15      0.00
    0   17    0      0.08      0.00
    1   17    0      0.06      0.00
    2   17    0     -0.37      0.00
    3   17    0      0.23      0.00
    4   17    0     -0.08      0.00
    5   17    0     -0.13      0.00
    0    0    1     25.49      0.00
    0    1    1     -9.19      0.00
    2    2    1     17.36      0.00
    0    3    1     -7.56      0.00
    2    3    1     -3.67      0.00
    0    4    1     -3.19      0.00
  -11   12    1     -0.08      0.00
   11   12    1     -0.74      0.00
   12   12    1     -0.58      0.00
  -12   13    1      0.08      0.00
  -11   13    1     -0.30      0.00
  -10   13    1      0.32      0.00
   10   13    1      0.24      0.00
   11   13    1     -0.19      0.00
   12   13    1     -0.18      0.00
  -10   14    1      0.76      0.00
   -9   14    1      0.13      0.00
    9   14    1     -0.24      0.00
   10   14    1      0.39      0.00
   -9   15    1     -0.56      0.00
   -8   15    1     -0.60      0.00
   -7   15    1      0.52      0.00
    7   15    1     -0.01      0.00
    8   15    1     -0.23      0.00
    9   15    1     -0.43      0.00
   -7   16    1      0.51      0.00
   -6   16    1      0.01      0.00
   -5   16    1     -0.12      0.00
   -4   16    1     -0.37      0.00
   -3   16    1      0.74      0.00
    3   16    1      0.24      0.00
    4   16    1     -0.37      0.00
    5   16    1      0.11      0.00
    6   16    1     -0.14      0.00
    7   16    1     -0.26      0.00
   -5   17    1     -0.21      0.00
   -4   17    1     -0.27      0.00
   -3   17    1      0.07      0.00
   -2   17    1     -0.13      0.00
   -1   17    1     -0.49      0.00
    0   17    1     -0.14      0.00
    1   17    1      0.30      0.00
    2   17    1     -0.10      0.00
    3   17    1     -0.34      0.00
    4   17    1     -0.90      0.00
    5   17    1      0.14      0.00
    0    0    2      0.07      0.00
    0    1    2     -7.71      0.00
    0    2    2     16.04      0.00
   -2    3    2     -5.57      0.00
    2    3    2     -7.80      0.00
  -11   12    2     -0.12      0.00
   11   12    2     -0.22      0.00
   12   12    2     -0.06      0.00
  -11   13    2     -0.67      0.00
  -10   13    2     -0.54      0.00
   10   13    2     -0.43      0.00
   11   13    2     -0.38      0.00
  -10   14    2      0.24      0.00
   -9   14    2      0.03      0.00
   -8   14    2      1.03      0.00
    8   14    2      0.83      0.00
    9   14    2     -0.23      0.00
   10   14    2     -0.20      0.00
   -9   15    2     -0.26      0.00
   -8   15    2      0.16      0.00
   -7   15    2      0.25      0.00
   -6   15    2     -0.79      0.00
    6   15    2     -0.04      0.00
    7   15    2      0.30      0.00
    8   15    2      0.49      0.00
    9   15    2     -0.10      0.00
   -7   16    2     -0.06      0.00
   -6   16    2     -0.54      0.00
   -5   16    2      0.00      0.00
   -4   16    2     -0.14      0.00
   -3   16    2      0.35      0.00
   -2   16    2      0.37      0.00
    2   16    2      0.50      0.00
    3   16    2      0.38      0.00
    4   16    2     -0.26      0.00
    5   16    2      0.16      0.00
    6   16    2     -0.15      0.00
    7   16    2     -0.28      0.00
   -4   17    2      0.00      0.00
   -3   17    2      0.01      0.00
   -2   17    2      0.26      0.00
   -1   17    2      0.05      0.00
    0   17    2     -0.20      0.00
    1   17    2      0.62      0.00
    2   17    2      0.50      0.00
    3   17    2      0.04      0.00
    4   17    2     -0.70      0.00
    0    0    3     21.39      0.00
  -11   12    3      0.18      0.00
   11   12    3      0.33      0.00
   12   12    3     -0.17      0.00
  -11   13    3     -0.11      0.00
  -10   13    3      0.59      0.00
   -9   13    3     -0.15      0.00
    9   13    3      0.11      0.00
   10   13    3      0.33      0.00
   11   13    3      0.25      0.00
  -10   14    3      0.63      0.00
   -9   14    3      0.07      0.00
   -8   14    3      0.15      0.00
    8   14    3     -0.10      0.00
    9   14    3      0.17      0.00
   10   14    3      0.32      0.00
   -8   15    3      0.25      0.00
   -7   15    3      0.42      0.00
   -6   15    3     -0.29      0.00
   -5   15    3     -0.01      0.00
    5   15    3     -0.34      0.00
    6   15    3      0.46      0.00
    7   15    3      0.10      0.00
    8   15    3     -0.09      0.00
   -6   16    3     -0.29      0.00
   -5   16    3      0.15      0.00
   -4   16    3      0.23      0.00
   -3   16    3      0.12      0.00
   -2   16    3     -0.67      0.00
   -1   16    3      0.11      0.00
    0   16    3      0.22      0.00
    1   16    3     -0.20      0.00
    2   16    3     -0.57      0.00
    3   16    3      0.75      0.00
    4   16    3      0.24      0.00
    5   16    3     -0.40      0.00
    6   16    3     -0.09      0.00
   -3   17    3     -0.29      0.00
   -2   17    3     -0.38      0.00
   -1   17    3      0.15      0.00
    0   17    3      0.39      0.00
    1   17    3      0.26      0.00
    2   17    3     -0.24      0.00
    3   17    3      0.39      0.00
   11   11    4      0.53      0.00
  -11   12    4      0.13      0.00
  -10   12    4      0.43      0.00
   10   12    4     -0.19      0.00
   11   12    4      0.05      0.00
  -10   13    4      0.31      0.00
   -9   13    4     -0.18      0.00
    9   13    4     -0.07      0.00
   10   13    4     -0.30      0.00
   -9   14    4     -0.47      0.00
   -8   14    4     -0.40      0.00
   -7   14    4     -0.96      0.00
    7   14    4     -1.05      0.00
    8   14    4     -0.34      0.00
    9   14    4      0.11      0.00
   -7   15    4     -0.38      0.00
   -6   15    4     -0.41      0.00
   -5   15    4      0.49      0.00
   -4   15    4     -0.57      0.00
    4   15    4      0.26      0.00
    5   15    4      0.65      0.00
    6   15    4      0.33      0.00
    7   15    4     -0.58      0.00
   -5   16    4      0.32      0.00
   -4   16    4     -0.26      0.00
   -3   16    4      0.15      0.00
   -2   16    4      0.18      0.00
   -1   16    4      0.31      0.00
    0   16    4      0.41      0.00
    1   16    4      0.12      0.00
    2   16    4     -0.35      0.00
    3   16    4      0.15      0.00
    4   16    4      0.16      0.00
    5   16    4      0.12      0.00
  -10   11    5      0.00      0.00
   10   11    5      0.33      0.00
   11   11    5     -0.42      0.00
  -11   12    5     -0.66      0.00
  -10   12    5     -0.08      0.00
   -9   12    5     -0.12      0.00
    9   12    5     -0.18      0.00
   10   12    5      0.33      0.00
   11   12    5     -0.48      0.00
  -10   13    5     -0.38      0.00
   -9   13    5      0.04      0.00
   -8   13    5      0.71      0.00
    8   13    5     -0.06      0.00
    9   13    5      0.02      0.00
   10   13    5     -0.03      0.00
   -8   14    5      0.69      0.00
   -7   14    5      0.00      0.00
   -6   14    5     -0.35      0.00
   -5   14    5      0.38      0.00
    5   14    5      0.09      0.00
    6   14    5      0.12      0.00
    7   14    5      0.36      0.00
    8   14    5      0.41      0.00
   -6   15    5     -0.26      0.00
   -5   15    5      0.15      0.00
   -4   15    5     -0.63      0.00
   -3   15    5     -0.09      0.00
   -2   15    5     -0.28      0.00
   -1   15    5      0.10      0.00
    0   15    5      1.03      0.00
    1   15    5      0.62      0.00
    2   15    5      0.01      0.00
    3   15    5     -0.32      0.00
    4   15    5     -0.21      0.00
    5   15    5     -0.13      0.00
    6   15    5      0.23      0.00
   -3   16    5      0.00      0.00
   -2   16    5     -0.19      0.00
   -1   16    5     -0.33      0.00
    0   16    5      0.24      0.00
    1   16    5      0.10      0.00
    2   16    5     -0.07      0.00
    3   16    5     -0.01      0.00
  -10   11    6      0.64      0.00
   -9   11    6      1.03      0.00
    9   11    6      0.49      0.00
   10   11    6      0.74      0.00
   11   11    6      0.17      0.00
  -10   12    6      0.43      0.00
   -9   12    6      0.42      0.00
   -8   12    6     -0.90      0.00
    8   12    6     -1.09      0.00
    9   12    6     -0.22      0.00
   10   12    6      0.35      0.00
   -9   13    6     -0.03      0.00
   -8   13    6     -0.53      0.00
   -7   13    6      0.30      0.00
   -6   13    6      0.67      0.00
    6   13    6     -0.03      0.00
    7   13    6      0.37      0.00
    8   13    6     -0.67      0.00
    9   13    6      0.02      0.00
   -7   14    6     -0.19      0.00
   -6   14    6      0.05      0.00
   -5   14    6     -0.13      0.00
   -4   14    6     -0.01      0.00
   -3   14    6      0.78      0.00
    3   14    6      0.77      0.00
    4   14    6      0.56      0.00
    5   14    6     -0.26      0.00
    6   14    6     -0.19      0.00
    7   14    6     -0.04      0.00
   -5   15    6     -0.17      0.00
   -4   15    6     -0.59      0.00
   -3   15    6      0.39      0.00
   -2   15    6      0.12      0.00
   -1   15    6      0.22      0.00
    0   15    6      0.49      0.00
    1   15    6      0.38      0.00
    2   15    6      0.52      0.00
    3   15    6      0.27      0.00
    4   15    6     -0.38      0.00
    5   15    6     -0.58      0.00
   -9   10    7     -0.34      0.00
    9   10    7     -0.32      0.00
   10   10    7     -0.95      0.00
  -10   11    7     -0.46      0.00
   -9   11    7      0.00      0.00
   -8   11    7      0.30      0.00
    8   11    7      0.36      0.00
    9   11    7      0.03      0.00
   10   11    7     -0.05      0.00
   -9   12    7      0.07      0.00
   -8   12    7     -0.09      0.00
   -7   12    7      0.58      0.00
   -6   12    7     -0.60      0.00
    6   12    7     -0.68      0.00
    7   12    7      0.77      0.00
    8   12    7      0.11      0.00
    9   12    7     -0.09      0.00
   -7   13    7      0.48      0.00
   -6   13    7      0.10      0.00
   -5   13    7     -0.29      0.00
   -4   13    7      0.49      0.00
   -3   13    7      0.46      0.00
    3   13    7     -0.19      0.00
    4   13    7     -0.29      0.00
    5   13    7     -0.19      0.00
    6   13    7     -0.36      0.00
    7   13    7      0.28      0.00
   -5   14    7      0.10      0.00
   -4   14    7     -0.04      0.00
   -3   14    7      0.29      0.00
   -2   14    7     -0.23      0.00
   -1   14    7      0.44      0.00
    0   14    7     -0.03      0.00
    1   14    7      0.56      0.00
    2   14    7      0.25      0.00
    3   14    7      0.33      0.00
    4   14    7      0.22      0.00
    5   14    7      0.39      0.00
   -1   15    7      0.23      0.00
    0   15    7      0.21      0.00
    1   15    7      0.21      0.00
    9    9    8      1.17      0.00
   -9   10    8      0.04      0.00
   -8   10    8     -0.23      0.00
    8   10    8      0.24      0.00
    9   10    8      0.27      0.00
   -8   11    8      0.00      0.00
   -7   11    8      0.86      0.00
   -6   11    8      0.17      0.00
    6   11    8     -0.44      0.00
    7   11    8     -0.08      0.00
    8   11    8      0.01      0.00
   -7   12    8      0.60      0.00
   -6   12    8     -0.07      0.00
   -5   12    8     -0.04      0.00
   -4   12    8      0.84      0.00
   -3   12    8      0.12      0.00
    3   12    8      0.03      0.00
    4   12    8      0.69      0.00
    5   12    8      0.34      0.00
    6   12    8     -0.41      0.00
    7   12    8      0.06      0.00
   -5   13    8     -0.07      0.00
   -4   13    8      0.60      0.00
   -3   13    8      0.09      0.00
   -2   13    8     -0.22      0.00
   -1   13    8      0.43      0.00
    0   13    8     -0.15      0.00
    1   13    8      0.16      0.00
    2   13    8     -0.66      0.00
    3   13    8     -0.27      0.00
    4   13    8      0.27      0.00
    5   13    8      0.41      0.00
   -1   14    8      0.14      0.00
    0   14    8     -0.62      0.00
    1   14    8      0.06      0.00
    8    8    9      0.15      0.00
   -8    9    9      0.44      0.00
   -7    9    9     -0.01      0.00
    7    9    9     -0.21      0.00
    8    9    9      0.03      0.00
    9    9    9      0.26      0.00
   -8   10    9     -0.08      0.00
   -7   10    9     -0.11      0.00
   -6   10    9     -0.27      0.00
   -5   10    9      0.61      0.00
    5   10    9     -0.04      0.00
    6   10    9     -0.09      0.00
    7   10    9     -0.14      0.00
    8   10    9     -0.03      0.00
   -6   11    9     -0.20      0.00
   -5   11    9      0.46      0.00
   -4   11    9      0.76      0.00
   -3   11    9      0.55      0.00
   -2   11    9      0.54      0.00
   -1   11    9     -0.35      0.00
    0   11    9      0.05      0.00
    1   11    9      0.35      0.00
    2   11    9      0.75      0.00
    3   11    9      0.38      0.00
    4   11    9      0.37      0.00
    5   11    9      0.35      0.00
    6   11    9      0.25      0.00
   -4   12    9      0.04      0.00
   -3   12    9     -0.18      0.00
   -2   12    9      0.03      0.00
   -1   12    9     -0.47      0.00
    0   12    9     -0.33      0.00
    1   12    9      0.22      0.00
    2   12    9      0.21      0.00
    3   12    9     -0.04      0.00
    4   12    9     -0.08      0.00
   -6    7   10      0.04      0.00
    6    7   10     -0.07      0.00
    7    7   10      0.15      0.00
   -7    8   10      0.01      0.00
   -6    8   10     -0.08      0.00
   -5    8   10     -0.31      0.00
    5    8   10     -0.23      0.00
    6    8   10     -0.19      0.00
    7    8   10      0.06      0.00
    8    8   10      0.00      0.00
   -7    9   10      0.22      0.00
   -6    9   10     -0.14      0.00
   -5    9   10     -0.49      0.00
   -4    9   10     -0.02      0.00
   -3    9   10      0.22      0.00
   -2    9   10     -0.15      0.00
    2    9   10     -0.33      0.00
    3    9   10      0.18      0.00
    4    9   10     -0.02      0.00
    5    9   10     -0.15      0.00
    6    9   10     -0.15      0.00
    7    9   10      0.01      0.00
   -5   10   10     -0.03      0.00
   -4   10   10     -0.42      0.00
   -3   10   10     -0.47      0.00
   -2   10   10     -0.19      0.00
   -1   10   10      0.17      0.00
    0   10   10      0.47      0.00
    1   10   10     -0.38      0.00
    2   10   10     -0.43      0.00
    3   10   10     -0.15      0.00
    4   10   10     -0.28      0.00
    5   10   10     -0.21      0.00
   -3   11   10     -0.33      0.00
   -2   11   10     -0.03      0.00
   -1   11   10     -0.07      0.00
    0   11   10     -0.06      0.00
    1   11   10     -0.45      0.00
    2   11   10     -0.34      0.00
    3   11   10     -0.34      0.00
    5    5   11      0.25      0.00
   -5    6   11      0.07      0.00
   -4    6   11     -0.36      0.00
   -3    6   11     -0.40      0.00
    3    6   11      0.06      0.00
    4    6   11      0.17      0.00
    5    6   11      0.11      0.00
    6    6   11     -0.03      0.00
   -6    7   11      0.00      0.00
   -5    7   11     -0.37      0.00
   -4    7   11     -0.28      0.00
   -3    7   11     -0.11      0.00
   -2    7   11      0.50      0.00
   -1    7   11      0.00      0.00
    0    7   11     -0.09      0.00
    1    7   11     -0.25      0.00
    2    7   11     -0.04      0.00
    3    7   11      0.04      0.00
    4    7   11     -0.04      0.00
    5    7   11     -0.29      0.00
    6    7   11     -0.17      0.00
   -5    8   11     -0.28      0.00
   -4    8   11      0.43      0.00
   -3    8   11      0.46      0.00
   -2    8   11     -0.15      0.00
   -1    8   11     -0.56      0.00
    0    8   11      0.25      0.00
    1    8   11     -0.21      0.00
    2    8   11     -0.64      0.00
    3    8   11      0.03      0.00
    4    8   11      0.19      0.00
    5    8   11     -0.12      0.00
   -3    9   11      0.32      0.00
   -2    9   11     -0.26      0.00
   -1    9   11     -0.50      0.00
    0    9   11      0.25      0.00
    1    9   11     -0.08      0.00
    2    9   11     -0.47      0.00
    3    9   11      0.07      0.00
   -1    2   12      0.79      0.00
    0    2   12     -0.46      0.00
    1    2   12      0.29      0.00
    2    2   12      1.31      0.00
   -2    3   12      0.35      0.00
   -1    3   12      0.37      0.00
    0    3   12     -0.08      0.00
    1    3   12     -0.18      0.00
    2    3   12     -0.22      0.00
    3    3   12     -0.91      0.00
   -3    4   12     -0.22      0.00
   -2    4   12      0.12      0.00
   -1    4   12     -0.17      0.00
    0    4   12      0.14      0.00
    1    4   12     -0.05      0.00
    2    4   12     -0.02      0.00
    3    4   12     -0.20      0.00
    4    4   12      0.17      0.00
   -4    5   12     -0.01      0.00
   -3    5   12     -0.25      0.00
   -2    5   12     -0.10      0.00
   -1    5   12     -0.23      0.00
    0    5   12      0.37      0.00
    1    5   12      0.42      0.00
    2    5   12      0.20      0.00
    3    5   12     -0.27      0.00
    4    5   12     -0.09      0.00
    5    5   12     -0.06      0.00
   -4    6   12      0.15      0.00
   -3    6   12     -0.26      0.00
   -2    6   12      0.02      0.00
   -1    6   12     -0.20      0.00
    0    6   12     -0.45      0.00
    1    6   12     -0.29      0.00
    2    6   12     -0.23      0.00
    3    6   12     -0.47      0.00
    4    6   12     -0.04      0.00
   -2    7   12      0.58      0.00
   -1    7   12      0.48      0.00
    0    7   12     -0.02      0.00
    1    7   12      0.14      0.00
    2    7   12      0.26      0.00
    0    0   13      1.90      0.00
    0    1   13      0.92      0.00
    1    1   13      0.46      0.00
   -1    2   13     -0.11      0.00
    0    2   13     -0.15      0.00
    1    2   13     -0.07      0.00
    0    0    0      0.00      0.00
# SQUEEZE RESULTS (Version = 230318)
# Note: Data are Listed for all Voids in the P1 Unit Cell
# i.e. Centre of Gravity, Solvent Accessible Volume,
# Recovered number of Electrons in the Void and
# Details about the Squeezed Material
loop_
  _platon_squeeze_void_nr
  _platon_squeeze_void_average_x
  _platon_squeeze_void_average_y
  _platon_squeeze_void_average_z
  _platon_squeeze_void_volume
  _platon_squeeze_void_count_electrons
  _platon_squeeze_void_content
   1 -0.003 -0.003 -0.020      1166       103 ' '
# Missing Reflections Below sin(th)/lambda = 0.25
loop_
  _platon_missing_refln_index_h
  _platon_missing_refln_index_k
  _platon_missing_refln_index_l
  _platon_missing_refln_theta
    0    1    0     2.824
    1    1    0     3.995
   -1    2    0     6.325
    0    2    0     5.655
    1    2    0     6.325
    2    2    0     8.010
   -2    3    0    10.232
    0    3    0     8.500
    2    3    0    10.232
   -3    4    0    14.261
    3    4    0    14.261
    0    0    1     3.822
    0    1    1     4.755
    2    2    1     8.887
    0    3    1     9.331
    2    3    1    10.938
    0    4    1    12.008
    0    0    2     7.662
    0    1    2     8.172
    0    2    2     9.543
   -2    3    2    12.833
    2    3    2    12.833
    0    0    3    11.536
_platon_squeeze_void_probe_radius                  1.20
_platon_squeeze_details
)
TITL 20181226ZH_ZJU_B12H12_2Cu_0m_a.res in P4/m
CELL   13.6129   13.6129   10.0610     90.00     90.00     90.00
SPGR P4/m
# Solvent Accessible Volume =      1175
# Electrons Found in S.A.V. =       100
# Note: Atoms in Void are Labelled as Cxxx and Qxxx for all Others
Q101 0.358 0.500 0.501 !       0.85 eA-3
Q102 0.500 0.504 0.813 !       0.68 eA-3
C103 0.912 0.508 0.032 !       0.68 eA-3
Q104 0.029 0.500 0.499 !       0.64 eA-3
)
;
_shelx_fab_checksum              27784
loop_
_space_group_symop_operation_xyz
'x, y, z'
'-x, -y, z'
'-y, x, z'
'y, -x, z'
'-x, -y, -z'
'x, y, -z'
'y, -x, -z'
'-y, x, -z'
loop_
_atom_site_label
_atom_site_type_symbol
_atom_site_fract_x
_atom_site_fract_y
_atom_site_fract_z
_atom_site_U_iso_or_equiv
_atom_site_adp_type
_atom_site_occupancy
_atom_site_site_symmetry_order
_atom_site_calc_flag
_atom_site_refinement_flags_posn
_atom_site_refinement_flags_adp
_atom_site_refinement_flags_occupancy
_atom_site_disorder_assembly
_atom_site_disorder_group
B1 B 0.6017(5) 0.5438(8) 0.9239(5) 0.0541(12) Uani 0.45 1 d . U P . .
H1A H 0.676271 0.582124 0.872261 0.065 Uiso 0.45 1 d R U P A .
B2' B 0.5122(9) 0.6110(5) 0.9253(5) 0.0466(12) Uani 0.4 1 d . U P A 2
H2A H 0.553739 0.694450 0.885830 0.056 Uiso 0.4 1 d R U P A 2
B2 B 0.5650(8) 0.5898(7) 0.9240(6) 0.0481(13) Uani 0.4 1 d . U P A 1
H2B H 0.606045 0.663601 0.871112 0.058 Uiso 0.4 1 d R U P A 1
B3 B 0.500000 0.500000 0.8337(4) 0.0465(10) Uani 1 4 d S T P A .
H3 H 0.500000 0.500000 0.731340 0.056 Uiso 1 4 d R U P . .
C1 C 0.5467(3) 0.3022(3) 0.4049(4) 0.0480(11) Uani 0.503(4) 1 d . . P B 1
H1 H 0.579361 0.337247 0.337593 0.058 Uiso 0.503(4) 1 calc R U P B 1
C2 C 0.5487(4) 0.2015(3) 0.4021(4) 0.0589(14) Uani 0.503(4) 1 d . . P B 1
H2 H 0.582672 0.168363 0.334215 0.071 Uiso 0.503(4) 1 calc R U P B 1
C3 C 0.5000(3) 0.1489(2) 0.500000 0.0581(8) Uani 1 2 d S T P . .
C4 C 0.4997(4) 0.0431(3) 0.500000 0.0701(10) Uani 1 2 d S T P B .
C1' C 0.4534(3) 0.3021(3) 0.4046(4) 0.0475(11) Uani 0.497(4) 1 d . . P B 2
H1' H 0.421373 0.337186 0.336846 0.057 Uiso 0.497(4) 1 calc R U P B 2
C2' C 0.4506(4) 0.2016(3) 0.4024(4) 0.0571(13) Uani 0.497(4) 1 d . . P B 2
H2' H 0.415510 0.168501 0.335458 0.068 Uiso 0.497(4) 1 calc R U P B 2
Cu1 Cu 0.500000 0.500000 0.500000 0.0307(3) Uani 1 8 d S T P B .
N1 N 0.50019(15) 0.35215(14) 0.500000 0.0372(5) Uani 1 2 d S T P . .
loop_
_atom_site_aniso_label
_atom_site_aniso_U_11
_atom_site_aniso_U_22
_atom_site_aniso_U_33
_atom_site_aniso_U_23
_atom_site_aniso_U_13
_atom_site_aniso_U_12
B1 0.0530(15) 0.0551(15) 0.0542(14) 0.0003(10) 0.0011(9) -0.0021(10)
B2' 0.0471(15) 0.0458(14) 0.0469(14) 0.0022(9) -0.0003(10) -0.0007(10)
B2 0.0488(15) 0.0475(15) 0.0481(15) 0.0008(9) 0.0011(10) -0.0026(10)
B3 0.0464(15) 0.0464(15) 0.047(2) 0.000 0.000 0.000
C1 0.060(3) 0.0302(18) 0.054(2) 0.0030(14) 0.0127(16) 0.0012(16)
C2 0.091(4) 0.0287(19) 0.057(2) -0.0040(15) 0.015(2) 0.015(2)
C3 0.082(2) 0.0235(14) 0.0684(18) 0.000 0.000 0.0002(13)
C4 0.106(3) 0.0295(13) 0.075(2) 0.000 0.000 0.0000(15)
C1' 0.058(3) 0.0303(18) 0.054(2) 0.0040(14) -0.0121(16) -0.0036(16)
C2' 0.085(4) 0.0274(19) 0.059(2) -0.0044(15) -0.015(2) -0.0133(19)
Cu1 0.0177(3) 0.0177(3) 0.0568(4) 0.000 0.000 0.000
N1 0.0335(11) 0.0235(10) 0.0546(11) 0.000 0.000 -0.0001(8)
loop_
_atom_type_symbol
_atom_type_description
_atom_type_scat_dispersion_real
_atom_type_scat_dispersion_imag
_atom_type_scat_source
C C 0.0137 0.0067 'International Tables Vol C Tables 4.2.6.8 and 6.1.1.4'
H H 0.0000 0.0000 'International Tables Vol C Tables 4.2.6.8 and 6.1.1.4'
B B 0.0070 0.0029 'International Tables Vol C Tables 4.2.6.8 and 6.1.1.4'
Cu Cu -2.7974 3.6876 'International Tables Vol C Tables 4.2.6.8 and 6.1.1.4'
N N 0.0241 0.0134 'International Tables Vol C Tables 4.2.6.8 and 6.1.1.4'
loop_
_geom_angle_atom_site_label_1
_geom_angle_atom_site_label_2
_geom_angle_atom_site_label_3
_geom_angle
_geom_angle_site_symmetry_1
_geom_angle_site_symmetry_3
_geom_angle_publ_flag
B2 B1 B2' 150.8(11) . 4_565 ?
B2' B1 B2' 136.3(9) 4_565 . ?
B2 B1 B1 89.9(6) . 6_557 ?
B2' B1 B1 88.9(6) 4_565 6_557 ?
B2' B1 B1 89.4(3) . 6_557 ?
B2 B1 B2 135.2(9) . 4_565 ?
B1 B1 B2 90.0(3) 6_557 4_565 ?
B2 B1 B2' 113.3(7) . 7_567 ?
B2' B1 B2' 61.9(7) 4_565 7_567 ?
B2' B1 B2' 108.6(5) . 7_567 ?
B1 B1 B2' 27.0(2) 6_557 7_567 ?
B2 B1 B2' 64.1(3) 4_565 7_567 ?
B2 B1 B2 62.3(7) . 6_557 ?
B2' B1 B2 112.8(7) 4_565 6_557 ?
B2' B1 B2 62.8(3) . 6_557 ?
B1 B1 B2 27.6(2) 6_557 6_557 ?
B2 B1 B2 109.2(5) 4_565 6_557 ?
B2' B1 B2 52.7(3) 7_567 6_557 ?
B2 B1 B3 77.0(6) . . ?
B2' B1 B3 78.7(7) 4_565 . ?
B2' B1 B3 65.1(3) . . ?
B1 B1 B3 121.0(2) 6_557 . ?
B2 B1 B3 65.0(3) 4_565 . ?
B2' B1 B3 111.5(4) 7_567 . ?
B2 B1 B3 110.6(4) 6_557 . ?
B2 B1 B2' 46.6(6) . 6_557 ?
B2' B1 B2' 119.9(7) 4_565 6_557 ?
B2' B1 B2' 44.3(4) . 6_557 ?
B1 B1 B2' 45.13(19) 6_557 6_557 ?
B2 B1 B2' 111.1(4) 4_565 6_557 ?
B2' B1 B2' 66.6(4) 7_567 6_557 ?
B2 B1 B2' 19.4(2) 6_557 6_557 ?
B3 B1 B2' 93.5(3) . 6_557 ?
B2 B1 H1A 100.3 . . ?
B2' B1 H1A 106.6 4_565 . ?
B2' B1 H1A 113.7 . . ?
B1 B1 H1A 114.5 6_557 . ?
B2 B1 H1A 120.2 4_565 . ?
B2' B1 H1A 119.7 7_567 . ?
B2 B1 H1A 116.7 6_557 . ?
B3 B1 H1A 124.4 . . ?
B2' B1 H1A 125.0 6_557 . ?
B1 B2' B2' 91.1(6) 3_655 6_557 ?
B1 B2' B1 133.7(9) 3_655 . ?
B2' B2' B1 90.6(3) 6_557 . ?
B1 B2' B1 64.1(7) 3_655 8_657 ?
B1 B2' B1 108.8(5) . 8_657 ?
B1 B2' B3 76.1(7) 3_655 . ?
B2' B2' B3 121.3(2) 6_557 . ?
B1 B2' B3 63.9(3) . . ?
B1 B2' B3 111.0(4) 8_657 . ?
B1 B2' B1 120.2(7) 3_655 6_557 ?
B2' B2' B1 45.13(19) 6_557 6_557 ?
B1 B2' B1 45.4(4) . 6_557 ?
B1 B2' B1 66.0(3) 8_657 6_557 ?
B3 B2' B1 93.3(3) . 6_557 ?
B1 B2' H2A 123.6 3_655 . ?
B2' B2' H2A 107.4 6_557 . ?
B1 B2' H2A 99.8 . . ?
B1 B2' H2A 121.3 8_657 . ?
B3 B2' H2A 127.6 . . ?
B1 B2' H2A 109.5 6_557 . ?
B1 B2 B2 90.1(6) . 6_557 ?
B1 B2 B1 134.8(9) . 3_655 ?
B2 B2 B1 90.0(3) 6_557 3_655 ?
B1 B2 B1 62.5(6) . 6_557 ?
B2 B2 B1 27.6(2) 6_557 6_557 ?
B1 B2 B1 109.1(5) 3_655 6_557 ?
B1 B2 B3 76.7(6) . . ?
B2 B2 B3 121.0(2) 6_557 . ?
B1 B2 B3 64.9(3) 3_655 . ?
B1 B2 B3 110.5(4) 6_557 . ?
B1 B2 H1A 50.2 . . ?
B2 B2 H1A 108.9 6_557 . ?
B1 B2 H1A 160.9 3_655 . ?
B1 B2 H1A 89.5 6_557 . ?
B3 B2 H1A 105.2 . . ?
B1 B2 H2B 110.2 . . ?
B2 B2 H2B 114.8 6_557 . ?
B1 B2 H2B 110.6 3_655 . ?
B1 B2 H2B 122.2 6_557 . ?
B3 B2 H2B 123.7 . . ?
H1A B2 H2B 60.0 . . ?
B1 B3 B1 74.6(2) . 3_655 ?
B1 B3 B1 117.9(4) . 2_665 ?
B1 B3 B1 74.6(2) 3_655 2_665 ?
B1 B3 B1 74.6(2) . 4_565 ?
B1 B3 B1 117.9(4) 3_655 4_565 ?
B1 B3 B1 74.6(2) 2_665 4_565 ?
B1 B3 B2' 51.0(2) . . ?
B1 B3 B2' 25.2(2) 3_655 . ?
B1 B3 B2' 95.4(3) 2_665 . ?
B1 B3 B2' 111.7(3) 4_565 . ?
B1 B3 B2' 25.2(2) . 4_565 ?
B1 B3 B2' 95.4(3) 3_655 4_565 ?
B1 B3 B2' 111.7(3) 2_665 4_565 ?
B1 B3 B2' 51.0(2) 4_565 4_565 ?
B1 B3 B2' 95.4(3) . 2_665 ?
B1 B3 B2' 111.7(3) 3_655 2_665 ?
B1 B3 B2' 51.0(2) 2_665 2_665 ?
B1 B3 B2' 25.2(2) 4_565 2_665 ?
B1 B3 B2' 111.7(3) . 3_655 ?
B1 B3 B2' 51.0(2) 3_655 3_655 ?
B1 B3 B2' 25.2(2) 2_665 3_655 ?
B1 B3 B2' 95.4(3) 4_565 3_655 ?
B2' B3 B2' 74.4(2) . 3_655 ?
B2' B3 B2' 117.5(4) 4_565 3_655 ?
B2' B3 B2' 74.4(2) 2_665 3_655 ?
B1 B3 B2 50.1(3) . 4_565 ?
B1 B3 B2 111.4(3) 3_655 4_565 ?
B1 B3 B2 96.3(3) 2_665 4_565 ?
B1 B3 B2 26.3(2) 4_565 4_565 ?
B1 B3 B2 111.4(3) . 2_665 ?
B1 B3 B2 96.3(3) 3_655 2_665 ?
B1 B3 B2 26.3(2) 2_665 2_665 ?
B1 B3 B2 50.1(3) 4_565 2_665 ?
B2 B3 B2 74.6(2) 4_565 2_665 ?
B1 B3 B2 96.3(3) . 3_655 ?
B1 B3 B2 26.3(2) 3_655 3_655 ?
B1 B3 B2 50.1(3) 2_665 3_655 ?
B1 B3 B2 111.4(3) 4_565 3_655 ?
B2' B3 B2 50.9(2) . 3_655 ?
B2' B3 B2 111.6(3) 4_565 3_655 ?
B2' B3 B2 95.5(3) 2_665 3_655 ?
B2' B3 B2 25.3(2) 3_655 3_655 ?
B2 B3 B2 117.9(4) 4_565 3_655 ?
B2 B3 B2 74.6(2) 2_665 3_655 ?
B1 B3 B2 26.3(2) . . ?
B1 B3 B2 50.1(3) 3_655 . ?
B1 B3 B2 111.4(3) 2_665 . ?
B1 B3 B2 96.3(3) 4_565 . ?
B2 B3 B2 74.6(2) 4_565 . ?
B2 B3 B2 117.9(4) 2_665 . ?
B2 B3 B2 74.6(2) 3_655 . ?
B1 B3 H3 121.0 . . ?
B1 B3 H3 121.0 3_655 . ?
B1 B3 H3 121.0 2_665 . ?
B1 B3 H3 121.0 4_565 . ?
B2' B3 H3 121.3 . . ?
B2' B3 H3 121.3 4_565 . ?
B2' B3 H3 121.3 2_665 . ?
B2' B3 H3 121.3 3_655 . ?
B2 B3 H3 121.0 4_565 . ?
B2 B3 H3 121.0 2_665 . ?
B2 B3 H3 121.0 3_655 . ?
B2 B3 H3 121.0 . . ?
N1 C1 C2 122.3(3) . . ?
N1 C1 C1 44.18(18) . 6_556 ?
C2 C1 C1 91.2(2) . 6_556 ?
N1 C1 H1 118.9 . . ?
C2 C1 H1 118.9 . . ?
C1 C1 H1 136.1 6_556 . ?
C1 C2 C3 119.5(3) . . ?
C1 C2 C2 88.8(2) . 6_556 ?
C3 C2 C2 44.7(2) . 6_556 ?
C1 C2 H2 120.3 . . ?
C3 C2 H2 120.3 . . ?
C2 C2 H2 136.6 6_556 . ?
C2 C3 C2 90.6(4) 6_556 . ?
C2 C3 C2' 57.5(3) 6_556 6_556 ?
C2 C3 C2' 117.9(3) . 6_556 ?
C2' C3 C2' 89.9(4) 6_556 . ?
C2 C3 C4 121.2(2) 6_556 . ?
C2 C3 C4 121.2(2) . . ?
C2' C3 C4 120.9(2) 6_556 . ?
C2' C3 C4 120.9(2) . . ?
C4 C4 C3 179.4(7) 5_656 . ?
N1 C1' C2' 122.3(3) . . ?
N1 C1' C1' 44.19(18) . 6_556 ?
N1 C1' H1' 118.8 . . ?
C2' C1' H1' 118.8 . . ?
C1' C1' H1' 136.5 6_556 . ?
C1' C2' C3 119.3(3) . . ?
C3 C2' C2' 45.0(2) . 6_556 ?
C1' C2' H2' 120.3 . . ?
C3 C2' H2' 120.3 . . ?
C2' C2' H2' 135.7 6_556 . ?
N1 Cu1 N1 180.0 7_566 3_655 ?
N1 Cu1 N1 90.0 7_566 5_666 ?
N1 Cu1 N1 90.0 3_655 5_666 ?
N1 Cu1 N1 90.0 7_566 . ?
N1 Cu1 N1 90.0 3_655 . ?
N1 Cu1 N1 180.0 5_666 . ?
C1 N1 C1 91.6(4) 6_556 . ?
C1 N1 C1' 56.8(3) 6_556 6_556 ?
C1 N1 C1' 118.7(3) . 6_556 ?
C1' N1 C1' 91.6(4) 6_556 . ?
C1 N1 Cu1 120.69(18) 6_556 . ?
C1 N1 Cu1 120.68(18) . . ?
C1' N1 Cu1 120.57(18) 6_556 . ?
C1' N1 Cu1 120.57(18) . . ?
loop_
_geom_bond_atom_site_label_1
_geom_bond_atom_site_label_2
_geom_bond_distance
_geom_bond_site_symmetry_2
_geom_bond_publ_flag
B1 B2 0.801(7) . ?
B1 B2' 0.772(7) 4_565 ?
B1 B2' 1.524(7) . ?
B1 B1 1.532(11) 6_557 ?
B1 B2 1.490(8) 4_565 ?
B1 B2' 1.702(7) 7_567 ?
B1 B2 1.728(7) 6_557 ?
B1 B3 1.759(6) . ?
B1 B2' 2.151(7) 6_557 ?
B1 H1A 1.2538 . ?
B2' B2' 1.502(11) 6_557 ?
B2' B3 1.778(6) . ?
B2' H2A 1.3301 . ?
B2 B2 1.530(12) 6_557 ?
B2 B3 1.761(6) . ?
B2 H1A 1.6043 . ?
B2 H2B 1.2666 . ?
B3 H3 1.0295 . ?
C1 N1 1.334(4) . ?
C1 C2 1.372(5) . ?
C1 C1 1.913(7) 6_556 ?
C1 H1 0.9400 . ?
C2 C3 1.386(5) . ?
C2 C2 1.971(8) 6_556 ?
C2 H2 0.9400 . ?
C3 C2' 1.390(5) 6_556 ?
C3 C2' 1.390(5) . ?
C3 C4 1.440(4) . ?
C4 C4 1.174(7) 5_656 ?
C1' N1 1.338(4) . ?
C1' C2' 1.369(5) . ?
C1' C1' 1.919(8) 6_556 ?
C1' H1' 0.9400 . ?
C2' C2' 1.965(8) 6_556 ?
C2' H2' 0.9400 . ?
Cu1 N1 2.013(2) 7_566 ?
Cu1 N1 2.013(2) 3_655 ?
Cu1 N1 2.013(2) 5_666 ?
Cu1 N1 2.013(2) . ?
