#------------------------------------------------------------------------------
#$Date: 2020-03-03 04:43:21 +0200 (Tue, 03 Mar 2020) $
#$Revision: 248636 $
#$URL: file:///home/coder/svn-repositories/cod/cif/7/24/00/7240012.cif $
#------------------------------------------------------------------------------
#
# This file is available in the Crystallography Open Database (COD),
# http://www.crystallography.net/
#
# All data on this site have been placed in the public domain by the
# contributors.
#
data_7240012
loop_
_publ_author_name
'Yong-Sheng, Shi'
'Liu, Dong'
'Fu, Lianshe'
'Li, Yuehua'
'Dong, Gui-Ying'
_publ_section_title
;
 Five water-stable luminescent CdII-based metal-organic frameworks as
 sensors for highly sensitive and selective detection of acetylacetone,
 Fe3+ and Cr2O72- ions
;
_journal_name_full               CrystEngComm
_journal_paper_doi               10.1039/D0CE00140F
_journal_year                    2020
_chemical_formula_moiety         'C38 H30 Cd Cl2 N6 O4'
_chemical_formula_sum            'C38 H36.7 Cd Cl2 N6 O6.85'
_chemical_formula_weight         870.33
_space_group_crystal_system      triclinic
_space_group_IT_number           2
_space_group_name_Hall           '-P 1'
_space_group_name_H-M_alt        'P -1'
_atom_sites_solution_hydrogens   geom
_atom_sites_solution_primary     dual
_audit_creation_date             2019-12-23
_audit_creation_method
;
Olex2 1.2-beta
(compiled 2018.05.29 svn.r3508 for OlexSys, GUI svn.r5506)
;
_audit_update_record
;
2020-01-12 deposited with the CCDC.	2020-03-02 downloaded from the CCDC.
;
_cell_angle_alpha                91.228(4)
_cell_angle_beta                 101.525(4)
_cell_angle_gamma                90.458(4)
_cell_formula_units_Z            2
_cell_length_a                   9.6284(6)
_cell_length_b                   10.2786(4)
_cell_length_c                   18.7313(9)
_cell_measurement_reflns_used    6125
_cell_measurement_temperature    293(2)
_cell_measurement_theta_max      21.63
_cell_measurement_theta_min      2.35
_cell_volume                     1815.83(16)
_computing_molecular_graphics    'Olex2 (Dolomanov et al., 2009)'
_computing_publication_material  'Olex2 (Dolomanov et al., 2009)'
_computing_structure_refinement  'ShelXL (Sheldrick, 2015)'
_computing_structure_solution    'ShelXT (Sheldrick, 2015)'
_diffrn_ambient_temperature      293(2)
_diffrn_measured_fraction_theta_full 0.994
_diffrn_measured_fraction_theta_max 0.862
_diffrn_measurement_device_type  'multiwire proportional'
_diffrn_measurement_method       'phi and omega scans'
_diffrn_radiation_monochromator  graphite
_diffrn_radiation_type           MoK\a
_diffrn_radiation_wavelength     0.71073
_diffrn_reflns_av_R_equivalents  0.0763
_diffrn_reflns_av_unetI/netI     0.0670
_diffrn_reflns_Laue_measured_fraction_full 0.906
_diffrn_reflns_Laue_measured_fraction_max 0.862
_diffrn_reflns_limit_h_max       13
_diffrn_reflns_limit_h_min       -13
_diffrn_reflns_limit_k_max       14
_diffrn_reflns_limit_k_min       -14
_diffrn_reflns_limit_l_max       26
_diffrn_reflns_limit_l_min       -26
_diffrn_reflns_number            42308
_diffrn_reflns_point_group_measured_fraction_full 0.906
_diffrn_reflns_point_group_measured_fraction_max 0.862
_diffrn_reflns_theta_full        25.242
_diffrn_reflns_theta_max         31.032
_diffrn_reflns_theta_min         2.618
_exptl_absorpt_coefficient_mu    0.805
_exptl_absorpt_correction_type   none
_exptl_crystal_colour            colourless
_exptl_crystal_density_diffrn    1.564
_exptl_crystal_description       block
_exptl_crystal_F_000             870
_refine_diff_density_max         2.311
_refine_diff_density_min         -0.977
_refine_diff_density_rms         0.163
_refine_ls_extinction_method     none
_refine_ls_goodness_of_fit_ref   1.036
_refine_ls_hydrogen_treatment    constr
_refine_ls_matrix_type           full
_refine_ls_number_parameters     460
_refine_ls_number_reflns         9988
_refine_ls_number_restraints     0
_refine_ls_restrained_S_all      1.036
_refine_ls_R_factor_all          0.0997
_refine_ls_R_factor_gt           0.0735
_refine_ls_shift/su_max          0.001
_refine_ls_shift/su_mean         0.000
_refine_ls_structure_factor_coef Fsqd
_refine_ls_weighting_details
'w=1/[\s^2^(Fo^2^)+(0.1239P)^2^+1.9640P] where P=(Fo^2^+2Fc^2^)/3'
_refine_ls_weighting_scheme      calc
_refine_ls_wR_factor_gt          0.1846
_refine_ls_wR_factor_ref         0.2002
_reflns_Friedel_coverage         0.000
_reflns_number_gt                7527
_reflns_number_total             9988
_reflns_threshold_expression     'I > 2\s(I)'
_cod_data_source_file            d0ce00140f2.cif
_cod_data_source_block           4
_cod_database_code               7240012
_shelx_shelxl_version_number     2018/3
_shelx_space_group_comment
;
The symmetry employed for this shelxl refinement is uniquely defined
by the following loop, which should always be used as a source of
symmetry information in preference to the above space-group names.
They are only intended as comments.
;
_olex2_refinement_description
;
1. Fixed Uiso
 At 1.2 times of:
  All C(H) groups, All C(H,H) groups
2.a Secondary CH2 refined with riding coordinates:
 C10(H10A,H10B), C26(H26A,H26B), C21(H21A,H21B), C23(H23A,H23B), C24(H24A,
 H24B), C22(H22A,H22B)
2.b Aromatic/amide H refined with riding coordinates:
 C7(H7), C15(H15), C28(H28), C12(H12), C13(H13), C29(H29), C3(H3), C36(H36),
 C14(H14), C20(H20), C33(H33), C34(H34), C35(H35), C31(H31), C17(H17), C30(H30),
  C18(H18), C19(H19)
;
_shelx_res_file
;
TITL 2_a.res in P-1
    2.res
    created by SHELXL-2018/3 at 11:20:39 on 14-Sep-2019
CELL 0.71073 9.6284 10.2786 18.7313 91.228 101.525 90.458
ZERR 2 0.0006 0.0004 0.0009 0.004 0.004 0.004
LATT 1
SFAC C  H  Cd Cl N  O
UNIT 76 70 2 4 12 12
OMIT 1 1 3
OMIT 1 3 0
OMIT 1 -2 5
OMIT -3 1 0
OMIT 0 1 0
OMIT -1 2 0
OMIT 1 -1 9
OMIT 0 5 0
OMIT 0 -1 7
OMIT 4 -2 4
OMIT 1 0 0
OMIT -2 -1 7
OMIT 0 0 2
OMIT 1 0 5
OMIT -3 2 3
OMIT -6 3 3
OMIT 3 1 3
OMIT 1 3 6
OMIT -2 -1 10
OMIT 3 3 2
OMIT 1 2 1
OMIT 0 -4 3
OMIT 3 0 1
OMIT -3 2 0
OMIT -1 -5 8
OMIT 0 -2 6
OMIT -3 0 1
OMIT -3 -4 5
OMIT -3 -3 1
OMIT 1 0 8
OMIT -4 5 2
OMIT -2 2 6
OMIT 0 5 3
OMIT 2 -1 3
OMIT -4 -1 1
OMIT -3 -4 2
OMIT -2 2 14
OMIT 4 0 6
OMIT 0 2 6
OMIT -4 0 6
OMIT 2 3 3
OMIT -1 2 5
OMIT -1 1 9
OMIT 1 4 7
OMIT -3 6 0
OMIT -4 2 1
OMIT 2 -1 1
OMIT -2 -2 3
OMIT -2 0 6
OMIT -1 -4 2
OMIT 5 -1 3
OMIT 0 -1 5
OMIT -11 -1 2
OMIT 3 5 2
OMIT 1 2 7
OMIT -1 0 8
OMIT -3 3 3
OMIT -12 1 17
OMIT -1 2 7
OMIT -1 0 1
OMIT 1 2 10
OMIT -2 4 5
OMIT -3 -2 4
OMIT 0 0 6
OMIT 1 2 3
OMIT 0 -2 3
OMIT 0 1 1
OMIT -1 3 3
OMIT -2 4 2
OMIT 6 -1 2
OMIT -11 -1 3
OMIT -6 0 2
OMIT 1 0 2
OMIT -3 0 4
OMIT 2 1 4
OMIT 3 -2 2
OMIT -3 1 3
OMIT -1 1 2
OMIT -3 -2 1
OMIT 1 -1 5
OMIT 0 4 1
OMIT 3 1 0
OMIT -1 -2 4
OMIT -2 -6 2
OMIT 2 3 0
OMIT 1 1 12
OMIT 1 0 4
OMIT -5 0 1
OMIT 0 2 5
OMIT 1 -4 3
OMIT 1 -5 2
OMIT 4 -1 3
OMIT -1 4 6
OMIT -13 0 3
OMIT -2 -2 2
OMIT 4 3 2
OMIT 6 1 2
OMIT -3 -1 9
OMIT -11 -5 17
OMIT -1 2 3
OMIT 1 -2 6
OMIT -2 -4 7
OMIT 2 0 4
OMIT -2 3 4
OMIT 1 1 1
OMIT 0 3 9
OMIT -5 -3 6
OMIT 3 4 1
OMIT 1 -5 4
OMIT -2 -3 8
OMIT -6 -3 2
OMIT -1 -2 3
OMIT -5 1 3
OMIT 2 5 3
OMIT 0 -3 6
OMIT -3 1 8
OMIT -12 -1 4
OMIT 3 0 7
OMIT -2 1 5
OMIT -5 2 4
OMIT 1 5 2
OMIT -5 -2 5
OMIT 4 2 9
OMIT 0 3 0
OMIT 1 5 1
OMIT -6 2 4
OMIT -1 4 8
OMIT 1 -2 8
OMIT -4 -1 8
OMIT 2 1 2
OMIT -3 3 2
OMIT -4 -2 7
OMIT -3 4 5
OMIT -1 -3 13
OMIT 4 -6 5
OMIT 0 0 9
OMIT -2 -3 1
OMIT 0 3 4
OMIT -6 4 4
OMIT 3 -5 2
OMIT -2 -5 8
OMIT 1 0 13
OMIT -3 -3 6
OMIT -3 0 2
OMIT -1 -1 1
OMIT 2 1 0
OMIT -1 -3 10
OMIT 4 3 4
OMIT -3 5 1
OMIT -1 5 1
OMIT 0 4 8
OMIT -1 4 0
OMIT -6 -1 3
OMIT 4 2 1
OMIT 5 1 0
OMIT 0 -4 4
OMIT -2 6 10
OMIT -5 1 11
OMIT -2 -1 11
OMIT 2 1 11
OMIT 4 -1 8
OMIT -6 -3 4
OMIT -5 -3 1
OMIT -4 -2 2
OMIT 1 4 0
OMIT -2 -2 6
OMIT -4 2 7
OMIT 0 -1 1
OMIT -6 1 1
OMIT 0 6 4
OMIT -1 2 4
OMIT -12 -1 6
OMIT -2 -4 5
OMIT 1 0 3
OMIT 3 -3 1
OMIT -2 -3 11
OMIT 2 2 1
OMIT 2 0 3
OMIT 0 2 8
OMIT -3 6 8
OMIT 1 4 10
OMIT -1 -2 5
OMIT -4 -3 8
OMIT 2 -2 6
OMIT 1 2 4
OMIT -2 -2 12
OMIT -3 -5 1
OMIT 1 3 8
OMIT 2 -2 5
OMIT -3 -3 9
OMIT -4 -4 2
OMIT 2 -3 2
OMIT 2 2 9
OMIT 3 3 3
OMIT -1 4 10
OMIT 0 -2 4
OMIT 0 2 0
OMIT -4 0 2
OMIT -4 1 0
OMIT -2 -1 4
OMIT 0 4 3
OMIT -3 -1 5
OMIT 2 0 0
OMIT 0 -4 7
OMIT 3 -1 1
OMIT 5 -3 2
OMIT -1 -3 3
OMIT 2 3 1
OMIT -3 -1 1
OMIT 0 1 6
OMIT 3 -4 5
OMIT -2 -2 10
OMIT -1 -4 3
OMIT 1 7 2
OMIT -4 1 7
OMIT 2 1 1
OMIT -5 -1 9
OMIT 1 -1 4
OMIT -3 0 7
OMIT -1 -3 2
OMIT -1 -1 3
OMIT 3 -2 5
OMIT -1 -2 2
OMIT 3 0 5
OMIT 2 -6 3
OMIT 2 3 2
OMIT 2 -4 8
OMIT -3 -5 5
OMIT -1 -2 6
OMIT 0 4 5
OMIT 3 1 6
OMIT -1 0 2
OMIT -5 -3 9
OMIT -2 2 4
OMIT -1 1 12
OMIT 1 1 9
OMIT 2 -3 9
OMIT -2 4 11
OMIT 2 -1 5
OMIT -4 -5 12
OMIT -2 7 0
OMIT -1 5 4
OMIT 2 -3 4
OMIT 2 0 5
OMIT 1 6 6
OMIT 4 -4 5
OMIT -3 6 5
OMIT 1 -3 2
OMIT 6 3 4
OMIT -2 4 8
OMIT -3 4 3
OMIT -2 3 12
OMIT -1 -4 6
OMIT -4 0 3
OMIT 6 0 3
OMIT 2 0 2
OMIT -4 1 1
OMIT 0 0 5
OMIT -1 3 0
OMIT -4 -1 14
OMIT -2 3 9
OMIT 3 0 0
OMIT 3 -1 4
OMIT -1 -4 11
OMIT 0 3 1
OMIT 4 1 2
OMIT -2 1 7
OMIT 3 2 3
OMIT 5 -2 6
OMIT -3 5 2
OMIT -1 6 0
OMIT -11 -6 16
OMIT 2 0 6
OMIT -3 7 1
OMIT 2 -2 1
OMIT 3 6 6
OMIT 1 4 6
OMIT -6 0 5
OMIT 1 1 4
OMIT -6 2 5
OMIT -4 -2 3
OMIT 0 -5 11
OMIT 3 -2 8
OMIT 3 -3 6
OMIT -2 3 0
OMIT -3 -3 4
OMIT -1 4 2
OMIT 0 7 3
OMIT -5 0 8
OMIT 5 -3 1
OMIT 2 4 4
OMIT -3 7 4
OMIT -2 -2 8
OMIT -3 2 5
OMIT -4 1 10
OMIT 0 -8 2
OMIT 4 2 5
OMIT 2 -4 5
OMIT -4 1 13
OMIT 1 3 2
OMIT -3 3 7
OMIT -1 3 12
OMIT -2 4 13
OMIT -12 -1 7
OMIT -5 -1 4
OMIT -4 6 3
OMIT 4 5 4
OMIT -5 -4 5
OMIT -3 2 7
OMIT -2 2 5
OMIT 3 -1 9
OMIT -1 -2 14
OMIT -2 -8 5
OMIT -3 -2 5
OMIT 3 -3 8
OMIT -1 -1 9
OMIT -7 3 1
OMIT 4 2 6
OMIT -2 1 10
OMIT -4 -1 2
OMIT -4 7 2
OMIT -1 -5 6
OMIT -2 1 0
OMIT 4 3 5
OMIT 2 4 9
OMIT 0 4 7
OMIT -2 0 3
OMIT 3 1 4
OMIT -6 -2 3
OMIT -2 -7 6
OMIT -2 4 0
OMIT 3 4 6
OMIT 3 2 10
OMIT 2 -7 7
OMIT -3 -5 6
OMIT 2 4 10
OMIT 4 -2 7
OMIT -2 1 13
OMIT 3 7 4
OMIT -4 1 2
OMIT 7 1 4
OMIT -2 -5 9
OMIT 1 -1 1
OMIT -1 1 3
OMIT 2 7 2
OMIT -4 0 5
OMIT -4 4 8
OMIT 1 4 1
OMIT 6 -5 19
OMIT -5 4 9
OMIT -12 6 12
OMIT -1 -5 7
OMIT -5 4 3
OMIT -1 0 13
OMIT 3 5 5
OMIT 0 -1 3
OMIT -13 -1 5
OMIT 1 6 1
OMIT 2 -3 12
OMIT -2 1 1
OMIT 0 -6 6
OMIT -2 -3 14
OMIT -2 -2 15
OMIT 6 3 1
OMIT 4 -6 2
OMIT -3 4 9
OMIT -2 -4 3
OMIT -6 3 5
OMIT -4 3 10
OMIT -2 -3 4
OMIT -4 -5 9
OMIT 3 4 9
OMIT -3 3 10
OMIT -5 -2 13
OMIT -6 -3 6
OMIT 2 -1 23
OMIT 1 -4 24
OMIT -3 -1 11
OMIT 0 6 7
OMIT -2 3 1
OMIT 4 4 9
OMIT -2 0 11
OMIT -2 -2 7
OMIT -1 2 11
OMIT 4 -1 11
OMIT -6 -1 6
OMIT -1 7 5
OMIT 7 0 0
OMIT -2 1 2
OMIT 2 -2 8
OMIT -4 -1 11
OMIT 5 5 1
OMIT 2 4 6
OMIT -5 -2 10
OMIT -4 -7 7
OMIT -2 -6 5
OMIT 4 -5 6
OMIT -5 -6 8
OMIT -1 7 3
OMIT 0 2 4
OMIT -2 -5 4
OMIT 0 4 0
OMIT -8 2 5
OMIT 4 5 1
OMIT 3 -6 6
OMIT -2 -7 1
OMIT -1 -6 5
OMIT -1 1 13
OMIT 5 1 3
OMIT 2 4 2
OMIT -4 -2 9
OMIT 3 7 1
OMIT -1 4 7
OMIT -5 1 7
OMIT 0 2 3
OMIT -5 0 4
OMIT 7 -3 19
OMIT -6 3 8
OMIT 2 -12 13
OMIT 5 -1 5
OMIT -4 2 6
OMIT 4 -4 4
OMIT -2 -5 6
OMIT -4 -4 13
OMIT 4 -5 12
OMIT 7 -3 2
OMIT 2 -3 6
OMIT 3 2 7
OMIT -12 5 15
OMIT -5 -1 12
OMIT -6 -1 1
OMIT 1 6 9
OMIT -1 -2 7
OMIT 1 7 5
OMIT -5 -4 2
OMIT -1 -1 13
OMIT 2 3 10
OMIT 5 -1 2
OMIT -2 2 9
OMIT -3 4 6
OMIT 1 5 5
OMIT 0 -6 4
OMIT -3 5 10
OMIT 1 1 7
OMIT -1 -2 9
OMIT -5 1 8
OMIT 8 -2 17
OMIT -4 -2 1
OMIT 1 -8 1
OMIT -5 3 11
OMIT -5 5 10
OMIT 1 -6 3
OMIT 3 1 8
OMIT -3 -2 9
OMIT 3 -4 3
OMIT -1 3 1
OMIT -7 3 4
OMIT -5 1 0
OMIT 2 2 5
OMIT 4 2 3
OMIT 2 -4 6
OMIT -12 2 6
OMIT 1 -5 10
OMIT 7 0 8
OMIT -5 0 5
OMIT -3 -7 4
OMIT 5 3 5
OMIT 2 2 8
OMIT 1 -3 4
OMIT 0 -3 4
OMIT 3 -4 2
OMIT 2 1 3
OMIT 3 -1 2
OMIT 1 -3 3
OMIT -7 2 2
OMIT -3 5 4
OMIT 4 1 7
OMIT -5 -2 8
OMIT 2 -6 11
OMIT 1 -4 4
OMIT 5 2 5
OMIT 0 -3 12
OMIT 1 -1 8
OMIT -4 -6 9
OMIT 1 -3 13
OMIT -1 5 0
OMIT 5 0 9
OMIT 7 0 5
OMIT -1 -7 5
OMIT -5 0 12
OMIT -4 3 13
OMIT -1 -3 4
OMIT 3 1 11
OMIT -6 1 9
OMIT 3 0 6
OMIT -1 4 12
OMIT 4 4 8
OMIT 4 -3 9
OMIT 2 -5 6
OMIT -1 -1 2
OMIT -5 -4 3
OMIT 0 0 18
OMIT -5 -1 11
OMIT -1 -4 4
OMIT 2 0 15
OMIT 0 -2 13
OMIT -2 -4 1
OMIT 2 -4 13
OMIT -1 -6 2
OMIT -3 -2 11
OMIT 1 -1 6
OMIT -6 -4 7
OMIT 1 2 8
OMIT 3 3 11
OMIT 3 -3 11
OMIT 5 -1 10
OMIT 4 -4 1
OMIT -5 4 6
OMIT 2 -6 6
OMIT 2 -1 11
OMIT -3 2 6
OMIT 1 -2 10
OMIT 6 9 12
OMIT -12 1 9
OMIT 4 6 8
OMIT 6 -6 2
OMIT 5 2 8
OMIT -1 0 10
OMIT -3 -2 7
OMIT 8 0 16
OMIT -12 1 12
OMIT 6 -2 4
OMIT -4 3 0
OMIT 2 -6 4
OMIT -6 2 0
OMIT 2 -8 6
OMIT 3 4 3
OMIT -5 2 7
OMIT 4 -3 11
OMIT 4 0 4
OMIT 6 2 1
OMIT -2 0 14
OMIT 2 5 10
OMIT -4 4 4
OMIT 5 -4 2
OMIT 0 0 4
OMIT -5 3 7
OMIT 7 2 3
OMIT 5 -2 3
OMIT 2 2 0
OMIT 2 4 7
OMIT -1 -3 7
OMIT -5 -4 7
OMIT 2 -1 24
OMIT 6 1 1
OMIT -5 6 8
OMIT 0 -3 7
OMIT -1 0 7
OMIT 1 3 14
OMIT -8 -2 3
OMIT -4 5 12
OMIT 0 1 12
OMIT 0 -6 1
OMIT -3 4 0
OMIT 0 -5 1
OMIT -6 -3 12
OMIT 2 -2 9
OMIT -1 0 4
OMIT 0 4 10
OMIT 1 3 1
OMIT 7 -3 5
OMIT 3 -4 6
OMIT 2 12 0
OMIT -2 -8 2
OMIT 6 4 5
OMIT 0 -7 1
OMIT -5 -5 7
OMIT -3 -2 10
OMIT 0 1 14
OMIT 1 -6 7
OMIT -1 7 1
OMIT -2 6 4
OMIT -4 -5 8
OMIT -1 -5 14
OMIT 0 -6 11
OMIT 1 6 3
OMIT 1 -8 4
L.S. 10 0   10
ACTA
BOND$H
FMAP 2
PLAN 6
ABIN
WGHT    0.123900    1.964000
FVAR       0.33725
CD1   3    0.320546    0.621365    0.761811    11.00000    0.02740    0.02714 =
         0.02246   -0.00410    0.00514    0.00094
CL2   4    0.837853    0.488275    0.518687    11.00000    0.00439    0.03764 =
         0.01865   -0.00503    0.00268    0.00014
CL1   4    0.704237    0.914501    1.147848    11.00000    0.03762    0.01846 =
         0.01260    0.00233   -0.00779    0.00469
O2    6    0.442830    0.670066    0.665724    11.00000    0.05973    0.03449 =
         0.02876   -0.00172    0.01222    0.00273
N1    5    0.196780    0.465625    0.813442    11.00000    0.02896    0.03333 =
         0.02406   -0.00171    0.00709   -0.00349
N2    5    0.027815    0.327501    0.831329    11.00000    0.02894    0.03061 =
         0.03113    0.00464    0.00214    0.00301
O1    6    0.298157    0.500417    0.648166    11.00000    0.04922    0.04877 =
         0.03544   -0.00224    0.02071   -0.00700
N5    5   -0.292450   -0.039541    0.547924    11.00000    0.02926    0.03241 =
         0.03263   -0.00034    0.00104    0.00124
N4    5   -0.235711    0.118960    0.477092    11.00000    0.05247    0.03288 =
         0.03399   -0.00243    0.00662   -0.01177
N3    5   -0.475450    0.489794    0.796415    11.00000    0.02205    0.04032 =
         0.03069   -0.00113    0.00319    0.00144
N6    5    0.105852   -0.275177    0.710746    11.00000    0.03755    0.03730 =
         0.03082    0.00116    0.00227    0.00834
O3    6    0.356063    0.765540    0.854705    11.00000    0.11941    0.05245 =
         0.05638   -0.01733   -0.01367   -0.00555
C11   1   -0.232415    0.337501    0.811010    11.00000    0.02406    0.03057 =
         0.03084   -0.00283    0.00600   -0.00168
C8    1    0.645974    0.493741    0.506005    11.00000    0.03256    0.02486 =
         0.02517    0.00189    0.01023    0.00264
C37   1   -0.353265   -0.075289    0.476366    11.00000    0.02863    0.02571 =
         0.03439   -0.00304   -0.00102    0.00800
C6    1    0.442339    0.537049    0.560483    11.00000    0.03717    0.02380 =
         0.02276   -0.00355    0.01240   -0.00083
C27   1   -0.155679   -0.169141    0.646797    11.00000    0.03531    0.03143 =
         0.03355   -0.00149    0.00293    0.00124
C32   1   -0.321095    0.022938    0.433075    11.00000    0.03965    0.03072 =
         0.03798   -0.00693    0.00591   -0.00246
C7    1    0.588223    0.530070    0.566037    11.00000    0.03352    0.03117 =
         0.02141   -0.00056    0.00748    0.00228
AFIX  43
H7    2    0.648222    0.549899    0.610403    11.00000   -1.20000
AFIX   0
C25   1   -0.224564    0.076962    0.542786    11.00000    0.03477    0.03111 =
         0.04073   -0.00475    0.00413   -0.00123
C00L  1    0.098553    0.366054    0.899331    11.00000    0.03164    0.03365 =
         0.02375   -0.00036    0.00731    0.00607
C15   1   -0.361475    0.285995    0.821966    11.00000    0.02995    0.03013 =
         0.04003    0.00113    0.00804   -0.00641
AFIX  43
H15   2   -0.368242    0.199646    0.834862    11.00000   -1.20000
AFIX   0
C10   1   -0.105181    0.250916    0.817576    11.00000    0.02898    0.02770 =
         0.04517    0.00398    0.00854    0.00199
AFIX  23
H10A  2   -0.104402    0.191479    0.857180    11.00000   -1.20000
H10B  2   -0.111880    0.199578    0.772932    11.00000   -1.20000
AFIX   0
C26   1   -0.297636   -0.112017    0.612246    11.00000    0.03179    0.03623 =
         0.04244    0.00398    0.01033    0.00274
AFIX  23
H26A  2   -0.366837   -0.182100    0.599606    11.00000   -1.20000
H26B  2   -0.329199   -0.055178    0.647675    11.00000   -1.20000
AFIX   0
C16   1    0.204401    0.451971    0.887811    11.00000    0.02545    0.03666 =
         0.02565   -0.00306    0.00550    0.00032
C28   1   -0.052318   -0.197894    0.606488    11.00000    0.03966    0.05007 =
         0.02097    0.00184    0.00247    0.00888
AFIX  43
H28   2   -0.068729   -0.180482    0.557012    11.00000   -1.20000
AFIX   0
C5    1    0.388753    0.572672    0.629383    11.00000    0.03705    0.03403 =
         0.02451   -0.00218    0.01264    0.00613
C9    1    0.089542    0.389545    0.781842    11.00000    0.02329    0.02786 =
         0.02431   -0.00076    0.00449    0.00084
C12   1   -0.229114    0.467915    0.794084    11.00000    0.03422    0.03143 =
         0.03851    0.00238    0.01071   -0.00073
AFIX  43
H12   2   -0.145426    0.506625    0.787014    11.00000   -1.20000
AFIX   0
C13   1   -0.352184    0.540366    0.787770    11.00000    0.04018    0.02884 =
         0.03327    0.00062    0.00808   -0.00059
AFIX  43
H13   2   -0.348265    0.628074    0.777028    11.00000   -1.20000
AFIX   0
C21   1    0.039651    0.364277    0.702170    11.00000    0.03206    0.03232 =
         0.02596   -0.00444   -0.00121   -0.00121
AFIX  23
H21A  2    0.071212    0.434892    0.675523    11.00000   -1.20000
H21B  2   -0.063158    0.361974    0.690909    11.00000   -1.20000
AFIX   0
C29   1    0.074836   -0.252330    0.639818    11.00000    0.04127    0.04087 =
         0.03667    0.00508    0.01221    0.01322
AFIX  43
H29   2    0.140822   -0.273630    0.611498    11.00000   -1.20000
AFIX   0
C4    1    0.586234    0.963916    1.062963    11.00000    0.04137    0.02911 =
         0.03123   -0.00328    0.00451   -0.00037
C23   1    0.007427    0.183363    0.603894    11.00000    0.03261    0.05112 =
         0.03275   -0.01674    0.00696    0.00276
AFIX  23
H23A  2    0.006602    0.248593    0.567154    11.00000   -1.20000
H23B  2    0.052333    0.106329    0.588623    11.00000   -1.20000
AFIX   0
C3    1    0.566437    0.881605    1.003525    11.00000    0.05747    0.02921 =
         0.03509   -0.00872    0.00911    0.00230
AFIX  43
H3    2    0.611867    0.801821    1.006496    11.00000   -1.20000
AFIX   0
C2    1    0.480053    0.915833    0.939532    11.00000    0.06177    0.02688 =
         0.03084   -0.01267    0.00441    0.00126
C24   1   -0.145504    0.149327    0.608753    11.00000    0.04709    0.04477 =
         0.03399   -0.01291    0.00671   -0.01103
AFIX  23
H24A  2   -0.144540    0.096818    0.651261    11.00000   -1.20000
H24B  2   -0.195233    0.229012    0.615343    11.00000   -1.20000
AFIX   0
C36   1   -0.433824   -0.183881    0.446770    11.00000    0.03686    0.02750 =
         0.05099    0.00088    0.00130   -0.00067
AFIX  43
H36   2   -0.455889   -0.249249    0.476378    11.00000   -1.20000
AFIX   0
C14   1   -0.478705    0.365389    0.813331    11.00000    0.02542    0.03874 =
         0.03584   -0.00656    0.01203   -0.00553
AFIX  43
H14   2   -0.564276    0.329614    0.819729    11.00000   -1.20000
AFIX   0
C20   1    0.081557    0.332611    0.969492    11.00000    0.05179    0.04823 =
         0.03434    0.00857    0.01756    0.00351
AFIX  43
H20   2    0.009475    0.276662    0.976688    11.00000   -1.20000
AFIX   0
C33   1   -0.363652    0.016479    0.358657    11.00000    0.04358    0.03512 =
         0.04037   -0.00273    0.00522   -0.00046
AFIX  43
H33   2   -0.339882    0.082690    0.330046    11.00000   -1.20000
AFIX   0
C22   1    0.095605    0.235571    0.677390    11.00000    0.03571    0.04824 =
         0.03399   -0.00822   -0.00119    0.01063
AFIX  23
H22A  2    0.094236    0.171284    0.714413    11.00000   -1.20000
H22B  2    0.193247    0.247963    0.672552    11.00000   -1.20000
AFIX   0
C34   1   -0.442764   -0.090607    0.326899    11.00000    0.03932    0.04457 =
         0.03596   -0.01507   -0.00199    0.00471
AFIX  43
H34   2   -0.471803   -0.097331    0.276520    11.00000   -1.20000
AFIX   0
C35   1   -0.479735   -0.191278    0.372220    11.00000    0.04733    0.03149 =
         0.05757   -0.01150   -0.00414   -0.00180
AFIX  43
H35   2   -0.535047   -0.261892    0.351037    11.00000   -1.20000
AFIX   0
C31   1   -0.123043   -0.194002    0.719900    11.00000    0.04019    0.06044 =
         0.03681    0.00610    0.01421    0.01943
AFIX  43
H31   2   -0.188603   -0.176206    0.749032    11.00000   -1.20000
AFIX   0
C17   1    0.299979    0.506470    0.947030    11.00000    0.05053    0.04824 =
         0.02519   -0.00547   -0.00142   -0.00467
AFIX  43
H17   2    0.371786    0.563224    0.940380    11.00000   -1.20000
AFIX   0
C30   1    0.008433   -0.245983    0.750682    11.00000    0.04520    0.06403 =
         0.02705    0.00950    0.00773    0.01921
AFIX  43
H30   2    0.029177   -0.260860    0.800462    11.00000   -1.20000
AFIX   0
C18   1    0.283443    0.472266    1.016924    11.00000    0.07535    0.06902 =
         0.02493   -0.01328   -0.00271   -0.00685
AFIX  43
H18   2    0.345183    0.507623    1.057399    11.00000   -1.20000
AFIX   0
C19   1    0.177690    0.387349    1.027091    11.00000    0.07323    0.07042 =
         0.02415    0.00398    0.01222    0.00139
AFIX  43
H19   2    0.171008    0.366328    1.074341    11.00000   -1.20000
AFIX   0
O4    6    0.566249    0.813501    0.843695    11.00000    0.15866    0.08247 =
         0.05216   -0.02903    0.03665    0.03620
C1    1    0.471598    0.826037    0.871892    11.00000    0.12978    0.03278 =
         0.02780   -0.01026   -0.01421    0.01666
HKLF 4




REM  2_a.res in P-1
REM wR2 = 0.2002, GooF = S = 1.036, Restrained GooF = 1.036 for all data
REM R1 = 0.0735 for 7527 Fo > 4sig(Fo) and 0.0997 for all 9988 data
REM 460 parameters refined using 0 restraints

END

WGHT      0.1217      1.8564

REM Highest difference peak  2.311,  deepest hole -0.977,  1-sigma level  0.163
Q1    1   0.7297  0.9164  1.1360  11.00000  0.05    2.22
Q2    1   0.6670  0.9140  1.1465  11.00000  0.05    2.01
Q3    1   0.2535  0.7672  0.8921  11.00000  0.05    1.43
Q4    1   0.5609  0.7755  0.8813  11.00000  0.05    1.07
Q5    1   0.3973  0.5821  0.7627  11.00000  0.05    1.01
Q6    1   0.1284 -0.0364  0.5851  11.00000  0.05    0.94
;
_shelx_res_checksum              24530
_shelx_fab_file
;
    4    0    0     -0.33      0.00
    5    0    0      0.87      0.00
    6    0    0      0.27      0.00
    8    0    0     -0.15      0.00
    9    0    0     -0.49      0.00
   10    0    0     -0.76      0.00
   11    0    0     -0.35      0.00
  -12    1    0     -0.29      0.00
  -11    1    0     -0.78      0.00
  -10    1    0     -0.94      0.00
   -9    1    0     -0.24      0.00
   -8    1    0      0.46      0.00
   -7    1    0      0.05      0.00
   -6    1    0     -0.07      0.00
   -1    1    0      5.51      0.00
    1    1    0     13.91      0.00
    4    1    0     -1.08      0.00
    6    1    0      0.57      0.00
    7    1    0      0.00      0.00
    8    1    0     -0.93      0.00
    9    1    0     -1.06      0.00
   10    1    0     -0.83      0.00
  -13    2    0      0.12      0.00
  -12    2    0     -0.27      0.00
  -11    2    0     -0.48      0.00
  -10    2    0     -0.65      0.00
   -9    2    0     -0.43      0.00
   -8    2    0      0.36      0.00
   -7    2    0      0.67      0.00
   -5    2    0      0.44      0.00
   -4    2    0      0.80      0.00
   -2    2    0     -0.11      0.00
    1    2    0      5.57      0.00
    3    2    0      1.19      0.00
    4    2    0      0.48      0.00
    5    2    0     -1.01      0.00
    6    2    0      0.56      0.00
    7    2    0      0.86      0.00
    8    2    0     -1.08      0.00
    9    2    0     -1.32      0.00
  -13    3    0     -0.12      0.00
  -12    3    0     -0.34      0.00
  -11    3    0     -0.16      0.00
  -10    3    0     -0.14      0.00
   -9    3    0     -0.69      0.00
   -8    3    0     -0.51      0.00
   -7    3    0      0.81      0.00
   -6    3    0      1.01      0.00
   -5    3    0     -0.11      0.00
   -3    3    0     -0.82      0.00
    3    3    0      2.71      0.00
    4    3    0      2.69      0.00
    5    3    0      0.31      0.00
    6    3    0      0.17      0.00
    7    3    0      0.85      0.00
    8    3    0     -0.66      0.00
    9    3    0     -0.92      0.00
  -12    4    0     -0.48      0.00
  -11    4    0     -0.21      0.00
  -10    4    0     -0.08      0.00
   -9    4    0     -0.66      0.00
   -8    4    0     -1.14      0.00
   -7    4    0     -0.03      0.00
   -6    4    0      1.30      0.00
   -5    4    0      0.55      0.00
   -4    4    0     -1.24      0.00
    2    4    0     -1.93      0.00
    3    4    0      0.48      0.00
    4    4    0      2.70      0.00
    5    4    0      2.63      0.00
    6    4    0      0.81      0.00
    7    4    0     -0.23      0.00
    8    4    0     -0.73      0.00
    9    4    0     -0.46      0.00
   10    4    0      0.22      0.00
  -12    5    0     -0.58      0.00
  -11    5    0     -0.30      0.00
  -10    5    0     -0.26      0.00
   -9    5    0     -0.42      0.00
   -8    5    0     -0.67      0.00
   -7    5    0     -0.57      0.00
   -6    5    0      0.21      0.00
   -5    5    0      0.67      0.00
   -4    5    0     -0.39      0.00
   -3    5    0     -1.01      0.00
   -2    5    0      1.00      0.00
    1    5    0     -0.47      0.00
    2    5    0     -2.31      0.00
    3    5    0     -1.84      0.00
    4    5    0      0.53      0.00
    5    5    0      2.85      0.00
    6    5    0      2.15      0.00
    7    5    0     -0.18      0.00
    8    5    0     -0.81      0.00
    9    5    0     -0.37      0.00
   10    5    0      0.25      0.00
  -12    6    0     -0.54      0.00
  -11    6    0     -0.41      0.00
  -10    6    0     -0.43      0.00
   -9    6    0     -0.33      0.00
   -8    6    0      0.09      0.00
   -7    6    0     -0.06      0.00
   -6    6    0     -0.50      0.00
   -5    6    0     -0.31      0.00
   -4    6    0      0.04      0.00
   -2    6    0      0.68      0.00
    0    6    0      1.83      0.00
    1    6    0     -0.06      0.00
    2    6    0     -1.63      0.00
    3    6    0     -1.91      0.00
    4    6    0     -0.83      0.00
    5    6    0      0.84      0.00
    6    6    0      1.55      0.00
    7    6    0      0.64      0.00
    8    6    0      0.07      0.00
    9    6    0     -0.03      0.00
   10    6    0     -0.13      0.00
   11    6    0      0.20      0.00
  -11    7    0     -0.38      0.00
  -10    7    0     -0.63      0.00
   -9    7    0     -0.49      0.00
   -8    7    0      0.24      0.00
   -7    7    0      0.39      0.00
   -6    7    0     -0.15      0.00
   -5    7    0     -0.82      0.00
   -4    7    0     -0.75      0.00
   -3    7    0      0.22      0.00
   -1    7    0      1.05      0.00
    0    7    0      0.77      0.00
    1    7    0      0.21      0.00
    2    7    0     -0.40      0.00
    3    7    0     -0.73      0.00
    4    7    0     -0.41      0.00
    5    7    0     -0.12      0.00
    6    7    0     -0.13      0.00
    7    7    0      0.02      0.00
    8    7    0      0.54      0.00
    9    7    0      0.66      0.00
   10    7    0      0.05      0.00
   11    7    0      0.00      0.00
  -11    8    0     -0.06      0.00
  -10    8    0     -0.56      0.00
   -9    8    0     -0.55      0.00
   -8    8    0      0.12      0.00
   -7    8    0      0.31      0.00
   -6    8    0      0.17      0.00
   -5    8    0     -0.26      0.00
   -4    8    0     -1.23      0.00
   -3    8    0     -0.49      0.00
   -2    8    0      1.52      0.00
   -1    8    0      1.35      0.00
    0    8    0     -0.07      0.00
    1    8    0     -0.18      0.00
    2    8    0      0.38      0.00
    3    8    0      0.31      0.00
    4    8    0      0.08      0.00
    5    8    0      0.12      0.00
    6    8    0     -0.31      0.00
    7    8    0     -0.96      0.00
    8    8    0     -0.42      0.00
    9    8    0      0.71      0.00
   10    8    0      0.69      0.00
   11    8    0      0.16      0.00
  -10    9    0     -0.23      0.00
   -9    9    0     -0.28      0.00
   -8    9    0      0.07      0.00
   -7    9    0      0.16      0.00
   -6    9    0      0.22      0.00
   -5    9    0      0.42      0.00
   -4    9    0     -0.32      0.00
   -3    9    0     -0.85      0.00
   -2    9    0      0.84      0.00
   -1    9    0      1.78      0.00
    0    9    0      0.27      0.00
    1    9    0     -0.51      0.00
    2    9    0      0.24      0.00
    3    9    0      0.79      0.00
    4    9    0      0.37      0.00
    5    9    0     -0.15      0.00
    6    9    0     -0.11      0.00
    7    9    0     -0.67      0.00
    8    9    0     -1.08      0.00
    9    9    0      0.04      0.00
   10    9    0      0.92      0.00
   -9   10    0     -0.06      0.00
   -8   10    0      0.01      0.00
   -7   10    0     -0.06      0.00
   -6   10    0      0.31      0.00
   -5   10    0      0.64      0.00
   -4   10    0      0.47      0.00
   -3   10    0     -0.02      0.00
   -2   10    0      0.20      0.00
   -1   10    0      0.82      0.00
    0   10    0      0.23      0.00
    1   10    0     -0.36      0.00
    2   10    0      0.08      0.00
    3   10    0      0.64      0.00
    4   10    0      0.72      0.00
    5   10    0     -0.10      0.00
    6   10    0     -0.48      0.00
    7   10    0     -0.19      0.00
    8   10    0     -0.53      0.00
    9   10    0     -0.35      0.00
   -9   11    0     -0.12      0.00
   -8   11    0      0.02      0.00
   -7   11    0     -0.22      0.00
   -6   11    0      0.13      0.00
   -5   11    0      0.49      0.00
   -4   11    0      0.11      0.00
   -3   11    0      0.16      0.00
   -2   11    0      0.47      0.00
   -1   11    0      0.44      0.00
    0   11    0     -0.14      0.00
    1   11    0     -0.47      0.00
    2   11    0      0.16      0.00
    3   11    0      0.43      0.00
    4   11    0      0.41      0.00
    5   11    0      0.38      0.00
    6   11    0     -0.11      0.00
    7   11    0     -0.08      0.00
    8   11    0      0.03      0.00
   -7   12    0      0.01      0.00
   -6   12    0     -0.22      0.00
   -5   12    0      0.02      0.00
   -4   12    0     -0.28      0.00
   -3   12    0     -0.38      0.00
   -2   12    0      0.30      0.00
   -1   12    0      0.72      0.00
    0   12    0      0.34      0.00
    1   12    0     -0.45      0.00
    3   12    0      0.69      0.00
    4   12    0      0.16      0.00
    5   12    0      0.03      0.00
    6   12    0      0.36      0.00
    7   12    0      0.14      0.00
   -5   13    0     -0.36      0.00
   -4   13    0     -0.20      0.00
   -3   13    0     -0.16      0.00
   -2   13    0      0.06      0.00
   -1   13    0      0.35      0.00
    0   13    0      0.59      0.00
    1   13    0      0.18      0.00
    2   13    0     -0.18      0.00
    3   13    0      0.60      0.00
    4   13    0      0.58      0.00
    5   13    0     -0.30      0.00
   -3   14    0      0.28      0.00
   -2   14    0      0.27      0.00
   -1   14    0      0.05      0.00
    0   14    0      0.07      0.00
    1   14    0      0.49      0.00
    2   14    0      0.29      0.00
    3   14    0      0.08      0.00
   -3  -14    1      0.63      0.00
   -2  -14    1      0.59      0.00
   -1  -14    1      0.57      0.00
    0  -14    1      0.28      0.00
    1  -14    1      0.27      0.00
    2  -14    1      0.10      0.00
    3  -14    1     -0.11      0.00
   -6  -13    1     -0.06      0.00
   -5  -13    1     -0.16      0.00
   -4  -13    1      0.93      0.00
   -3  -13    1      1.01      0.00
   -2  -13    1      0.10      0.00
   -1  -13    1      0.24      0.00
    0  -13    1      0.65      0.00
    1  -13    1      0.46      0.00
    2  -13    1     -0.13      0.00
    3  -13    1     -0.47      0.00
    4  -13    1     -0.32      0.00
    5  -13    1     -0.43      0.00
   -7  -12    1      0.33      0.00
   -6  -12    1      0.39      0.00
   -5  -12    1      0.05      0.00
   -4  -12    1      0.31      0.00
   -3  -12    1      0.88      0.00
   -2  -12    1      0.11      0.00
   -1  -12    1     -0.43      0.00
    0  -12    1      0.29      0.00
    1  -12    1      0.69      0.00
    2  -12    1      0.11      0.00
    3  -12    1     -0.53      0.00
    4  -12    1     -0.15      0.00
    5  -12    1      0.06      0.00
    6  -12    1     -0.38      0.00
    7  -12    1     -0.22      0.00
   -8  -11    1      0.04      0.00
   -7  -11    1      0.02      0.00
   -6  -11    1     -0.01      0.00
   -5  -11    1      0.42      0.00
   -4  -11    1      0.36      0.00
   -3  -11    1      0.34      0.00
   -2  -11    1      0.14      0.00
   -1  -11    1     -0.36      0.00
    0  -11    1     -0.01      0.00
    1  -11    1      0.39      0.00
    2  -11    1      0.24      0.00
    3  -11    1     -0.03      0.00
    4  -11    1      0.17      0.00
    5  -11    1      0.47      0.00
    6  -11    1     -0.06      0.00
    7  -11    1     -0.36      0.00
    8  -11    1     -0.15      0.00
   -9  -10    1     -0.40      0.00
   -8  -10    1     -0.57      0.00
   -7  -10    1     -0.11      0.00
   -6  -10    1     -0.26      0.00
   -5  -10    1      0.07      0.00
   -4  -10    1      0.55      0.00
   -3  -10    1      0.26      0.00
   -2  -10    1     -0.10      0.00
   -1  -10    1     -0.09      0.00
    0  -10    1      0.67      0.00
    1  -10    1      0.84      0.00
    2  -10    1     -0.14      0.00
    3  -10    1     -0.29      0.00
    4  -10    1      0.27      0.00
    5  -10    1      0.37      0.00
    6  -10    1      0.10      0.00
    7  -10    1     -0.10      0.00
    8  -10    1     -0.11      0.00
    9  -10    1     -0.17      0.00
  -10   -9    1      0.76      0.00
   -9   -9    1      0.03      0.00
   -8   -9    1     -0.95      0.00
   -7   -9    1     -0.45      0.00
   -6   -9    1      0.15      0.00
   -5   -9    1      0.03      0.00
   -4   -9    1      0.17      0.00
   -3   -9    1      0.34      0.00
   -2   -9    1      0.08      0.00
   -1   -9    1     -0.11      0.00
    0   -9    1      0.78      0.00
    1   -9    1      1.62      0.00
    2   -9    1      0.29      0.00
    3   -9    1     -0.99      0.00
    4   -9    1     -0.35      0.00
    5   -9    1      0.09      0.00
    6   -9    1      0.00      0.00
    7   -9    1      0.16      0.00
    8   -9    1     -0.01      0.00
    9   -9    1     -0.37      0.00
   10   -9    1     -0.15      0.00
  -11   -8    1     -0.17      0.00
  -10   -8    1      0.35      0.00
   -9   -8    1      0.59      0.00
   -8   -8    1     -0.13      0.00
   -7   -8    1     -0.36      0.00
   -6   -8    1      0.19      0.00
   -5   -8    1      0.29      0.00
   -4   -8    1     -0.21      0.00
   -3   -8    1     -0.19      0.00
   -2   -8    1      0.38      0.00
   -1   -8    1      0.54      0.00
    0   -8    1      0.57      0.00
    2   -8    1      0.72      0.00
    3   -8    1     -0.48      0.00
    4   -8    1     -0.76      0.00
    5   -8    1     -0.29      0.00
    6   -8    1     -0.06      0.00
    7   -8    1      0.27      0.00
    8   -8    1      0.15      0.00
    9   -8    1     -0.33      0.00
   10   -8    1     -0.33      0.00
   11   -8    1     -0.09      0.00
  -11   -7    1     -0.15      0.00
  -10   -7    1     -0.25      0.00
   -9   -7    1      0.30      0.00
   -8   -7    1      0.58      0.00
   -7   -7    1      0.97      0.00
   -6   -7    1      1.14      0.00
   -5   -7    1      0.59      0.00
   -4   -7    1     -0.55      0.00
   -3   -7    1     -1.29      0.00
   -1   -7    1      1.37      0.00
    1   -7    1      0.75      0.00
    2   -7    1     -0.07      0.00
    3   -7    1      0.13      0.00
    4   -7    1     -0.02      0.00
    5   -7    1     -0.40      0.00
    6   -7    1     -0.25      0.00
    7   -7    1      0.23      0.00
    8   -7    1      0.28      0.00
    9   -7    1     -0.03      0.00
   10   -7    1     -0.13      0.00
   11   -7    1     -0.33      0.00
  -11   -6    1      0.38      0.00
  -10   -6    1     -0.12      0.00
   -9   -6    1     -0.36      0.00
   -8   -6    1     -0.16      0.00
   -7   -6    1      1.48      0.00
   -6   -6    1      3.34      0.00
   -5   -6    1      2.44      0.00
   -4   -6    1     -0.14      0.00
   -3   -6    1     -2.00      0.00
   -2   -6    1     -1.47      0.00
   -1   -6    1      1.13      0.00
    1   -6    1      1.94      0.00
    2   -6    1     -0.51      0.00
    3   -6    1     -0.65      0.00
    4   -6    1      0.60      0.00
    5   -6    1      0.43      0.00
    6   -6    1     -0.24      0.00
    7   -6    1     -0.21      0.00
    8   -6    1      0.03      0.00
    9   -6    1      0.06      0.00
   10   -6    1      0.10      0.00
   11   -6    1     -0.25      0.00
   12   -6    1     -0.51      0.00
  -11   -5    1      0.45      0.00
  -10   -5    1      0.49      0.00
   -9   -5    1     -0.30      0.00
   -8   -5    1     -0.58      0.00
   -7   -5    1      0.48      0.00
   -6   -5    1      3.48      0.00
   -5   -5    1      4.58      0.00
   -4   -5    1      2.05      0.00
   -2   -5    1     -1.79      0.00
   -1   -5    1      0.27      0.00
    1   -5    1      2.00      0.00
    2   -5    1     -0.26      0.00
    3   -5    1     -1.55      0.00
    4   -5    1     -0.15      0.00
    5   -5    1      1.37      0.00
    6   -5    1      0.84      0.00
    7   -5    1     -0.43      0.00
    8   -5    1     -0.66      0.00
    9   -5    1     -0.15      0.00
   10   -5    1      0.12      0.00
   11   -5    1     -0.09      0.00
   12   -5    1     -0.46      0.00
  -10   -4    1      0.31      0.00
   -9   -4    1     -0.20      0.00
   -8   -4    1      0.29      0.00
   -7   -4    1      0.66      0.00
   -6   -4    1      1.31      0.00
   -5   -4    1      3.59      0.00
   -4   -4    1      3.98      0.00
   -3   -4    1      1.56      0.00
   -1   -4    1     -0.67      0.00
    0   -4    1      1.04      0.00
    1   -4    1      0.89      0.00
    2   -4    1     -0.42      0.00
    3   -4    1     -1.15      0.00
    5   -4    1      0.90      0.00
    6   -4    1      1.86      0.00
    7   -4    1      0.41      0.00
    8   -4    1     -0.87      0.00
    9   -4    1     -0.42      0.00
   10   -4    1      0.10      0.00
   11   -4    1      0.00      0.00
   12   -4    1     -0.24      0.00
  -10   -3    1     -0.57      0.00
   -9   -3    1     -0.75      0.00
   -8   -3    1      0.46      0.00
   -7   -3    1      1.80      0.00
   -6   -3    1      0.20      0.00
   -4   -3    1      2.73      0.00
   -1   -3    1      1.47      0.00
    0   -3    1      0.87      0.00
    1   -3    1     -0.06      0.00
    2   -3    1     -0.82      0.00
    4   -3    1      0.33      0.00
    6   -3    1      1.20      0.00
    7   -3    1      1.20      0.00
    8   -3    1     -0.09      0.00
    9   -3    1     -0.48      0.00
   10   -3    1     -0.19      0.00
   11   -3    1     -0.10      0.00
   12   -3    1     -0.02      0.00
   -9   -2    1     -0.96      0.00
   -8   -2    1     -0.24      0.00
   -7   -2    1      1.37      0.00
   -6   -2    1      0.34      0.00
   -5   -2    1     -0.99      0.00
   -2   -2    1      3.90      0.00
   -1   -2    1     10.24      0.00
    0   -2    1      6.76      0.00
    1   -2    1     -0.51      0.00
    3   -2    1     -0.13      0.00
    4   -2    1      1.88      0.00
    5   -2    1      0.93      0.00
    6   -2    1      0.12      0.00
    7   -2    1      0.75      0.00
    8   -2    1      0.57      0.00
    9   -2    1     -0.21      0.00
   10   -2    1     -0.62      0.00
   11   -2    1     -0.47      0.00
   12   -2    1     -0.14      0.00
   13   -2    1      0.22      0.00
  -10   -1    1     -0.76      0.00
   -9   -1    1     -0.40      0.00
   -8   -1    1     -0.09      0.00
   -7   -1    1      0.20      0.00
   -5   -1    1     -0.53      0.00
   -2   -1    1      1.17      0.00
    4   -1    1      1.28      0.00
    5   -1    1      1.62      0.00
    6   -1    1      0.17      0.00
    7   -1    1     -0.08      0.00
    8   -1    1      0.22      0.00
    9   -1    1     -0.12      0.00
   10   -1    1     -0.50      0.00
   11   -1    1     -0.37      0.00
   12   -1    1     -0.25      0.00
  -11    0    1     -0.88      0.00
  -10    0    1     -0.87      0.00
   -9    0    1      0.01      0.00
   -8    0    1      0.57      0.00
   -7    0    1     -0.06      0.00
   -6    0    1     -0.09      0.00
   -4    0    1     -1.30      0.00
   -2    0    1     -2.66      0.00
    1    0    1      7.23      0.00
    2    0    1     -4.33      0.00
    4    0    1     -0.49      0.00
    5    0    1      0.65      0.00
    6    0    1      0.55      0.00
    7    0    1     -0.40      0.00
    8    0    1     -0.62      0.00
    9    0    1     -0.59      0.00
   10    0    1     -0.25      0.00
   11    0    1      0.34      0.00
  -13    1    1     -0.13      0.00
  -12    1    1     -0.42      0.00
  -11    1    1     -0.87      0.00
  -10    1    1     -0.87      0.00
   -9    1    1     -0.09      0.00
   -8    1    1      0.62      0.00
   -7    1    1      0.15      0.00
   -5    1    1      0.35      0.00
   -3    1    1     -2.11      0.00
   -1    1    1      4.96      0.00
    3    1    1     -0.59      0.00
    4    1    1     -0.80      0.00
    5    1    1     -0.76      0.00
    7    1    1     -0.27      0.00
    8    1    1     -1.24      0.00
    9    1    1     -1.10      0.00
  -13    2    1     -0.20      0.00
  -12    2    1     -0.43      0.00
  -11    2    1     -0.27      0.00
  -10    2    1     -0.32      0.00
   -9    2    1     -0.38      0.00
   -8    2    1      0.05      0.00
   -7    2    1      0.36      0.00
   -6    2    1     -0.07      0.00
   -5    2    1     -0.44      0.00
   -3    2    1     -0.99      0.00
   -2    2    1      1.68      0.00
   -1    2    1      2.37      0.00
    0    2    1      0.33      0.00
    3    2    1      2.27      0.00
    5    2    1     -1.13      0.00
    7    2    1      0.01      0.00
    8    2    1     -1.43      0.00
  -13    3    1     -0.29      0.00
  -12    3    1     -0.50      0.00
  -11    3    1     -0.09      0.00
  -10    3    1      0.01      0.00
   -9    3    1     -0.66      0.00
   -8    3    1     -0.76      0.00
   -6    3    1      0.55      0.00
   -5    3    1     -0.62      0.00
   -4    3    1     -1.93      0.00
   -3    3    1     -1.45      0.00
    3    3    1      1.85      0.00
    4    3    1      1.77      0.00
    5    3    1      0.00      0.00
    7    3    1     -0.30      0.00
    8    3    1     -1.31      0.00
    9    3    1     -0.71      0.00
  -12    4    1     -0.38      0.00
  -11    4    1     -0.23      0.00
  -10    4    1     -0.24      0.00
   -9    4    1     -0.70      0.00
   -8    4    1     -1.03      0.00
   -7    4    1     -0.36      0.00
   -6    4    1      0.48      0.00
   -5    4    1     -0.14      0.00
   -4    4    1     -1.48      0.00
   -3    4    1     -0.77      0.00
   -2    4    1      1.74      0.00
   -1    4    1      2.86      0.00
    2    4    1     -2.72      0.00
    4    4    1      1.07      0.00
    5    4    1      1.58      0.00
    6    4    1      0.19      0.00
    7    4    1     -0.93      0.00
    8    4    1     -1.11      0.00
    9    4    1     -0.46      0.00
  -12    5    1     -0.33      0.00
  -11    5    1     -0.27      0.00
  -10    5    1     -0.58      0.00
   -9    5    1     -0.54      0.00
   -8    5    1     -0.37      0.00
   -7    5    1     -0.41      0.00
   -6    5    1     -0.39      0.00
   -5    5    1     -0.32      0.00
   -4    5    1     -0.69      0.00
   -2    5    1      2.40      0.00
    0    5    1      0.53      0.00
    2    5    1     -2.46      0.00
    3    5    1     -2.42      0.00
    6    5    1      0.92      0.00
    7    5    1     -0.46      0.00
    8    5    1     -0.49      0.00
    9    5    1     -0.22      0.00
   10    5    1     -0.01      0.00
  -12    6    1     -0.29      0.00
  -11    6    1     -0.38      0.00
  -10    6    1     -0.81      0.00
   -9    6    1     -0.54      0.00
   -8    6    1      0.26      0.00
   -7    6    1      0.28      0.00
   -6    6    1     -0.52      0.00
   -5    6    1     -1.09      0.00
   -4    6    1     -0.64      0.00
   -3    6    1      0.42      0.00
   -2    6    1      1.91      0.00
   -1    6    1      2.06      0.00
    0    6    1      0.21      0.00
    2    6    1     -1.47      0.00
    3    6    1     -1.58      0.00
    4    6    1     -1.22      0.00
    5    6    1     -0.36      0.00
    6    6    1      0.21      0.00
    7    6    1      0.23      0.00
    8    6    1      0.51      0.00
    9    6    1      0.32      0.00
   10    6    1     -0.05      0.00
  -11    7    1     -0.35      0.00
  -10    7    1     -0.91      0.00
   -9    7    1     -0.66      0.00
   -8    7    1      0.26      0.00
   -7    7    1      0.55      0.00
   -6    7    1      0.10      0.00
   -5    7    1     -1.12      0.00
   -4    7    1     -1.37      0.00
   -2    7    1      1.75      0.00
    0    7    1     -0.28      0.00
    1    7    1     -0.57      0.00
    2    7    1     -0.30      0.00
    4    7    1     -0.27      0.00
    5    7    1     -0.50      0.00
    6    7    1     -0.83      0.00
    7    7    1     -0.45      0.00
    8    7    1      0.56      0.00
    9    7    1      0.88      0.00
   10    7    1      0.37      0.00
   11    7    1      0.22      0.00
  -11    8    1     -0.08      0.00
  -10    8    1     -0.64      0.00
   -9    8    1     -0.47      0.00
   -8    8    1      0.17      0.00
   -7    8    1      0.31      0.00
   -6    8    1      0.39      0.00
   -5    8    1     -0.16      0.00
   -4    8    1     -1.41      0.00
   -3    8    1     -0.23      0.00
   -2    8    1      2.03      0.00
   -1    8    1      1.23      0.00
    0    8    1     -0.65      0.00
    1    8    1     -0.53      0.00
    2    8    1      0.42      0.00
    3    8    1      0.50      0.00
    4    8    1      0.13      0.00
    5    8    1      0.02      0.00
    6    8    1     -0.49      0.00
    7    8    1     -1.16      0.00
    8    8    1     -0.52      0.00
    9    8    1      0.72      0.00
   10    8    1      0.92      0.00
   11    8    1      0.44      0.00
  -10    9    1     -0.28      0.00
   -9    9    1     -0.06      0.00
   -8    9    1      0.18      0.00
   -7    9    1      0.16      0.00
   -6    9    1      0.37      0.00
   -5    9    1      0.63      0.00
   -4    9    1     -0.11      0.00
   -3    9    1     -0.48      0.00
   -2    9    1      1.05      0.00
   -1    9    1      1.37      0.00
    0    9    1     -0.28      0.00
    1    9    1     -0.65      0.00
    2    9    1      0.35      0.00
    3    9    1      0.90      0.00
    4    9    1      0.30      0.00
    5    9    1     -0.35      0.00
    6    9    1     -0.24      0.00
    7    9    1     -0.65      0.00
    8    9    1     -0.99      0.00
    9    9    1      0.02      0.00
   10    9    1      0.90      0.00
   -9   10    1      0.10      0.00
   -8   10    1      0.16      0.00
   -7   10    1      0.02      0.00
   -6   10    1      0.39      0.00
   -5   10    1      0.62      0.00
   -4   10    1      0.60      0.00
   -3   10    1      0.32      0.00
   -2   10    1      0.27      0.00
   -1   10    1      0.44      0.00
    0   10    1     -0.20      0.00
    1   10    1     -0.51      0.00
    2   10    1      0.04      0.00
    3   10    1      0.61      0.00
    4   10    1      0.67      0.00
    5   10    1     -0.24      0.00
    6   10    1     -0.60      0.00
    7   10    1     -0.16      0.00
    8   10    1     -0.37      0.00
    9   10    1     -0.34      0.00
   -9   11    1     -0.01      0.00
   -8   11    1      0.28      0.00
   -7   11    1     -0.01      0.00
   -6   11    1      0.20      0.00
   -5   11    1      0.28      0.00
   -4   11    1      0.01      0.00
   -3   11    1      0.34      0.00
   -2   11    1      0.49      0.00
   -1   11    1      0.27      0.00
    0   11    1     -0.26      0.00
    1   11    1     -0.63      0.00
    2   11    1     -0.14      0.00
    3   11    1      0.10      0.00
    4   11    1      0.25      0.00
    5   11    1      0.32      0.00
    6   11    1     -0.19      0.00
    7   11    1     -0.17      0.00
    8   11    1      0.08      0.00
   -7   12    1      0.28      0.00
   -6   12    1     -0.11      0.00
   -5   12    1     -0.07      0.00
   -4   12    1     -0.26      0.00
   -3   12    1     -0.16      0.00
   -2   12    1      0.30      0.00
   -1   12    1      0.54      0.00
    0   12    1      0.23      0.00
    1   12    1     -0.68      0.00
    2   12    1     -0.49      0.00
    3   12    1      0.18      0.00
    4   12    1     -0.21      0.00
    5   12    1     -0.11      0.00
    6   12    1      0.24      0.00
    7   12    1     -0.04      0.00
   -6   13    1     -0.06      0.00
   -5   13    1     -0.20      0.00
   -4   13    1      0.14      0.00
   -3   13    1      0.19      0.00
   -2   13    1      0.03      0.00
   -1   13    1      0.05      0.00
    0   13    1      0.33      0.00
    1   13    1     -0.17      0.00
    2   13    1     -0.71      0.00
    3   13    1      0.03      0.00
    4   13    1      0.04      0.00
    5   13    1     -0.64      0.00
   -3   14    1      0.60      0.00
   -2   14    1      0.19      0.00
   -1   14    1     -0.25      0.00
    0   14    1     -0.15      0.00
    1   14    1      0.18      0.00
    2   14    1     -0.28      0.00
    3   14    1     -0.50      0.00
   -3  -14    2      0.80      0.00
   -2  -14    2      0.47      0.00
   -1  -14    2      0.38      0.00
    0  -14    2      0.32      0.00
    1  -14    2      0.25      0.00
    2  -14    2     -0.18      0.00
    3  -14    2     -0.34      0.00
   -6  -13    2     -0.13      0.00
   -5  -13    2     -0.20      0.00
   -4  -13    2      0.91      0.00
   -3  -13    2      1.00      0.00
   -2  -13    2      0.04      0.00
   -1  -13    2      0.05      0.00
    0  -13    2      0.50      0.00
    1  -13    2      0.33      0.00
    2  -13    2     -0.38      0.00
    3  -13    2     -0.58      0.00
    4  -13    2     -0.27      0.00
    5  -13    2     -0.48      0.00
   -7  -12    2      0.43      0.00
   -6  -12    2      0.41      0.00
   -5  -12    2      0.04      0.00
   -4  -12    2      0.16      0.00
   -3  -12    2      0.65      0.00
   -2  -12    2      0.03      0.00
   -1  -12    2     -0.46      0.00
    0  -12    2      0.13      0.00
    1  -12    2      0.46      0.00
    2  -12    2     -0.11      0.00
    3  -12    2     -0.52      0.00
    4  -12    2      0.02      0.00
    5  -12    2      0.02      0.00
    6  -12    2     -0.49      0.00
    7  -12    2     -0.31      0.00
   -8  -11    2      0.06      0.00
   -7  -11    2      0.07      0.00
   -6  -11    2      0.13      0.00
   -5  -11    2      0.49      0.00
   -4  -11    2      0.11      0.00
   -3  -11    2     -0.05      0.00
   -2  -11    2      0.06      0.00
   -1  -11    2     -0.09      0.00
    0  -11    2      0.09      0.00
    1  -11    2      0.17      0.00
    2  -11    2     -0.02      0.00
    3  -11    2     -0.11      0.00
    4  -11    2      0.16      0.00
    5  -11    2      0.30      0.00
    6  -11    2     -0.19      0.00
    7  -11    2     -0.36      0.00
    8  -11    2     -0.26      0.00
   -9  -10    2     -0.41      0.00
   -8  -10    2     -0.51      0.00
   -7  -10    2      0.02      0.00
   -6  -10    2     -0.01      0.00
   -5  -10    2      0.16      0.00
   -4  -10    2      0.14      0.00
   -3  -10    2     -0.26      0.00
   -2  -10    2     -0.11      0.00
   -1  -10    2      0.44      0.00
    0  -10    2      0.99      0.00
    1  -10    2      0.53      0.00
    2  -10    2     -0.46      0.00
    3  -10    2     -0.35      0.00
    4  -10    2      0.09      0.00
    5  -10    2      0.08      0.00
    6  -10    2     -0.01      0.00
    7  -10    2     -0.07      0.00
    8  -10    2     -0.25      0.00
    9  -10    2     -0.28      0.00
  -10   -9    2      0.49      0.00
   -9   -9    2      0.01      0.00
   -8   -9    2     -0.64      0.00
   -7   -9    2     -0.06      0.00
   -6   -9    2      0.42      0.00
   -5   -9    2      0.01      0.00
   -4   -9    2     -0.36      0.00
   -3   -9    2     -0.22      0.00
   -2   -9    2      0.19      0.00
   -1   -9    2      0.57      0.00
    0   -9    2      1.11      0.00
    1   -9    2      1.07      0.00
    2   -9    2     -0.21      0.00
    3   -9    2     -0.76      0.00
    4   -9    2     -0.19      0.00
    5   -9    2     -0.10      0.00
    6   -9    2     -0.08      0.00
    7   -9    2      0.16      0.00
    8   -9    2     -0.08      0.00
    9   -9    2     -0.36      0.00
   10   -9    2     -0.09      0.00
  -11   -8    2     -0.46      0.00
  -10   -8    2     -0.06      0.00
   -9   -8    2      0.34      0.00
   -8   -8    2      0.25      0.00
   -7   -8    2      0.46      0.00
   -6   -8    2      0.77      0.00
   -5   -8    2      0.26      0.00
   -4   -8    2     -0.84      0.00
   -3   -8    2     -0.79      0.00
   -1   -8    2      1.47      0.00
    1   -8    2      0.43      0.00
    2   -8    2      0.07      0.00
    3   -8    2     -0.17      0.00
    4   -8    2     -0.12      0.00
    5   -8    2     -0.11      0.00
    6   -8    2     -0.11      0.00
    7   -8    2      0.18      0.00
    8   -8    2      0.21      0.00
    9   -8    2      0.03      0.00
   10   -8    2     -0.07      0.00
  -11   -7    2     -0.20      0.00
  -10   -7    2     -0.53      0.00
   -9   -7    2     -0.21      0.00
   -8   -7    2      0.58      0.00
   -7   -7    2      2.00      0.00
   -6   -7    2      2.38      0.00
   -5   -7    2      1.11      0.00
   -4   -7    2     -0.91      0.00
   -3   -7    2     -1.88      0.00
   -2   -7    2     -0.08      0.00
   -1   -7    2      2.43      0.00
    0   -7    2      2.47      0.00
    1   -7    2      0.30      0.00
    2   -7    2     -0.73      0.00
    3   -7    2      0.21      0.00
    4   -7    2      0.62      0.00
    5   -7    2      0.10      0.00
    6   -7    2     -0.14      0.00
    7   -7    2      0.07      0.00
    8   -7    2      0.28      0.00
    9   -7    2      0.44      0.00
   10   -7    2      0.35      0.00
   11   -7    2     -0.17      0.00
  -12   -6    2      0.26      0.00
  -11   -6    2      0.54      0.00
  -10   -6    2     -0.14      0.00
   -9   -6    2     -0.64      0.00
   -8   -6    2     -0.38      0.00
   -7   -6    2      2.10      0.00
   -6   -6    2      4.66      0.00
   -5   -6    2      3.53      0.00
   -4   -6    2      0.26      0.00
   -3   -6    2     -2.04      0.00
    0   -6    2      3.10      0.00
    1   -6    2      1.18      0.00
    2   -6    2     -1.23      0.00
    3   -6    2     -0.78      0.00
    5   -6    2      0.97      0.00
    7   -6    2     -0.23      0.00
    8   -6    2     -0.03      0.00
    9   -6    2      0.32      0.00
   10   -6    2      0.50      0.00
   11   -6    2      0.07      0.00
   12   -6    2     -0.20      0.00
  -11   -5    2      0.55      0.00
  -10   -5    2      0.46      0.00
   -9   -5    2     -0.09      0.00
   -8   -5    2     -0.22      0.00
   -7   -5    2      0.67      0.00
   -6   -5    2      3.92      0.00
   -5   -5    2      5.32      0.00
   -4   -5    2      2.77      0.00
   -3   -5    2     -0.37      0.00
   -2   -5    2     -1.26      0.00
   -1   -5    2      0.26      0.00
    0   -5    2      1.26      0.00
    2   -5    2     -0.97      0.00
    4   -5    2     -0.03      0.00
    5   -5    2      1.61      0.00
    6   -5    2      1.20      0.00
    7   -5    2     -0.22      0.00
    8   -5    2     -0.53      0.00
    9   -5    2     -0.01      0.00
   10   -5    2      0.32      0.00
   11   -5    2      0.24      0.00
   12   -5    2     -0.08      0.00
  -11   -4    2     -0.49      0.00
  -10   -4    2      0.14      0.00
   -9   -4    2      0.14      0.00
   -8   -4    2      1.26      0.00
   -7   -4    2      0.81      0.00
   -6   -4    2      0.89      0.00
   -2   -4    2      0.05      0.00
    0   -4    2     -0.98      0.00
    1   -4    2     -1.63      0.00
    2   -4    2     -1.19      0.00
    4   -4    2     -0.49      0.00
    6   -4    2      1.84      0.00
    7   -4    2      0.58      0.00
    8   -4    2     -0.53      0.00
    9   -4    2     -0.24      0.00
   10   -4    2      0.13      0.00
   11   -4    2      0.27      0.00
   12   -4    2      0.14      0.00
  -10   -3    2     -0.56      0.00
   -9   -3    2     -0.39      0.00
   -8   -3    2      1.38      0.00
   -7   -3    2      1.81      0.00
   -5   -3    2     -0.01      0.00
   -4   -3    2      1.33      0.00
   -3   -3    2      1.42      0.00
   -2   -3    2      3.05      0.00
    0   -3    2     -0.90      0.00
    3   -3    2      0.39      0.00
    4   -3    2      0.89      0.00
    6   -3    2      0.88      0.00
    8   -3    2      0.18      0.00
    9   -3    2     -0.22      0.00
   10   -3    2     -0.21      0.00
   11   -3    2      0.00      0.00
   12   -3    2      0.25      0.00
  -10   -2    2     -0.58      0.00
   -9   -2    2     -0.23      0.00
   -8   -2    2      0.59      0.00
   -7   -2    2      1.22      0.00
   -6   -2    2     -0.43      0.00
   -5   -2    2     -1.63      0.00
   -3   -2    2     -2.86      0.00
    0   -2    2      4.45      0.00
    1   -2    2     -3.76      0.00
    2   -2    2     -4.17      0.00
    4   -2    2      1.81      0.00
    5   -2    2      0.95      0.00
    6   -2    2     -0.05      0.00
    7   -2    2      0.41      0.00
    8   -2    2      0.58      0.00
    9   -2    2      0.15      0.00
   10   -2    2     -0.30      0.00
   11   -2    2     -0.33      0.00
   12   -2    2     -0.14      0.00
   13   -2    2      0.11      0.00
  -10   -1    2     -0.46      0.00
   -9   -1    2      0.50      0.00
   -8   -1    2      0.86      0.00
   -7   -1    2      0.32      0.00
   -6   -1    2     -0.41      0.00
   -5   -1    2     -1.36      0.00
   -3   -1    2     -6.67      0.00
   -2   -1    2      1.63      0.00
    0   -1    2     11.98      0.00
    1   -1    2     -1.91      0.00
    2   -1    2     -5.30      0.00
    4   -1    2      0.37      0.00
    7   -1    2     -0.30      0.00
    8   -1    2      0.05      0.00
    9   -1    2      0.25      0.00
   10   -1    2      0.23      0.00
   11   -1    2      0.12      0.00
   12   -1    2     -0.33      0.00
  -12    0    2     -0.73      0.00
  -11    0    2     -1.07      0.00
  -10    0    2     -0.65      0.00
   -9    0    2      0.53      0.00
   -8    0    2      1.22      0.00
   -7    0    2      0.39      0.00
   -5    0    2     -0.88      0.00
   -2    0    2     -1.72      0.00
    3    0    2     -1.55      0.00
    4    0    2     -1.19      0.00
    5    0    2      0.18      0.00
    6    0    2      0.58      0.00
    7    0    2     -0.40      0.00
    8    0    2     -0.58      0.00
    9    0    2     -0.26      0.00
   10    0    2      0.41      0.00
   11    0    2      0.88      0.00
  -13    1    2     -0.48      0.00
  -12    1    2     -0.50      0.00
  -11    1    2     -0.60      0.00
  -10    1    2     -0.40      0.00
   -9    1    2      0.13      0.00
   -8    1    2      0.61      0.00
   -7    1    2      0.39      0.00
   -6    1    2     -0.15      0.00
   -5    1    2     -1.02      0.00
   -3    1    2     -1.82      0.00
    0    1    2      0.69      0.00
    1    1    2     -1.48      0.00
    3    1    2      1.22      0.00
    5    1    2     -0.84      0.00
    7    1    2     -0.47      0.00
    8    1    2     -0.84      0.00
    9    1    2     -0.59      0.00
  -13    2    2     -0.58      0.00
  -12    2    2     -0.46      0.00
  -11    2    2      0.13      0.00
  -10    2    2      0.21      0.00
   -9    2    2     -0.12      0.00
   -8    2    2     -0.20      0.00
   -6    2    2     -0.06      0.00
   -5    2    2     -1.30      0.00
   -4    2    2     -2.96      0.00
   -3    2    2     -1.32      0.00
   -2    2    2      2.62      0.00
   -1    2    2      0.72      0.00
    0    2    2     -4.89      0.00
    1    2    2     -5.10      0.00
    2    2    2     -0.35      0.00
    3    2    2      2.47      0.00
    4    2    2      0.55      0.00
    5    2    2     -0.71      0.00
    6    2    2      0.16      0.00
    7    2    2     -0.69      0.00
    8    2    2     -1.10      0.00
  -13    3    2     -0.31      0.00
  -12    3    2     -0.37      0.00
  -11    3    2      0.11      0.00
  -10    3    2      0.23      0.00
   -9    3    2     -0.35      0.00
   -8    3    2     -0.65      0.00
   -7    3    2     -0.16      0.00
   -6    3    2      0.04      0.00
   -5    3    2     -1.11      0.00
   -4    3    2     -2.37      0.00
   -2    3    2      2.24      0.00
   -1    3    2      2.21      0.00
    0    3    2     -2.64      0.00
    5    3    2      0.31      0.00
    6    3    2     -0.17      0.00
    7    3    2     -0.93      0.00
    8    3    2     -1.21      0.00
  -12    4    2      0.05      0.00
  -11    4    2     -0.05      0.00
  -10    4    2     -0.28      0.00
   -9    4    2     -0.45      0.00
   -8    4    2     -0.50      0.00
   -7    4    2     -0.36      0.00
   -6    4    2     -0.34      0.00
   -5    4    2     -0.97      0.00
   -4    4    2     -1.23      0.00
   -3    4    2      0.68      0.00
    0    4    2     -0.80      0.00
    1    4    2     -2.53      0.00
    3    4    2     -1.75      0.00
    4    4    2      0.18      0.00
    5    4    2      1.17      0.00
    6    4    2      0.03      0.00
    7    4    2     -0.84      0.00
    8    4    2     -0.74      0.00
    9    4    2     -0.32      0.00
  -12    5    2      0.14      0.00
  -11    5    2     -0.05      0.00
  -10    5    2     -0.65      0.00
   -9    5    2     -0.40      0.00
   -8    5    2      0.16      0.00
   -7    5    2      0.06      0.00
   -6    5    2     -0.79      0.00
   -5    5    2     -1.39      0.00
   -2    5    2      3.46      0.00
   -1    5    2      1.55      0.00
    0    5    2     -1.25      0.00
    2    5    2     -1.97      0.00
    4    5    2     -1.17      0.00
    5    5    2      0.42      0.00
    6    5    2      0.35      0.00
    7    5    2     -0.07      0.00
    8    5    2      0.22      0.00
    9    5    2      0.01      0.00
  -12    6    2      0.02      0.00
  -11    6    2     -0.24      0.00
  -10    6    2     -0.86      0.00
   -9    6    2     -0.47      0.00
   -8    6    2      0.45      0.00
   -7    6    2      0.68      0.00
   -6    6    2     -0.39      0.00
   -5    6    2     -1.79      0.00
   -4    6    2     -1.22      0.00
   -3    6    2      1.02      0.00
   -2    6    2      2.58      0.00
   -1    6    2      1.31      0.00
    0    6    2     -1.18      0.00
    1    6    2     -1.58      0.00
    2    6    2     -0.99      0.00
    3    6    2     -0.95      0.00
    4    6    2     -1.03      0.00
    5    6    2     -0.82      0.00
    6    6    2     -0.36      0.00
    7    6    2      0.33      0.00
    8    6    2      0.95      0.00
    9    6    2      0.59      0.00
   10    6    2      0.14      0.00
  -12    7    2      0.19      0.00
  -11    7    2     -0.33      0.00
  -10    7    2     -0.87      0.00
   -9    7    2     -0.46      0.00
   -8    7    2      0.29      0.00
   -7    7    2      0.58      0.00
   -6    7    2      0.30      0.00
   -5    7    2     -1.30      0.00
   -3    7    2      0.70      0.00
   -2    7    2      1.95      0.00
   -1    7    2      0.49      0.00
    0    7    2     -1.02      0.00
    3    7    2      0.01      0.00
    4    7    2     -0.03      0.00
    5    7    2     -0.49      0.00
    6    7    2     -0.96      0.00
    7    7    2     -0.48      0.00
    8    7    2      0.58      0.00
    9    7    2      0.93      0.00
   10    7    2      0.66      0.00
  -11    8    2     -0.20      0.00
  -10    8    2     -0.51      0.00
   -9    8    2     -0.11      0.00
   -8    8    2      0.26      0.00
   -7    8    2      0.18      0.00
   -6    8    2      0.39      0.00
   -5    8    2     -0.10      0.00
   -4    8    2     -1.24      0.00
   -3    8    2      0.05      0.00
   -2    8    2      1.83      0.00
   -1    8    2      0.56      0.00
    0    8    2     -1.07      0.00
    1    8    2     -0.66      0.00
    2    8    2      0.27      0.00
    3    8    2      0.37      0.00
    4    8    2      0.08      0.00
    5    8    2      0.01      0.00
    6    8    2     -0.45      0.00
    7    8    2     -1.03      0.00
    8    8    2     -0.48      0.00
    9    8    2      0.63      0.00
   10    8    2      0.99      0.00
  -10    9    2     -0.23      0.00
   -9    9    2      0.26      0.00
   -8    9    2      0.29      0.00
   -7    9    2      0.07      0.00
   -6    9    2      0.23      0.00
   -5    9    2      0.61      0.00
   -4    9    2      0.21      0.00
   -3    9    2     -0.14      0.00
   -2    9    2      0.69      0.00
   -1    9    2      0.52      0.00
    0    9    2     -0.72      0.00
    1    9    2     -0.73      0.00
    2    9    2      0.16      0.00
    3    9    2      0.68      0.00
    4    9    2      0.13      0.00
    5    9    2     -0.49      0.00
    6    9    2     -0.26      0.00
    7    9    2     -0.46      0.00
    8    9    2     -0.76      0.00
    9    9    2     -0.06      0.00
   10    9    2      0.71      0.00
   -9   10    2      0.32      0.00
   -8   10    2      0.31      0.00
   -7   10    2      0.05      0.00
   -6   10    2      0.23      0.00
   -5   10    2      0.35      0.00
   -4   10    2      0.69      0.00
   -3   10    2      0.51      0.00
   -2   10    2     -0.02      0.00
   -1   10    2     -0.09      0.00
    0   10    2     -0.50      0.00
    1   10    2     -0.71      0.00
    2   10    2     -0.32      0.00
    3   10    2      0.29      0.00
    4   10    2      0.52      0.00
    5   10    2     -0.32      0.00
    6   10    2     -0.60      0.00
    7   10    2     -0.03      0.00
    8   10    2     -0.16      0.00
    9   10    2     -0.39      0.00
   -8   11    2      0.56      0.00
   -7   11    2      0.15      0.00
   -6   11    2      0.13      0.00
   -5   11    2      0.01      0.00
   -4   11    2     -0.03      0.00
   -3   11    2      0.41      0.00
   -2   11    2      0.26      0.00
   -1   11    2      0.04      0.00
    0   11    2     -0.36      0.00
    1   11    2     -0.89      0.00
    2   11    2     -0.63      0.00
    3   11    2     -0.36      0.00
    4   11    2      0.01      0.00
    5   11    2      0.25      0.00
    6   11    2     -0.23      0.00
    7   11    2     -0.18      0.00
    8   11    2      0.12      0.00
   -7   12    2      0.44      0.00
   -6   12    2     -0.06      0.00
   -5   12    2     -0.02      0.00
   -4   12    2     -0.04      0.00
   -3   12    2     -0.01      0.00
   -2   12    2      0.09      0.00
   -1   12    2      0.27      0.00
    0   12    2      0.00      0.00
    1   12    2     -1.04      0.00
    2   12    2     -0.90      0.00
    3   12    2     -0.26      0.00
    4   12    2     -0.63      0.00
    5   12    2     -0.34      0.00
    6   12    2      0.11      0.00
    7   12    2     -0.14      0.00
   -6   13    2      0.04      0.00
   -5   13    2      0.10      0.00
   -4   13    2      0.56      0.00
   -3   13    2      0.34      0.00
   -2   13    2     -0.20      0.00
   -1   13    2     -0.23      0.00
    0   13    2      0.02      0.00
    1   13    2     -0.63      0.00
    2   13    2     -1.08      0.00
    3   13    2     -0.27      0.00
    4   13    2     -0.43      0.00
    5   13    2     -1.03      0.00
   -3   14    2      0.59      0.00
   -2   14    2     -0.13      0.00
   -1   14    2     -0.42      0.00
    0   14    2     -0.25      0.00
    1   14    2     -0.20      0.00
    2   14    2     -0.71      0.00
    3   14    2     -0.71      0.00
   -3  -14    3      0.60      0.00
   -2  -14    3      0.13      0.00
   -1  -14    3      0.08      0.00
    0  -14    3      0.17      0.00
    1  -14    3      0.04      0.00
    2  -14    3     -0.38      0.00
    3  -14    3     -0.33      0.00
   -6  -13    3     -0.14      0.00
   -5  -13    3     -0.29      0.00
   -4  -13    3      0.59      0.00
   -3  -13    3      0.70      0.00
   -2  -13    3     -0.11      0.00
   -1  -13    3     -0.17      0.00
    0  -13    3      0.24      0.00
    1  -13    3      0.08      0.00
    2  -13    3     -0.51      0.00
    3  -13    3     -0.45      0.00
    4  -13    3     -0.14      0.00
    5  -13    3     -0.47      0.00
   -7  -12    3      0.39      0.00
   -6  -12    3      0.52      0.00
   -5  -12    3      0.14      0.00
   -4  -12    3     -0.12      0.00
   -3  -12    3      0.29      0.00
   -2  -12    3      0.04      0.00
   -1  -12    3     -0.36      0.00
    0  -12    3     -0.03      0.00
    1  -12    3      0.20      0.00
    2  -12    3     -0.20      0.00
    3  -12    3     -0.33      0.00
    4  -12    3      0.19      0.00
    5  -12    3      0.00      0.00
    6  -12    3     -0.43      0.00
    7  -12    3     -0.27      0.00
   -8  -11    3      0.03      0.00
   -7  -11    3      0.04      0.00
   -6  -11    3      0.30      0.00
   -5  -11    3      0.58      0.00
   -4  -11    3     -0.18      0.00
   -3  -11    3     -0.34      0.00
   -2  -11    3      0.27      0.00
   -1  -11    3      0.36      0.00
    0  -11    3      0.14      0.00
    1  -11    3     -0.08      0.00
    2  -11    3     -0.12      0.00
    3  -11    3     -0.06      0.00
    4  -11    3      0.15      0.00
    5  -11    3      0.21      0.00
    6  -11    3     -0.16      0.00
    7  -11    3     -0.30      0.00
    8  -11    3     -0.36      0.00
   -9  -10    3     -0.37      0.00
   -8  -10    3     -0.38      0.00
   -7  -10    3      0.16      0.00
   -6  -10    3      0.16      0.00
   -5  -10    3      0.05      0.00
   -4  -10    3     -0.36      0.00
   -3  -10    3     -0.52      0.00
   -2  -10    3      0.26      0.00
   -1  -10    3      1.04      0.00
    0  -10    3      1.02      0.00
    1  -10    3      0.07      0.00
    2  -10    3     -0.57      0.00
    3  -10    3     -0.18      0.00
    4  -10    3      0.05      0.00
    5  -10    3      0.01      0.00
    6  -10    3      0.05      0.00
    7  -10    3     -0.10      0.00
    8  -10    3     -0.43      0.00
    9  -10    3     -0.37      0.00
  -10   -9    3      0.17      0.00
   -9   -9    3     -0.04      0.00
   -8   -9    3     -0.27      0.00
   -7   -9    3      0.33      0.00
   -6   -9    3      0.50      0.00
   -5   -9    3     -0.37      0.00
   -4   -9    3     -1.06      0.00
   -3   -9    3     -0.53      0.00
   -2   -9    3      0.62      0.00
   -1   -9    3      1.17      0.00
    0   -9    3      1.06      0.00
    1   -9    3      0.37      0.00
    2   -9    3     -0.45      0.00
    3   -9    3     -0.30      0.00
    4   -9    3      0.14      0.00
    5   -9    3     -0.01      0.00
    6   -9    3     -0.02      0.00
    7   -9    3      0.07      0.00
    8   -9    3     -0.18      0.00
    9   -9    3     -0.31      0.00
   10   -9    3     -0.07      0.00
  -11   -8    3     -0.64      0.00
  -10   -8    3     -0.50      0.00
   -9   -8    3     -0.06      0.00
   -8   -8    3      0.53      0.00
   -7   -8    3      1.15      0.00
   -6   -8    3      1.01      0.00
   -5   -8    3     -0.19      0.00
   -4   -8    3     -1.66      0.00
   -3   -8    3     -1.23      0.00
   -2   -8    3      0.99      0.00
   -1   -8    3      2.07      0.00
    0   -8    3      1.09      0.00
    1   -8    3     -0.15      0.00
    2   -8    3     -0.28      0.00
    3   -8    3      0.23      0.00
    4   -8    3      0.48      0.00
    5   -8    3      0.22      0.00
    6   -8    3     -0.06      0.00
    7   -8    3     -0.01      0.00
    8   -8    3      0.19      0.00
    9   -8    3      0.33      0.00
   10   -8    3      0.11      0.00
  -11   -7    3     -0.21      0.00
  -10   -7    3     -0.81      0.00
   -9   -7    3     -0.83      0.00
   -8   -7    3      0.32      0.00
   -7   -7    3      2.54      0.00
   -6   -7    3      2.91      0.00
   -5   -7    3      0.97      0.00
   -4   -7    3     -1.52      0.00
   -3   -7    3     -2.27      0.00
   -2   -7    3      0.18      0.00
   -1   -7    3      2.84      0.00
    0   -7    3      2.35      0.00
    1   -7    3     -0.15      0.00
    2   -7    3     -0.95      0.00
    3   -7    3      0.34      0.00
    4   -7    3      0.99      0.00
    5   -7    3      0.54      0.00
    6   -7    3      0.03      0.00
    7   -7    3     -0.14      0.00
    8   -7    3      0.12      0.00
    9   -7    3      0.64      0.00
   10   -7    3      0.60      0.00
   11   -7    3      0.04      0.00
  -12   -6    3      0.26      0.00
  -11   -6    3      0.48      0.00
  -10   -6    3     -0.32      0.00
   -9   -6    3     -0.89      0.00
   -8   -6    3     -0.85      0.00
   -7   -6    3      1.87      0.00
   -6   -6    3      4.67      0.00
   -5   -6    3      3.40      0.00
   -4   -6    3      0.07      0.00
   -3   -6    3     -1.97      0.00
   -2   -6    3     -0.88      0.00
   -1   -6    3      1.67      0.00
    0   -6    3      2.19      0.00
    3   -6    3     -0.58      0.00
    4   -6    3      0.95      0.00
    5   -6    3      1.16      0.00
    6   -6    3      0.37      0.00
    7   -6    3     -0.25      0.00
    8   -6    3     -0.22      0.00
    9   -6    3      0.20      0.00
   10   -6    3      0.59      0.00
   11   -6    3      0.37      0.00
  -12   -5    3     -0.79      0.00
  -11   -5    3      0.30      0.00
  -10   -5    3      0.05      0.00
   -9   -5    3      0.10      0.00
   -8   -5    3     -0.22      0.00
   -7   -5    3     -0.18      0.00
   -6   -5    3      2.86      0.00
   -5   -5    3      4.43      0.00
   -4   -5    3      2.33      0.00
   -3   -5    3     -0.02      0.00
   -2   -5    3     -0.72      0.00
   -1   -5    3     -0.33      0.00
    0   -5    3     -0.55      0.00
    1   -5    3     -0.94      0.00
    2   -5    3     -0.87      0.00
    3   -5    3     -0.84      0.00
    4   -5    3      0.06      0.00
    5   -5    3      1.36      0.00
    6   -5    3      1.06      0.00
    7   -5    3     -0.17      0.00
    8   -5    3     -0.49      0.00
    9   -5    3     -0.20      0.00
   10   -5    3      0.23      0.00
   11   -5    3      0.51      0.00
   12   -5    3      0.27      0.00
  -11   -4    3     -0.64      0.00
  -10   -4    3     -0.36      0.00
   -9   -4    3      0.34      0.00
   -8   -4    3      1.59      0.00
   -7   -4    3     -0.19      0.00
   -6   -4    3     -0.66      0.00
   -4   -4    3      2.44      0.00
   -3   -4    3      1.61      0.00
    2   -4    3     -1.23      0.00
    4   -4    3     -0.12      0.00
    5   -4    3      0.42      0.00
    6   -4    3      1.14      0.00
    7   -4    3      0.29      0.00
    8   -4    3     -0.38      0.00
    9   -4    3     -0.28      0.00
   10   -4    3     -0.02      0.00
   11   -4    3      0.43      0.00
   12   -4    3      0.37      0.00
  -11   -3    3     -0.91      0.00
  -10   -3    3     -0.58      0.00
   -9   -3    3     -0.05      0.00
   -8   -3    3      1.66      0.00
   -7   -3    3      0.80      0.00
   -6   -3    3     -1.94      0.00
   -5   -3    3     -1.40      0.00
   -4   -3    3     -0.70      0.00
   -3   -3    3      0.49      0.00
   -2   -3    3      3.85      0.00
    0   -3    3     -2.67      0.00
    2   -3    3     -2.82      0.00
    3   -3    3      0.55      0.00
    4   -3    3      1.06      0.00
    5   -3    3     -0.11      0.00
    6   -3    3      0.11      0.00
    7   -3    3      0.42      0.00
    8   -3    3      0.18      0.00
    9   -3    3     -0.07      0.00
   10   -3    3     -0.23      0.00
   11   -3    3      0.03      0.00
   12   -3    3      0.29      0.00
  -10   -2    3     -0.23      0.00
   -9   -2    3      0.53      0.00
   -7   -2    3      0.61      0.00
   -5   -2    3     -2.73      0.00
   -3   -2    3     -3.40      0.00
    1   -2    3     -4.96      0.00
    2   -2    3     -4.19      0.00
    3   -2    3     -1.26      0.00
    4   -2    3      1.18      0.00
    6   -2    3     -0.46      0.00
    7   -2    3     -0.17      0.00
    8   -2    3      0.43      0.00
    9   -2    3      0.49      0.00
   10   -2    3      0.08      0.00
   11   -2    3     -0.20      0.00
   12   -2    3     -0.27      0.00
  -12   -1    3     -0.81      0.00
  -10   -1    3     -0.20      0.00
   -9   -1    3      1.19      0.00
   -8   -1    3      1.68      0.00
   -7   -1    3      0.58      0.00
   -5   -1    3     -2.53      0.00
   -4   -1    3     -4.65      0.00
   -3   -1    3     -5.59      0.00
   -2   -1    3      1.74      0.00
    1   -1    3     -3.90      0.00
    3   -1    3     -2.17      0.00
    6   -1    3      0.07      0.00
    7   -1    3     -0.46      0.00
    8   -1    3      0.03      0.00
    9   -1    3      0.63      0.00
   10   -1    3      0.83      0.00
   11   -1    3      0.43      0.00
   12   -1    3     -0.42      0.00
  -12    0    3     -0.86      0.00
  -11    0    3     -0.90      0.00
  -10    0    3     -0.34      0.00
   -9    0    3      0.74      0.00
   -8    0    3      1.62      0.00
   -7    0    3      1.10      0.00
   -6    0    3     -0.26      0.00
   -5    0    3     -2.24      0.00
   -3    0    3     -3.12      0.00
   -1    0    3      2.17      0.00
    0    0    3     -0.12      0.00
    3    0    3     -0.02      0.00
    4    0    3     -1.45      0.00
    5    0    3     -0.15      0.00
    7    0    3     -0.24      0.00
    8    0    3     -0.14      0.00
    9    0    3      0.13      0.00
   10    0    3      0.81      0.00
  -13    1    3     -0.76      0.00
  -12    1    3     -0.38      0.00
  -11    1    3     -0.11      0.00
  -10    1    3      0.16      0.00
   -9    1    3      0.23      0.00
   -8    1    3      0.46      0.00
   -7    1    3      0.77      0.00
   -6    1    3      0.19      0.00
   -4    1    3     -3.50      0.00
   -2    1    3      1.28      0.00
    0    1    3     -6.85      0.00
    4    1    3     -0.22      0.00
    6    1    3      0.00      0.00
    7    1    3     -0.48      0.00
    8    1    3     -0.04      0.00
    9    1    3     -0.04      0.00
  -13    2    3     -0.74      0.00
  -12    2    3     -0.26      0.00
  -11    2    3      0.52      0.00
  -10    2    3      0.67      0.00
   -9    2    3      0.19      0.00
   -8    2    3     -0.29      0.00
   -7    2    3     -0.02      0.00
   -6    2    3     -0.01      0.00
   -5    2    3     -1.66      0.00
   -4    2    3     -3.24      0.00
   -2    2    3      2.92      0.00
    2    2    3     -0.26      0.00
    5    2    3      0.26      0.00
    6    2    3     -0.07      0.00
  -13    3    3     -0.09      0.00
  -12    3    3      0.03      0.00
  -11    3    3      0.34      0.00
  -10    3    3      0.37      0.00
   -9    3    3      0.06      0.00
   -8    3    3     -0.26      0.00
   -7    3    3     -0.36      0.00
   -5    3    3     -1.36      0.00
   -4    3    3     -1.48      0.00
   -2    3    3      2.24      0.00
    0    3    3     -3.01      0.00
    1    3    3     -3.68      0.00
    4    3    3      1.19      0.00
    5    3    3      1.08      0.00
    6    3    3      0.06      0.00
    7    3    3     -0.88      0.00
    8    3    3     -0.75      0.00
  -12    4    3      0.60      0.00
  -11    4    3      0.21      0.00
  -10    4    3     -0.21      0.00
   -9    4    3     -0.12      0.00
   -8    4    3      0.18      0.00
   -7    4    3     -0.14      0.00
   -6    4    3     -1.10      0.00
   -4    4    3     -0.41      0.00
   -2    4    3      2.97      0.00
   -1    4    3     -0.05      0.00
    1    4    3     -1.67      0.00
    2    4    3     -1.80      0.00
    4    4    3      0.21      0.00
    5    4    3      1.18      0.00
    6    4    3      0.27      0.00
    7    4    3     -0.16      0.00
    8    4    3     -0.14      0.00
    9    4    3     -0.34      0.00
  -12    5    3      0.54      0.00
  -11    5    3      0.19      0.00
  -10    5    3     -0.50      0.00
   -9    5    3     -0.18      0.00
   -8    5    3      0.59      0.00
   -7    5    3      0.56      0.00
   -6    5    3     -1.05      0.00
   -5    5    3     -2.29      0.00
   -4    5    3     -0.92      0.00
   -3    5    3      2.57      0.00
   -2    5    3      3.70      0.00
   -1    5    3      0.14      0.00
    1    5    3     -1.51      0.00
    3    5    3     -1.37      0.00
    4    5    3     -0.87      0.00
    5    5    3      0.06      0.00
    6    5    3      0.23      0.00
    7    5    3      0.59      0.00
    8    5    3      0.80      0.00
    9    5    3      0.10      0.00
  -12    6    3      0.16      0.00
  -11    6    3     -0.14      0.00
  -10    6    3     -0.62      0.00
   -9    6    3     -0.22      0.00
   -8    6    3      0.48      0.00
   -7    6    3      0.89      0.00
   -6    6    3     -0.27      0.00
   -5    6    3     -2.20      0.00
   -3    6    3      1.21      0.00
   -2    6    3      2.31      0.00
   -1    6    3      0.30      0.00
    0    6    3     -1.86      0.00
    2    6    3     -0.42      0.00
    3    6    3     -0.24      0.00
    4    6    3     -0.61      0.00
    5    6    3     -0.92      0.00
    6    6    3     -0.49      0.00
    7    6    3      0.51      0.00
    8    6    3      1.06      0.00
    9    6    3      0.63      0.00
   10    6    3      0.34      0.00
  -12    7    3      0.15      0.00
  -11    7    3     -0.35      0.00
  -10    7    3     -0.53      0.00
   -9    7    3     -0.03      0.00
   -8    7    3      0.23      0.00
   -7    7    3      0.36      0.00
   -6    7    3      0.28      0.00
   -5    7    3     -1.28      0.00
   -4    7    3     -1.54      0.00
   -3    7    3      0.67      0.00
   -2    7    3      1.29      0.00
    1    7    3     -0.91      0.00
    2    7    3     -0.24      0.00
    3    7    3      0.11      0.00
    4    7    3      0.13      0.00
    5    7    3     -0.44      0.00
    6    7    3     -0.89      0.00
    7    7    3     -0.40      0.00
    8    7    3      0.43      0.00
    9    7    3      0.78      0.00
   10    7    3      0.81      0.00
  -11    8    3     -0.31      0.00
  -10    8    3     -0.18      0.00
   -9    8    3      0.35      0.00
   -8    8    3      0.28      0.00
   -7    8    3     -0.14      0.00
   -6    8    3      0.13      0.00
   -5    8    3      0.01      0.00
   -4    8    3     -0.75      0.00
   -3    8    3      0.12      0.00
   -2    8    3      0.93      0.00
   -1    8    3     -0.35      0.00
    0    8    3     -1.24      0.00
    1    8    3     -0.72      0.00
    2    8    3     -0.05      0.00
    3    8    3      0.11      0.00
    4    8    3     -0.04      0.00
    5    8    3     -0.09      0.00
    6    8    3     -0.39      0.00
    7    8    3     -0.80      0.00
    8    8    3     -0.41      0.00
    9    8    3      0.45      0.00
   10    8    3      0.90      0.00
  -10    9    3     -0.03      0.00
   -9    9    3      0.55      0.00
   -8    9    3      0.29      0.00
   -7    9    3     -0.14      0.00
   -6    9    3     -0.11      0.00
   -5    9    3      0.52      0.00
   -4    9    3      0.61      0.00
   -3    9    3     -0.06      0.00
   -2    9    3     -0.08      0.00
   -1    9    3     -0.28      0.00
    0    9    3     -0.91      0.00
    1    9    3     -0.82      0.00
    2    9    3     -0.17      0.00
    3    9    3      0.40      0.00
    4    9    3     -0.03      0.00
    5    9    3     -0.58      0.00
    6    9    3     -0.22      0.00
    7    9    3     -0.19      0.00
    8    9    3     -0.49      0.00
    9    9    3     -0.16      0.00
   -9   10    3      0.56      0.00
   -8   10    3      0.36      0.00
   -7   10    3     -0.02      0.00
   -6   10    3     -0.04      0.00
   -5   10    3      0.09      0.00
   -4   10    3      0.76      0.00
   -3   10    3      0.44      0.00
   -2   10    3     -0.45      0.00
   -1   10    3     -0.40      0.00
    0   10    3     -0.56      0.00
    1   10    3     -0.90      0.00
    2   10    3     -0.69      0.00
    3   10    3      0.03      0.00
    4   10    3      0.40      0.00
    5   10    3     -0.31      0.00
    6   10    3     -0.47      0.00
    7   10    3      0.15      0.00
    8   10    3      0.01      0.00
    9   10    3     -0.46      0.00
   -8   11    3      0.73      0.00
   -7   11    3      0.19      0.00
   -6   11    3      0.05      0.00
   -5   11    3     -0.08      0.00
   -4   11    3      0.03      0.00
   -3   11    3      0.30      0.00
   -2   11    3     -0.04      0.00
   -1   11    3     -0.06      0.00
    0   11    3     -0.40      0.00
    1   11    3     -1.08      0.00
    2   11    3     -0.88      0.00
    3   11    3     -0.59      0.00
    4   11    3     -0.14      0.00
    5   11    3      0.22      0.00
    6   11    3     -0.16      0.00
    7   11    3     -0.13      0.00
    8   11    3      0.11      0.00
   -8   12    3      0.83      0.00
   -7   12    3      0.45      0.00
   -6   12    3      0.01      0.00
   -5   12    3      0.23      0.00
   -4   12    3      0.21      0.00
   -3   12    3     -0.05      0.00
   -2   12    3     -0.17      0.00
   -1   12    3      0.05      0.00
    0   12    3     -0.27      0.00
    1   12    3     -1.25      0.00
    2   12    3     -0.84      0.00
    3   12    3     -0.31      0.00
    4   12    3     -0.89      0.00
    5   12    3     -0.48      0.00
    6   12    3      0.09      0.00
   -6   13    3      0.14      0.00
   -5   13    3      0.47      0.00
   -4   13    3      0.79      0.00
   -3   13    3      0.14      0.00
   -2   13    3     -0.48      0.00
   -1   13    3     -0.35      0.00
    0   13    3     -0.25      0.00
    1   13    3     -0.91      0.00
    2   13    3     -0.94      0.00
    3   13    3     -0.12      0.00
    4   13    3     -0.66      0.00
    5   13    3     -1.21      0.00
   -3   14    3      0.15      0.00
   -2   14    3     -0.49      0.00
   -1   14    3     -0.35      0.00
    0   14    3     -0.23      0.00
    1   14    3     -0.43      0.00
    2   14    3     -0.73      0.00
    3   14    3     -0.46      0.00
   -3  -14    4      0.33      0.00
   -2  -14    4     -0.11      0.00
   -1  -14    4     -0.15      0.00
    0  -14    4     -0.03      0.00
    1  -14    4     -0.15      0.00
    2  -14    4     -0.39      0.00
    3  -14    4     -0.19      0.00
   -6  -13    4      0.08      0.00
   -5  -13    4     -0.26      0.00
   -4  -13    4      0.21      0.00
   -3  -13    4      0.44      0.00
   -2  -13    4     -0.09      0.00
   -1  -13    4     -0.25      0.00
    0  -13    4      0.03      0.00
    1  -13    4     -0.06      0.00
    2  -13    4     -0.42      0.00
    3  -13    4     -0.15      0.00
    4  -13    4      0.03      0.00
    5  -13    4     -0.36      0.00
   -7  -12    4      0.25      0.00
   -6  -12    4      0.79      0.00
   -5  -12    4      0.39      0.00
   -4  -12    4     -0.27      0.00
   -3  -12    4      0.17      0.00
   -2  -12    4      0.30      0.00
   -1  -12    4     -0.14      0.00
    0  -12    4     -0.12      0.00
    1  -12    4      0.09      0.00
    2  -12    4     -0.10      0.00
    3  -12    4     -0.03      0.00
    4  -12    4      0.36      0.00
    5  -12    4      0.04      0.00
    6  -12    4     -0.25      0.00
    7  -12    4     -0.19      0.00
   -8  -11    4     -0.09      0.00
   -7  -11    4     -0.05      0.00
   -6  -11    4      0.44      0.00
   -5  -11    4      0.63      0.00
   -4  -11    4     -0.28      0.00
   -3  -11    4     -0.22      0.00
   -2  -11    4      0.74      0.00
   -1  -11    4      0.75      0.00
    0  -11    4      0.06      0.00
    1  -11    4     -0.25      0.00
    2  -11    4     -0.05      0.00
    3  -11    4      0.07      0.00
    4  -11    4      0.21      0.00
    5  -11    4      0.24      0.00
    6  -11    4     -0.08      0.00
    7  -11    4     -0.32      0.00
    8  -11    4     -0.48      0.00
   -9  -10    4     -0.32      0.00
   -8  -10    4     -0.21      0.00
   -7  -10    4      0.27      0.00
   -6  -10    4      0.13      0.00
   -5  -10    4     -0.28      0.00
   -4  -10    4     -0.66      0.00
   -3  -10    4     -0.30      0.00
   -2  -10    4      0.80      0.00
   -1  -10    4      1.30      0.00
    0  -10    4      0.66      0.00
    1  -10    4     -0.39      0.00
    2  -10    4     -0.48      0.00
    3  -10    4      0.05      0.00
    4  -10    4      0.13      0.00
    5  -10    4      0.13      0.00
    6  -10    4      0.09      0.00
    7  -10    4     -0.29      0.00
    8  -10    4     -0.64      0.00
    9  -10    4     -0.43      0.00
  -10   -9    4     -0.19      0.00
   -9   -9    4     -0.12      0.00
   -8   -9    4      0.11      0.00
   -7   -9    4      0.60      0.00
   -6   -9    4      0.27      0.00
   -5   -9    4     -0.98      0.00
   -4   -9    4     -1.54      0.00
   -3   -9    4     -0.40      0.00
   -2   -9    4      1.01      0.00
   -1   -9    4      1.20      0.00
    0   -9    4      0.52      0.00
    1   -9    4     -0.32      0.00
    2   -9    4     -0.52      0.00
    3   -9    4      0.13      0.00
    4   -9    4      0.44      0.00
    5   -9    4      0.17      0.00
    6   -9    4     -0.03      0.00
    7   -9    4     -0.19      0.00
    8   -9    4     -0.29      0.00
    9   -9    4     -0.25      0.00
   10   -9    4     -0.09      0.00
  -11   -8    4     -0.72      0.00
  -10   -8    4     -0.92      0.00
   -9   -8    4     -0.53      0.00
   -8   -8    4      0.68      0.00
   -7   -8    4      1.48      0.00
   -6   -8    4      0.78      0.00
   -5   -8    4     -0.87      0.00
   -4   -8    4     -2.21      0.00
   -3   -8    4     -1.26      0.00
   -2   -8    4      1.15      0.00
   -1   -8    4      1.87      0.00
    0   -8    4      0.57      0.00
    2   -8    4     -0.44      0.00
    3   -8    4      0.43      0.00
    4   -8    4      0.80      0.00
    5   -8    4      0.44      0.00
    6   -8    4     -0.12      0.00
    7   -8    4     -0.30      0.00
    8   -8    4      0.10      0.00
    9   -8    4      0.46      0.00
   10   -8    4      0.14      0.00
  -11   -7    4     -0.30      0.00
  -10   -7    4     -1.04      0.00
   -9   -7    4     -1.40      0.00
   -8   -7    4     -0.15      0.00
   -7   -7    4      2.39      0.00
   -6   -7    4      2.49      0.00
   -5   -7    4      0.28      0.00
   -4   -7    4     -1.95      0.00
   -2   -7    4      0.29      0.00
   -1   -7    4      2.33      0.00
    0   -7    4      1.50      0.00
    1   -7    4     -0.50      0.00
    2   -7    4     -0.81      0.00
    3   -7    4      0.37      0.00
    4   -7    4      0.98      0.00
    5   -7    4      0.70      0.00
    6   -7    4      0.08      0.00
    7   -7    4     -0.37      0.00
    8   -7    4     -0.14      0.00
    9   -7    4      0.51      0.00
   10   -7    4      0.57      0.00
   11   -7    4      0.18      0.00
  -12   -6    4      0.21      0.00
  -11   -6    4      0.04      0.00
  -10   -6    4     -0.57      0.00
   -9   -6    4     -1.01      0.00
   -8   -6    4     -1.54      0.00
   -7   -6    4      0.77      0.00
   -6   -6    4      3.36      0.00
   -5   -6    4      2.21      0.00
   -4   -6    4     -0.31      0.00
   -3   -6    4     -1.49      0.00
   -2   -6    4     -0.51      0.00
   -1   -6    4      0.93      0.00
    1   -6    4     -0.22      0.00
    3   -6    4     -0.12      0.00
    4   -6    4      0.77      0.00
    5   -6    4      0.94      0.00
    6   -6    4      0.35      0.00
    7   -6    4     -0.28      0.00
    8   -6    4     -0.50      0.00
    9   -6    4     -0.21      0.00
   10   -6    4      0.40      0.00
   11   -6    4      0.52      0.00
  -12   -5    4     -0.79      0.00
  -11   -5    4     -0.32      0.00
  -10   -5    4     -0.56      0.00
   -9   -5    4      0.30      0.00
   -8   -5    4     -0.61      0.00
   -7   -5    4     -1.81      0.00
   -6   -5    4      0.73      0.00
   -5   -5    4      2.39      0.00
   -4   -5    4      1.38      0.00
   -3   -5    4      0.56      0.00
   -1   -5    4     -0.79      0.00
    0   -5    4     -1.94      0.00
    2   -5    4     -0.05      0.00
    3   -5    4      0.21      0.00
    4   -5    4      0.19      0.00
    5   -5    4      0.75      0.00
    6   -5    4      0.49      0.00
    7   -5    4     -0.28      0.00
    8   -5    4     -0.54      0.00
    9   -5    4     -0.55      0.00
   10   -5    4      0.00      0.00
   11   -5    4      0.58      0.00
   12   -5    4      0.34      0.00
  -12   -4    4     -1.26      0.00
  -11   -4    4     -0.87      0.00
  -10   -4    4     -0.91      0.00
   -9   -4    4      0.46      0.00
   -8   -4    4      1.28      0.00
   -7   -4    4     -1.82      0.00
   -6   -4    4     -2.63      0.00
   -5   -4    4     -0.16      0.00
   -4   -4    4      0.83      0.00
   -3   -4    4      1.82      0.00
   -2   -4    4      1.99      0.00
    2   -4    4     -0.51      0.00
    3   -4    4      1.24      0.00
    5   -4    4     -0.13      0.00
    6   -4    4      0.10      0.00
    7   -4    4     -0.26      0.00
    8   -4    4     -0.38      0.00
    9   -4    4     -0.39      0.00
   10   -4    4     -0.19      0.00
   11   -4    4      0.41      0.00
   12   -4    4      0.32      0.00
  -11   -3    4     -0.75      0.00
  -10   -3    4     -0.53      0.00
   -9   -3    4      0.29      0.00
   -8   -3    4      1.46      0.00
   -7   -3    4     -0.56      0.00
   -5   -3    4     -2.74      0.00
   -4   -3    4     -1.91      0.00
    3   -3    4      0.67      0.00
    4   -3    4      1.06      0.00
    5   -3    4     -0.40      0.00
    6   -3    4     -0.73      0.00
    7   -3    4     -0.35      0.00
    8   -3    4      0.02      0.00
    9   -3    4      0.02      0.00
   10   -3    4     -0.21      0.00
   11   -3    4     -0.02      0.00
   12   -3    4      0.15      0.00
  -11   -2    4     -0.49      0.00
  -10   -2    4      0.05      0.00
   -9   -2    4      1.19      0.00
   -8   -2    4      1.53      0.00
   -7   -2    4      0.08      0.00
   -6   -2    4     -2.46      0.00
   -5   -2    4     -3.50      0.00
   -4   -2    4     -3.96      0.00
   -2   -2    4      4.83      0.00
    1   -2    4     -3.04      0.00
    2   -2    4     -2.50      0.00
    3   -2    4     -1.43      0.00
    5   -2    4      0.30      0.00
    7   -2    4     -0.62      0.00
    8   -2    4      0.24      0.00
    9   -2    4      0.65      0.00
   10   -2    4      0.33      0.00
   11   -2    4     -0.15      0.00
   12   -2    4     -0.36      0.00
  -11   -1    4     -0.70      0.00
  -10   -1    4     -0.13      0.00
   -9   -1    4      1.51      0.00
   -8   -1    4      2.34      0.00
   -7   -1    4      1.11      0.00
   -6   -1    4     -1.32      0.00
   -4   -1    4     -3.58      0.00
   -3   -1    4     -2.26      0.00
   -1   -1    4      2.81      0.00
    0   -1    4     -1.92      0.00
    2   -1    4     -0.17      0.00
    4   -1    4     -1.01      0.00
    5   -1    4      0.28      0.00
    6   -1    4     -0.22      0.00
    7   -1    4     -0.37      0.00
    8   -1    4      0.09      0.00
    9   -1    4      0.73      0.00
   10   -1    4      1.01      0.00
   11   -1    4      0.49      0.00
  -13    0    4     -0.61      0.00
  -12    0    4     -0.67      0.00
  -11    0    4     -0.54      0.00
  -10    0    4     -0.16      0.00
   -9    0    4      0.58      0.00
   -8    0    4      1.77      0.00
   -7    0    4      1.86      0.00
   -6    0    4     -0.03      0.00
   -4    0    4     -2.71      0.00
   -2    0    4      0.15      0.00
    3    0    4      1.42      0.00
    5    0    4     -0.40      0.00
    6    0    4     -0.24      0.00
    7    0    4      0.08      0.00
    8    0    4      0.31      0.00
    9    0    4      0.21      0.00
   10    0    4      0.71      0.00
  -13    1    4     -0.70      0.00
  -12    1    4     -0.07      0.00
  -11    1    4      0.31      0.00
  -10    1    4      0.53      0.00
   -9    1    4      0.16      0.00
   -8    1    4      0.21      0.00
   -7    1    4      0.99      0.00
   -6    1    4      0.47      0.00
   -5    1    4     -2.21      0.00
   -4    1    4     -2.76      0.00
   -3    1    4      1.56      0.00
   -2    1    4      2.04      0.00
   -1    1    4     -4.87      0.00
    0    1    4     -8.81      0.00
    4    1    4      0.81      0.00
    5    1    4     -0.01      0.00
    6    1    4     -0.63      0.00
    8    1    4      0.56      0.00
  -13    2    4     -0.52      0.00
  -12    2    4      0.12      0.00
  -11    2    4      0.70      0.00
  -10    2    4      0.80      0.00
   -9    2    4      0.39      0.00
   -8    2    4     -0.29      0.00
   -7    2    4     -0.25      0.00
   -4    2    4     -1.68      0.00
   -3    2    4      0.98      0.00
    2    2    4      0.12      0.00
    3    2    4      1.91      0.00
    4    2    4      1.87      0.00
    5    2    4      1.13      0.00
    6    2    4     -0.30      0.00
    7    2    4     -0.99      0.00
    8    2    4     -0.04      0.00
  -13    3    4      0.32      0.00
  -12    3    4      0.51      0.00
  -11    3    4      0.47      0.00
  -10    3    4      0.29      0.00
   -9    3    4      0.28      0.00
   -8    3    4      0.13      0.00
   -6    3    4     -1.28      0.00
   -5    3    4     -1.30      0.00
   -4    3    4      0.49      0.00
   -3    3    4      2.44      0.00
   -1    3    4     -0.78      0.00
    1    3    4     -1.41      0.00
    2    3    4     -0.92      0.00
    3    3    4      0.02      0.00
    5    3    4      1.58      0.00
    7    3    4     -0.49      0.00
    8    3    4     -0.50      0.00
  -12    4    4      1.00      0.00
  -11    4    4      0.40      0.00
  -10    4    4     -0.15      0.00
   -9    4    4      0.01      0.00
   -8    4    4      0.61      0.00
   -7    4    4      0.03      0.00
   -5    4    4     -2.23      0.00
   -3    4    4      4.23      0.00
   -2    4    4      2.60      0.00
   -1    4    4     -1.64      0.00
    0    4    4     -1.94      0.00
    1    4    4     -0.38      0.00
    3    4    4     -0.82      0.00
    4    4    4      0.43      0.00
    5    4    4      0.95      0.00
    6    4    4      0.50      0.00
    7    4    4      0.54      0.00
    8    4    4      0.13      0.00
  -12    5    4      0.67      0.00
  -11    5    4      0.30      0.00
  -10    5    4     -0.26      0.00
   -9    5    4     -0.08      0.00
   -8    5    4      0.67      0.00
   -7    5    4      0.81      0.00
   -6    5    4     -1.19      0.00
   -5    5    4     -2.69      0.00
   -4    5    4     -0.79      0.00
   -2    5    4      2.93      0.00
    0    5    4     -2.54      0.00
    1    5    4     -0.75      0.00
    2    5    4      0.05      0.00
    3    5    4     -0.41      0.00
    5    5    4     -0.40      0.00
    6    5    4      0.12      0.00
    7    5    4      0.92      0.00
    8    5    4      0.83      0.00
    9    5    4     -0.03      0.00
  -12    6    4      0.07      0.00
  -11    6    4     -0.12      0.00
  -10    6    4     -0.25      0.00
   -9    6    4      0.01      0.00
   -8    6    4      0.25      0.00
   -7    6    4      0.77      0.00
   -6    6    4     -0.21      0.00
   -5    6    4     -2.11      0.00
   -4    6    4     -1.34      0.00
   -3    6    4      0.82      0.00
   -1    6    4     -0.55      0.00
    1    6    4     -0.95      0.00
    2    6    4      0.05      0.00
    3    6    4      0.24      0.00
    4    6    4     -0.45      0.00
    5    6    4     -1.13      0.00
    6    6    4     -0.62      0.00
    7    6    4      0.41      0.00
    8    6    4      0.71      0.00
    9    6    4      0.46      0.00
  -12    7    4     -0.02      0.00
  -11    7    4     -0.33      0.00
  -10    7    4     -0.05      0.00
   -9    7    4      0.37      0.00
   -8    7    4      0.02      0.00
   -7    7    4     -0.08      0.00
   -6    7    4      0.14      0.00
   -5    7    4     -0.91      0.00
   -4    7    4     -1.01      0.00
   -2    7    4      0.11      0.00
   -1    7    4     -0.96      0.00
    0    7    4     -1.12      0.00
    1    7    4     -0.73      0.00
    2    7    4     -0.30      0.00
    4    7    4      0.05      0.00
    5    7    4     -0.60      0.00
    6    7    4     -0.89      0.00
    7    7    4     -0.42      0.00
    8    7    4      0.13      0.00
    9    7    4      0.53      0.00
   10    7    4      0.75      0.00
  -11    8    4     -0.29      0.00
  -10    8    4      0.24      0.00
   -9    8    4      0.64      0.00
   -8    8    4      0.13      0.00
   -7    8    4     -0.57      0.00
   -6    8    4     -0.19      0.00
   -5    8    4      0.30      0.00
   -4    8    4     -0.11      0.00
   -3    8    4     -0.08      0.00
   -2    8    4     -0.15      0.00
   -1    8    4     -0.91      0.00
    0    8    4     -1.04      0.00
    1    8    4     -0.64      0.00
    2    8    4     -0.24      0.00
    3    8    4     -0.04      0.00
    4    8    4     -0.21      0.00
    5    8    4     -0.29      0.00
    6    8    4     -0.40      0.00
    7    8    4     -0.54      0.00
    8    8    4     -0.29      0.00
    9    8    4      0.26      0.00
   10    8    4      0.69      0.00
  -10    9    4      0.26      0.00
   -9    9    4      0.65      0.00
   -8    9    4      0.10      0.00
   -7    9    4     -0.41      0.00
   -6    9    4     -0.42      0.00
   -5    9    4      0.54      0.00
   -4    9    4      0.93      0.00
   -3    9    4     -0.21      0.00
   -2    9    4     -0.72      0.00
   -1    9    4     -0.55      0.00
    0    9    4     -0.71      0.00
    1    9    4     -0.76      0.00
    2    9    4     -0.27      0.00
    3    9    4      0.31      0.00
    4    9    4     -0.11      0.00
    5    9    4     -0.58      0.00
    6    9    4     -0.11      0.00
    7    9    4      0.10      0.00
    8    9    4     -0.19      0.00
    9    9    4     -0.20      0.00
   -9   10    4      0.67      0.00
   -8   10    4      0.23      0.00
   -7   10    4     -0.14      0.00
   -6   10    4     -0.19      0.00
   -5   10    4      0.01      0.00
   -4   10    4      0.76      0.00
   -3   10    4      0.19      0.00
   -2   10    4     -0.68      0.00
   -1   10    4     -0.26      0.00
    0   10    4     -0.37      0.00
    1   10    4     -0.88      0.00
    2   10    4     -0.70      0.00
    3   10    4      0.02      0.00
    4   10    4      0.38      0.00
    5   10    4     -0.15      0.00
    6   10    4     -0.18      0.00
    7   10    4      0.34      0.00
    8   10    4      0.15      0.00
   -8   11    4      0.67      0.00
   -7   11    4      0.10      0.00
   -6   11    4      0.08      0.00
   -5   11    4      0.05      0.00
   -4   11    4      0.07      0.00
   -3   11    4      0.06      0.00
   -2   11    4     -0.21      0.00
   -1   11    4      0.01      0.00
    0   11    4     -0.39      0.00
    1   11    4     -0.99      0.00
    2   11    4     -0.60      0.00
    3   11    4     -0.46      0.00
    4   11    4     -0.15      0.00
    5   11    4      0.33      0.00
    6   11    4      0.04      0.00
    7   11    4     -0.06      0.00
    8   11    4      0.06      0.00
   -8   12    4      0.68      0.00
   -7   12    4      0.30      0.00
   -6   12    4      0.13      0.00
   -5   12    4      0.52      0.00
   -4   12    4      0.30      0.00
   -3   12    4     -0.25      0.00
   -2   12    4     -0.33      0.00
   -1   12    4     -0.09      0.00
    0   12    4     -0.53      0.00
    1   12    4     -1.11      0.00
    2   12    4     -0.24      0.00
    3   12    4     -0.01      0.00
    4   12    4     -0.91      0.00
    5   12    4     -0.39      0.00
    6   12    4      0.21      0.00
   -6   13    4      0.22      0.00
   -5   13    4      0.67      0.00
   -4   13    4      0.63      0.00
   -3   13    4     -0.29      0.00
   -2   13    4     -0.61      0.00
   -1   13    4     -0.31      0.00
    0   13    4     -0.43      0.00
    1   13    4     -0.86      0.00
    2   13    4     -0.37      0.00
    3   13    4      0.28      0.00
    4   13    4     -0.64      0.00
    5   13    4     -1.06      0.00
   -3   14    4     -0.46      0.00
   -2   14    4     -0.69      0.00
   -1   14    4     -0.14      0.00
    0   14    4     -0.17      0.00
    1   14    4     -0.44      0.00
    2   14    4     -0.41      0.00
   -2  -14    5     -0.12      0.00
   -1  -14    5     -0.24      0.00
    0  -14    5     -0.13      0.00
    1  -14    5     -0.19      0.00
    2  -14    5     -0.24      0.00
   -6  -13    5      0.48      0.00
   -5  -13    5     -0.12      0.00
   -4  -13    5     -0.04      0.00
   -3  -13    5      0.39      0.00
   -2  -13    5      0.07      0.00
   -1  -13    5     -0.22      0.00
    0  -13    5     -0.01      0.00
    1  -13    5     -0.01      0.00
    2  -13    5     -0.15      0.00
    3  -13    5      0.19      0.00
    4  -13    5      0.17      0.00
    5  -13    5     -0.20      0.00
   -7  -12    5      0.07      0.00
   -6  -12    5      1.07      0.00
   -5  -12    5      0.69      0.00
   -4  -12    5     -0.19      0.00
   -3  -12    5      0.31      0.00
   -2  -12    5      0.61      0.00
   -1  -12    5      0.03      0.00
    0  -12    5     -0.13      0.00
    1  -12    5      0.15      0.00
    2  -12    5      0.12      0.00
    3  -12    5      0.26      0.00
    4  -12    5      0.47      0.00
    5  -12    5      0.04      0.00
    6  -12    5     -0.17      0.00
    7  -12    5     -0.19      0.00
   -8  -11    5     -0.18      0.00
   -7  -11    5     -0.13      0.00
   -6  -11    5      0.41      0.00
   -5  -11    5      0.60      0.00
   -4  -11    5     -0.09      0.00
   -3  -11    5      0.22      0.00
   -2  -11    5      1.10      0.00
   -1  -11    5      0.78      0.00
    0  -11    5     -0.14      0.00
    1  -11    5     -0.28      0.00
    2  -11    5      0.11      0.00
    3  -11    5      0.16      0.00
    4  -11    5      0.27      0.00
    5  -11    5      0.23      0.00
    6  -11    5     -0.19      0.00
    7  -11    5     -0.49      0.00
    8  -11    5     -0.57      0.00
   -9  -10    5     -0.25      0.00
   -8  -10    5      0.06      0.00
   -7  -10    5      0.38      0.00
   -6  -10    5     -0.10      0.00
   -5  -10    5     -0.62      0.00
   -4  -10    5     -0.54      0.00
   -3  -10    5      0.24      0.00
   -2  -10    5      1.02      0.00
   -1  -10    5      0.94      0.00
    0  -10    5      0.02      0.00
    1  -10    5     -0.71      0.00
    2  -10    5     -0.31      0.00
    3  -10    5      0.18      0.00
    4  -10    5      0.15      0.00
    5  -10    5      0.17      0.00
    6  -10    5     -0.10      0.00
    7  -10    5     -0.60      0.00
    8  -10    5     -0.75      0.00
    9  -10    5     -0.40      0.00
  -10   -9    5     -0.53      0.00
   -9   -9    5     -0.16      0.00
   -8   -9    5      0.52      0.00
   -7   -9    5      0.75      0.00
   -6   -9    5     -0.08      0.00
   -5   -9    5     -1.35      0.00
   -4   -9    5     -1.39      0.00
   -3   -9    5      0.05      0.00
   -2   -9    5      0.94      0.00
   -1   -9    5      0.51      0.00
    0   -9    5     -0.30      0.00
    1   -9    5     -0.85      0.00
    2   -9    5     -0.53      0.00
    3   -9    5      0.29      0.00
    4   -9    5      0.46      0.00
    5   -9    5      0.12      0.00
    6   -9    5     -0.25      0.00
    7   -9    5     -0.45      0.00
    8   -9    5     -0.29      0.00
    9   -9    5     -0.16      0.00
  -11   -8    5     -0.73      0.00
  -10   -8    5     -1.20      0.00
   -9   -8    5     -0.83      0.00
   -8   -8    5      0.81      0.00
   -7   -8    5      1.50      0.00
   -6   -8    5      0.32      0.00
   -5   -8    5     -1.21      0.00
   -4   -8    5     -1.97      0.00
   -3   -8    5     -0.84      0.00
   -1   -8    5      0.87      0.00
    0   -8    5     -0.31      0.00
    1   -8    5     -0.98      0.00
    2   -8    5     -0.53      0.00
    3   -8    5      0.34      0.00
    4   -8    5      0.69      0.00
    5   -8    5      0.32      0.00
    6   -8    5     -0.32      0.00
    7   -8    5     -0.49      0.00
    8   -8    5      0.07      0.00
    9   -8    5      0.43      0.00
   10   -8    5      0.07      0.00
  -11   -7    5     -0.50      0.00
  -10   -7    5     -1.06      0.00
   -9   -7    5     -1.62      0.00
   -8   -7    5     -0.53      0.00
   -7   -7    5      1.81      0.00
   -6   -7    5      1.57      0.00
   -5   -7    5     -0.29      0.00
   -4   -7    5     -1.62      0.00
   -3   -7    5     -1.50      0.00
   -2   -7    5      0.23      0.00
    0   -7    5      0.25      0.00
    1   -7    5     -0.69      0.00
    2   -7    5     -0.48      0.00
    3   -7    5      0.28      0.00
    4   -7    5      0.63      0.00
    5   -7    5      0.51      0.00
    6   -7    5      0.01      0.00
    7   -7    5     -0.44      0.00
    8   -7    5     -0.33      0.00
    9   -7    5      0.21      0.00
   10   -7    5      0.38      0.00
  -12   -6    5      0.00      0.00
  -11   -6    5     -0.68      0.00
  -10   -6    5     -0.66      0.00
   -9   -6    5     -0.75      0.00
   -8   -6    5     -2.05      0.00
   -7   -6    5     -0.54      0.00
   -6   -6    5      1.55      0.00
   -5   -6    5      0.86      0.00
   -4   -6    5     -0.20      0.00
   -3   -6    5     -0.41      0.00
    0   -6    5     -0.59      0.00
    1   -6    5     -0.44      0.00
    2   -6    5      0.20      0.00
    3   -6    5      0.45      0.00
    5   -6    5      0.44      0.00
    6   -6    5      0.17      0.00
    7   -6    5     -0.22      0.00
    8   -6    5     -0.63      0.00
    9   -6    5     -0.56      0.00
   10   -6    5      0.19      0.00
   11   -6    5      0.47      0.00
  -12   -5    5     -0.69      0.00
  -11   -5    5     -1.09      0.00
  -10   -5    5     -0.98      0.00
   -9   -5    5      0.70      0.00
   -8   -5    5     -0.99      0.00
   -7   -5    5     -3.28      0.00
   -6   -5    5     -1.33      0.00
   -5   -5    5      0.39      0.00
   -4   -5    5      0.86      0.00
   -2   -5    5      1.21      0.00
   -1   -5    5     -0.68      0.00
    0   -5    5     -2.33      0.00
    1   -5    5     -1.33      0.00
    2   -5    5      1.02      0.00
    3   -5    5      1.27      0.00
    4   -5    5      0.32      0.00
    5   -5    5      0.04      0.00
    6   -5    5     -0.18      0.00
    7   -5    5     -0.37      0.00
    8   -5    5     -0.48      0.00
    9   -5    5     -0.69      0.00
   10   -5    5     -0.09      0.00
   11   -5    5      0.47      0.00
  -12   -4    5     -0.81      0.00
  -11   -4    5     -0.98      0.00
  -10   -4    5     -1.10      0.00
   -9   -4    5      0.75      0.00
   -8   -4    5      0.85      0.00
   -7   -4    5     -3.06      0.00
   -6   -4    5     -3.94      0.00
   -4   -4    5      0.14      0.00
   -1   -4    5      0.28      0.00
    0   -4    5     -2.27      0.00
    1   -4    5     -2.23      0.00
    5   -4    5     -0.55      0.00
    6   -4    5     -0.75      0.00
    7   -4    5     -0.68      0.00
    8   -4    5     -0.32      0.00
    9   -4    5     -0.32      0.00
   10   -4    5     -0.17      0.00
   11   -4    5      0.31      0.00
   12   -4    5      0.10      0.00
  -12   -3    5     -0.25      0.00
  -11   -3    5     -0.48      0.00
  -10   -3    5     -0.16      0.00
   -9   -3    5      0.84      0.00
   -8   -3    5      1.30      0.00
   -7   -3    5     -1.43      0.00
   -6   -3    5     -3.96      0.00
   -5   -3    5     -3.17      0.00
   -4   -3    5     -1.52      0.00
   -3   -3    5      2.08      0.00
   -2   -3    5      4.72      0.00
   -1   -3    5      1.96      0.00
    0   -3    5     -0.77      0.00
    1   -3    5     -1.33      0.00
    2   -3    5     -1.04      0.00
    3   -3    5      0.66      0.00
    4   -3    5      0.90      0.00
    5   -3    5     -0.57      0.00
    6   -3    5     -1.15      0.00
    8   -3    5     -0.06      0.00
    9   -3    5      0.15      0.00
   10   -3    5     -0.09      0.00
   11   -3    5     -0.06      0.00
   12   -3    5      0.02      0.00
  -12   -2    5     -0.18      0.00
  -11   -2    5     -0.39      0.00
  -10   -2    5      0.32      0.00
   -9   -2    5      1.83      0.00
   -8   -2    5      2.03      0.00
   -7   -2    5      0.01      0.00
   -6   -2    5     -2.81      0.00
   -4   -2    5     -2.01      0.00
   -2   -2    5      4.01      0.00
    0   -2    5     -0.80      0.00
    4   -2    5      0.13      0.00
    5   -2    5     -0.13      0.00
    6   -2    5     -0.88      0.00
    7   -2    5     -0.65      0.00
    8   -2    5      0.10      0.00
    9   -2    5      0.63      0.00
   10   -2    5      0.41      0.00
   11   -2    5     -0.09      0.00
   12   -2    5     -0.27      0.00
  -12   -1    5     -0.57      0.00
  -11   -1    5     -0.57      0.00
  -10   -1    5     -0.20      0.00
   -9   -1    5      1.54      0.00
   -8   -1    5      2.83      0.00
   -7   -1    5      1.70      0.00
   -6   -1    5     -1.35      0.00
   -5   -1    5     -3.18      0.00
   -4   -1    5     -1.10      0.00
   -2   -1    5      1.31      0.00
   -1   -1    5     -2.11      0.00
    3   -1    5     -0.39      0.00
    4   -1    5     -0.93      0.00
    6   -1    5     -0.42      0.00
    7   -1    5     -0.04      0.00
    8   -1    5      0.07      0.00
    9   -1    5      0.49      0.00
   10   -1    5      0.78      0.00
   11   -1    5      0.40      0.00
  -13    0    5     -0.25      0.00
  -12    0    5     -0.33      0.00
  -11    0    5     -0.19      0.00
  -10    0    5     -0.10      0.00
   -9    0    5      0.22      0.00
   -8    0    5      1.61      0.00
   -7    0    5      2.20      0.00
   -3    0    5      3.21      0.00
   -2    0    5      0.64      0.00
   -1    0    5     -5.77      0.00
    4    0    5     -0.17      0.00
    5    0    5     -0.82      0.00
    6    0    5     -0.79      0.00
    8    0    5      0.41      0.00
    9    0    5     -0.09      0.00
   10    0    5      0.29      0.00
  -13    1    5     -0.30      0.00
  -12    1    5      0.24      0.00
  -11    1    5      0.45      0.00
  -10    1    5      0.63      0.00
   -9    1    5      0.03      0.00
   -8    1    5     -0.14      0.00
   -7    1    5      0.67      0.00
   -6    1    5      0.43      0.00
   -5    1    5     -1.33      0.00
   -4    1    5     -0.76      0.00
   -3    1    5      2.95      0.00
   -1    1    5     -4.39      0.00
    0    1    5     -6.46      0.00
    1    1    5     -2.38      0.00
    2    1    5      2.03      0.00
    3    1    5      2.82      0.00
    4    1    5      1.62      0.00
    5    1    5      0.08      0.00
    6    1    5     -1.22      0.00
    7    1    5     -0.26      0.00
    8    1    5      0.56      0.00
    9    1    5     -0.24      0.00
  -13    2    5     -0.02      0.00
  -12    2    5      0.49      0.00
  -11    2    5      0.59      0.00
  -10    2    5      0.57      0.00
   -9    2    5      0.41      0.00
   -7    2    5     -0.79      0.00
   -5    2    5     -0.33      0.00
   -4    2    5      0.90      0.00
    1    2    5     -1.24      0.00
    3    2    5      1.29      0.00
    6    2    5     -0.48      0.00
    7    2    5     -0.88      0.00
    8    2    5     -0.19      0.00
  -13    3    5      0.73      0.00
  -12    3    5      0.83      0.00
  -11    3    5      0.46      0.00
  -10    3    5      0.00      0.00
   -9    3    5      0.17      0.00
   -8    3    5      0.30      0.00
   -7    3    5     -0.83      0.00
   -5    3    5     -0.93      0.00
   -4    3    5      2.61      0.00
   -3    3    5      3.79      0.00
   -2    3    5      0.45      0.00
   -1    3    5     -1.87      0.00
    0    3    5     -0.63      0.00
    1    3    5      0.36      0.00
    2    3    5     -0.32      0.00
    3    3    5      0.08      0.00
    6    3    5      0.49      0.00
    7    3    5     -0.14      0.00
    8    3    5     -0.64      0.00
  -12    4    5      1.02      0.00
  -11    4    5      0.42      0.00
  -10    4    5     -0.16      0.00
   -9    4    5     -0.14      0.00
   -8    4    5      0.64      0.00
   -7    4    5      0.04      0.00
   -6    4    5     -2.09      0.00
   -5    4    5     -2.22      0.00
   -4    4    5      1.43      0.00
   -1    4    5     -2.60      0.00
    1    4    5      0.59      0.00
    2    4    5      0.36      0.00
    3    4    5     -0.17      0.00
    4    4    5      0.10      0.00
    5    4    5      0.21      0.00
    7    4    5      0.83      0.00
    8    4    5     -0.05      0.00
  -12    5    5      0.46      0.00
  -11    5    5      0.19      0.00
  -10    5    5     -0.06      0.00
   -9    5    5     -0.14      0.00
   -8    5    5      0.43      0.00
   -7    5    5      0.77      0.00
   -6    5    5     -1.09      0.00
   -5    5    5     -2.34      0.00
   -4    5    5     -0.57      0.00
   -3    5    5      2.00      0.00
   -2    5    5      1.47      0.00
   -1    5    5     -1.49      0.00
    0    5    5     -1.78      0.00
    2    5    5      0.78      0.00
    4    5    5     -0.89      0.00
    5    5    5     -1.07      0.00
    6    5    5     -0.14      0.00
    7    5    5      0.75      0.00
    8    5    5      0.40      0.00
    9    5    5     -0.22      0.00
  -12    6    5     -0.13      0.00
  -11    6    5     -0.16      0.00
  -10    6    5      0.08      0.00
   -9    6    5      0.12      0.00
   -8    6    5     -0.11      0.00
   -7    6    5      0.44      0.00
   -6    6    5     -0.12      0.00
   -5    6    5     -1.41      0.00
   -4    6    5     -0.83      0.00
   -2    6    5     -0.23      0.00
   -1    6    5     -0.82      0.00
    0    6    5     -0.90      0.00
    1    6    5     -0.26      0.00
    2    6    5      0.39      0.00
    3    6    5      0.40      0.00
    4    6    5     -0.66      0.00
    5    6    5     -1.45      0.00
    6    6    5     -0.79      0.00
    7    6    5      0.05      0.00
    8    6    5      0.17      0.00
    9    6    5      0.21      0.00
  -12    7    5     -0.15      0.00
  -11    7    5     -0.20      0.00
  -10    7    5      0.35      0.00
   -9    7    5      0.51      0.00
   -8    7    5     -0.30      0.00
   -7    7    5     -0.54      0.00
   -6    7    5      0.05      0.00
   -5    7    5     -0.22      0.00
   -4    7    5     -0.27      0.00
   -3    7    5     -0.13      0.00
   -2    7    5     -0.87      0.00
    0    7    5     -0.50      0.00
    2    7    5     -0.16      0.00
    3    7    5      0.12      0.00
    4    7    5     -0.16      0.00
    5    7    5     -0.82      0.00
    6    7    5     -0.88      0.00
    7    7    5     -0.44      0.00
    8    7    5     -0.11      0.00
    9    7    5      0.26      0.00
   10    7    5      0.48      0.00
  -11    8    5     -0.08      0.00
  -10    8    5      0.55      0.00
   -9    8    5      0.57      0.00
   -8    8    5     -0.21      0.00
   -7    8    5     -0.92      0.00
   -6    8    5     -0.34      0.00
   -5    8    5      0.74      0.00
   -4    8    5      0.44      0.00
   -3    8    5     -0.36      0.00
   -2    8    5     -0.73      0.00
   -1    8    5     -0.75      0.00
    0    8    5     -0.46      0.00
    1    8    5     -0.27      0.00
    2    8    5     -0.03      0.00
    3    8    5      0.04      0.00
    4    8    5     -0.30      0.00
    5    8    5     -0.42      0.00
    6    8    5     -0.33      0.00
    7    8    5     -0.23      0.00
    8    8    5     -0.09      0.00
    9    8    5      0.14      0.00
   10    8    5      0.42      0.00
  -10    9    5      0.47      0.00
   -9    9    5      0.42      0.00
   -8    9    5     -0.28      0.00
   -7    9    5     -0.60      0.00
   -6    9    5     -0.50      0.00
   -5    9    5      0.66      0.00
   -4    9    5      1.02      0.00
   -3    9    5     -0.45      0.00
   -2    9    5     -0.80      0.00
   -1    9    5     -0.15      0.00
    0    9    5     -0.23      0.00
    1    9    5     -0.41      0.00
    2    9    5      0.02      0.00
    3    9    5      0.42      0.00
    4    9    5     -0.08      0.00
    5    9    5     -0.39      0.00
    6    9    5      0.12      0.00
    7    9    5      0.38      0.00
    8    9    5      0.12      0.00
    9    9    5     -0.12      0.00
   -9   10    5      0.53      0.00
   -8   10    5     -0.09      0.00
   -7   10    5     -0.26      0.00
   -6   10    5     -0.14      0.00
   -5   10    5      0.07      0.00
   -4   10    5      0.58      0.00
   -3   10    5     -0.11      0.00
   -2   10    5     -0.53      0.00
   -1   10    5      0.18      0.00
    0   10    5     -0.10      0.00
    1   10    5     -0.58      0.00
    2   10    5     -0.29      0.00
    3   10    5      0.20      0.00
    4   10    5      0.45      0.00
    5   10    5      0.18      0.00
    6   10    5      0.19      0.00
    7   10    5      0.47      0.00
    8   10    5      0.27      0.00
   -8   11    5      0.38      0.00
   -7   11    5     -0.07      0.00
   -6   11    5      0.18      0.00
   -5   11    5      0.23      0.00
   -4   11    5     -0.01      0.00
   -3   11    5     -0.19      0.00
   -2   11    5     -0.22      0.00
   -1   11    5      0.06      0.00
    0   11    5     -0.41      0.00
    1   11    5     -0.59      0.00
    2   11    5      0.04      0.00
    3   11    5     -0.14      0.00
    4   11    5     -0.01      0.00
    5   11    5      0.60      0.00
    6   11    5      0.29      0.00
    7   11    5     -0.03      0.00
   -7   12    5      0.05      0.00
   -6   12    5      0.18      0.00
   -5   12    5      0.64      0.00
   -4   12    5      0.16      0.00
   -3   12    5     -0.44      0.00
   -2   12    5     -0.34      0.00
   -1   12    5     -0.24      0.00
    0   12    5     -0.73      0.00
    1   12    5     -0.66      0.00
    2   12    5      0.53      0.00
    3   12    5      0.32      0.00
    4   12    5     -0.71      0.00
    5   12    5     -0.04      0.00
    6   12    5      0.36      0.00
   -6   13    5      0.19      0.00
   -5   13    5      0.58      0.00
   -4   13    5      0.22      0.00
   -3   13    5     -0.64      0.00
   -2   13    5     -0.53      0.00
   -1   13    5     -0.22      0.00
    0   13    5     -0.50      0.00
    1   13    5     -0.55      0.00
    2   13    5      0.23      0.00
    3   13    5      0.56      0.00
    4   13    5     -0.43      0.00
   -2   14    5     -0.61      0.00
   -1   14    5      0.06      0.00
    0   14    5     -0.10      0.00
    1   14    5     -0.26      0.00
    2   14    5     -0.06      0.00
   -2  -14    6     -0.10      0.00
   -1  -14    6     -0.25      0.00
    0  -14    6     -0.09      0.00
    1  -14    6     -0.10      0.00
    2  -14    6     -0.06      0.00
   -5  -13    6      0.02      0.00
   -4  -13    6     -0.15      0.00
   -3  -13    6      0.38      0.00
   -2  -13    6      0.12      0.00
   -1  -13    6     -0.20      0.00
    0  -13    6      0.08      0.00
    1  -13    6      0.17      0.00
    2  -13    6      0.16      0.00
    3  -13    6      0.44      0.00
    4  -13    6      0.18      0.00
    5  -13    6     -0.15      0.00
   -7  -12    6     -0.11      0.00
   -6  -12    6      1.14      0.00
   -5  -12    6      0.86      0.00
   -4  -12    6      0.01      0.00
   -3  -12    6      0.46      0.00
   -2  -12    6      0.66      0.00
   -1  -12    6      0.04      0.00
    0  -12    6     -0.03      0.00
    1  -12    6      0.35      0.00
    2  -12    6      0.36      0.00
    3  -12    6      0.44      0.00
    4  -12    6      0.41      0.00
    5  -12    6     -0.14      0.00
    6  -12    6     -0.27      0.00
   -8  -11    6     -0.11      0.00
   -7  -11    6     -0.18      0.00
   -6  -11    6      0.17      0.00
   -5  -11    6      0.48      0.00
   -4  -11    6      0.28      0.00
   -3  -11    6      0.60      0.00
   -2  -11    6      1.02      0.00
   -1  -11    6      0.46      0.00
    0  -11    6     -0.30      0.00
    1  -11    6     -0.11      0.00
    2  -11    6      0.30      0.00
    3  -11    6      0.16      0.00
    4  -11    6      0.19      0.00
    5  -11    6      0.01      0.00
    6  -11    6     -0.50      0.00
    7  -11    6     -0.68      0.00
   -9  -10    6     -0.08      0.00
   -8  -10    6      0.45      0.00
   -7  -10    6      0.46      0.00
   -6  -10    6     -0.36      0.00
   -5  -10    6     -0.69      0.00
   -4  -10    6     -0.01      0.00
   -3  -10    6      0.71      0.00
   -2  -10    6      0.69      0.00
   -1  -10    6      0.19      0.00
    0  -10    6     -0.54      0.00
    1  -10    6     -0.75      0.00
    2  -10    6     -0.09      0.00
    3  -10    6      0.14      0.00
    4  -10    6     -0.03      0.00
    5  -10    6     -0.04      0.00
    6  -10    6     -0.44      0.00
    7  -10    6     -0.79      0.00
    8  -10    6     -0.64      0.00
  -10   -9    6     -0.77      0.00
   -9   -9    6     -0.01      0.00
   -8   -9    6      0.96      0.00
   -7   -9    6      0.79      0.00
   -6   -9    6     -0.25      0.00
   -5   -9    6     -1.04      0.00
   -4   -9    6     -0.56      0.00
   -3   -9    6      0.51      0.00
   -2   -9    6      0.35      0.00
   -1   -9    6     -0.53      0.00
    0   -9    6     -0.98      0.00
    1   -9    6     -1.04      0.00
    2   -9    6     -0.46      0.00
    3   -9    6      0.20      0.00
    4   -9    6      0.11      0.00
    5   -9    6     -0.23      0.00
    6   -9    6     -0.51      0.00
    7   -9    6     -0.48      0.00
    8   -9    6     -0.10      0.00
    9   -9    6     -0.06      0.00
  -11   -8    6     -0.70      0.00
  -10   -8    6     -1.21      0.00
   -9   -8    6     -0.76      0.00
   -8   -8    6      1.04      0.00
   -7   -8    6      1.36      0.00
   -6   -8    6      0.08      0.00
   -5   -8    6     -0.71      0.00
   -4   -8    6     -0.87      0.00
   -3   -8    6     -0.20      0.00
   -2   -8    6      0.26      0.00
   -1   -8    6     -0.43      0.00
    0   -8    6     -1.09      0.00
    1   -8    6     -1.03      0.00
    3   -8    6      0.06      0.00
    4   -8    6      0.24      0.00
    5   -8    6     -0.07      0.00
    6   -8    6     -0.46      0.00
    7   -8    6     -0.37      0.00
    8   -8    6      0.19      0.00
    9   -8    6      0.32      0.00
   10   -8    6     -0.02      0.00
  -11   -7    6     -0.76      0.00
  -10   -7    6     -0.75      0.00
   -9   -7    6     -1.34      0.00
   -8   -7    6     -0.55      0.00
   -7   -7    6      1.25      0.00
   -6   -7    6      0.79      0.00
   -5   -7    6     -0.15      0.00
   -4   -7    6     -0.45      0.00
   -3   -7    6     -0.43      0.00
   -1   -7    6     -0.27      0.00
    0   -7    6     -0.92      0.00
    1   -7    6     -0.66      0.00
    2   -7    6     -0.02      0.00
    3   -7    6      0.16      0.00
    4   -7    6      0.12      0.00
    5   -7    6      0.14      0.00
    6   -7    6      0.00      0.00
    7   -7    6     -0.23      0.00
    8   -7    6     -0.28      0.00
    9   -7    6      0.00      0.00
   10   -7    6      0.19      0.00
  -12   -6    6     -0.42      0.00
  -11   -6    6     -1.45      0.00
  -10   -6    6     -0.39      0.00
   -9   -6    6     -0.09      0.00
   -8   -6    6     -2.06      0.00
   -7   -6    6     -1.35      0.00
   -6   -6    6      0.17      0.00
   -5   -6    6      0.17      0.00
   -4   -6    6      0.62      0.00
   -3   -6    6      0.95      0.00
   -2   -6    6      0.54      0.00
   -1   -6    6     -0.70      0.00
    1   -6    6     -0.44      0.00
    4   -6    6      0.11      0.00
    5   -6    6     -0.08      0.00
    6   -6    6      0.04      0.00
    7   -6    6      0.02      0.00
    8   -6    6     -0.45      0.00
    9   -6    6     -0.55      0.00
   10   -6    6      0.13      0.00
   11   -6    6      0.31      0.00
  -12   -5    6     -0.59      0.00
  -11   -5    6     -1.66      0.00
  -10   -5    6     -0.88      0.00
   -9   -5    6      1.35      0.00
   -8   -5    6     -0.98      0.00
   -7   -5    6     -3.78      0.00
   -6   -5    6     -2.38      0.00
   -5   -5    6     -0.66      0.00
   -4   -5    6      1.09      0.00
    0   -5    6     -2.08      0.00
    1   -5    6     -0.93      0.00
    3   -5    6      1.82      0.00
    5   -5    6     -0.48      0.00
    6   -5    6     -0.60      0.00
    7   -5    6     -0.27      0.00
    8   -5    6     -0.15      0.00
    9   -5    6     -0.39      0.00
   10   -5    6      0.07      0.00
   11   -5    6      0.31      0.00
  -12   -4    6     -0.33      0.00
  -11   -4    6     -0.80      0.00
  -10   -4    6     -0.65      0.00
   -9   -4    6      1.32      0.00
   -8   -4    6      0.72      0.00
   -7   -4    6     -3.26      0.00
   -6   -4    6     -4.02      0.00
   -5   -4    6     -2.03      0.00
   -4   -4    6      0.44      0.00
   -3   -4    6      3.46      0.00
   -2   -4    6      3.52      0.00
    0   -4    6     -0.54      0.00
    1   -4    6     -0.92      0.00
    4   -4    6      0.54      0.00
    5   -4    6     -0.67      0.00
    6   -4    6     -1.06      0.00
    7   -4    6     -0.75      0.00
    8   -4    6     -0.03      0.00
    9   -4    6      0.06      0.00
   10   -4    6      0.09      0.00
   11   -4    6      0.23      0.00
  -12   -3    6      0.07      0.00
  -11   -3    6     -0.10      0.00
  -10   -3    6      0.58      0.00
   -9   -3    6      1.63      0.00
   -8   -3    6      1.43      0.00
   -7   -3    6     -1.48      0.00
   -4   -3    6     -0.14      0.00
   -2   -3    6      3.70      0.00
   -1   -3    6      1.46      0.00
    1   -3    6      0.91      0.00
    4   -3    6      0.42      0.00
    5   -3    6     -0.54      0.00
    6   -3    6     -0.94      0.00
    7   -3    6     -0.74      0.00
    8   -3    6      0.03      0.00
    9   -3    6      0.37      0.00
   10   -3    6      0.12      0.00
   11   -3    6      0.03      0.00
   12   -3    6      0.04      0.00
  -12   -2    6     -0.01      0.00
  -11   -2    6     -0.32      0.00
  -10   -2    6      0.64      0.00
   -9   -2    6      2.41      0.00
   -8   -2    6      2.52      0.00
   -7   -2    6      0.28      0.00
   -6   -2    6     -2.59      0.00
   -5   -2    6     -2.46      0.00
   -4   -2    6      0.39      0.00
   -3   -2    6      2.75      0.00
    3   -2    6     -0.89      0.00
    4   -2    6     -0.38      0.00
    6   -2    6     -0.49      0.00
    7   -2    6     -0.32      0.00
    8   -2    6      0.03      0.00
    9   -2    6      0.51      0.00
   10   -2    6      0.38      0.00
   11   -2    6      0.09      0.00
   12   -2    6      0.04      0.00
  -13   -1    6     -0.13      0.00
  -11   -1    6     -0.43      0.00
  -10   -1    6     -0.28      0.00
   -9   -1    6      1.40      0.00
   -8   -1    6      2.92      0.00
   -7   -1    6      1.94      0.00
   -5   -1    6     -2.29      0.00
   -4   -1    6      1.23      0.00
   -3   -1    6      3.44      0.00
   -2   -1    6      0.03      0.00
   -1   -1    6     -4.65      0.00
    0   -1    6     -3.35      0.00
    2   -1    6      3.36      0.00
    3   -1    6      0.26      0.00
    4   -1    6     -0.85      0.00
    5   -1    6     -1.14      0.00
    6   -1    6     -0.38      0.00
    7   -1    6      0.34      0.00
    8   -1    6     -0.07      0.00
    9   -1    6      0.12      0.00
   10   -1    6      0.40      0.00
   11   -1    6      0.33      0.00
  -13    0    6      0.12      0.00
  -12    0    6     -0.15      0.00
  -11    0    6      0.04      0.00
  -10    0    6     -0.03      0.00
   -9    0    6     -0.11      0.00
   -8    0    6      1.09      0.00
   -7    0    6      1.77      0.00
   -6    0    6      0.25      0.00
   -5    0    6     -1.41      0.00
   -3    0    6      3.88      0.00
   -1    0    6     -5.55      0.00
    1    0    6     -0.03      0.00
    5    0    6     -1.36      0.00
    6    0    6     -1.08      0.00
    7    0    6      0.57      0.00
    8    0    6      0.14      0.00
    9    0    6     -0.43      0.00
   10    0    6     -0.08      0.00
  -13    1    6      0.15      0.00
  -12    1    6      0.34      0.00
  -11    1    6      0.31      0.00
  -10    1    6      0.58      0.00
   -9    1    6     -0.01      0.00
   -8    1    6     -0.56      0.00
   -7    1    6     -0.24      0.00
   -6    1    6      0.11      0.00
   -5    1    6      0.24      0.00
   -4    1    6      1.28      0.00
   -3    1    6      2.58      0.00
   -2    1    6      0.55      0.00
   -1    1    6     -2.89      0.00
    1    1    6     -1.27      0.00
    2    1    6      0.54      0.00
    4    1    6      1.70      0.00
    5    1    6     -0.16      0.00
    6    1    6     -1.41      0.00
    7    1    6     -0.20      0.00
    8    1    6      0.12      0.00
    9    1    6     -0.54      0.00
  -13    2    6      0.41      0.00
  -11    2    6      0.28      0.00
  -10    2    6      0.13      0.00
   -9    2    6      0.32      0.00
   -8    2    6     -0.38      0.00
   -7    2    6     -1.49      0.00
   -6    2    6     -1.37      0.00
   -5    2    6      0.92      0.00
   -1    2    6     -1.44      0.00
    1    2    6     -0.19      0.00
    2    2    6     -0.78      0.00
    3    2    6      0.43      0.00
    5    2    6      1.04      0.00
    6    2    6     -0.37      0.00
    7    2    6     -0.69      0.00
    8    2    6     -0.57      0.00
  -13    3    6      0.84      0.00
  -12    3    6      0.79      0.00
  -11    3    6      0.35      0.00
  -10    3    6     -0.33      0.00
   -9    3    6     -0.12      0.00
   -8    3    6      0.25      0.00
   -7    3    6     -1.05      0.00
   -6    3    6     -2.31      0.00
   -5    3    6     -0.32      0.00
   -4    3    6      3.86      0.00
   -3    3    6      3.71      0.00
   -2    3    6     -1.10      0.00
   -1    3    6     -2.60      0.00
    0    3    6     -0.03      0.00
    2    3    6     -0.07      0.00
    3    3    6     -0.06      0.00
    4    3    6      0.58      0.00
    5    3    6      0.67      0.00
    6    3    6      0.67      0.00
    7    3    6      0.10      0.00
    8    3    6     -0.84      0.00
  -12    4    6      0.58      0.00
  -11    4    6      0.26      0.00
  -10    4    6     -0.13      0.00
   -9    4    6     -0.36      0.00
   -8    4    6      0.42      0.00
   -7    4    6      0.01      0.00
   -6    4    6     -1.77      0.00
   -4    4    6      1.55      0.00
   -2    4    6      0.18      0.00
    0    4    6     -0.88      0.00
    4    4    6     -0.74      0.00
    5    4    6     -0.62      0.00
    6    4    6      0.45      0.00
    7    4    6      0.77      0.00
    8    4    6     -0.30      0.00
  -12    5    6      0.00      0.00
  -11    5    6     -0.10      0.00
  -10    5    6      0.09      0.00
   -9    5    6     -0.17      0.00
   -8    5    6      0.14      0.00
   -7    5    6      0.59      0.00
   -6    5    6     -0.60      0.00
   -5    5    6     -1.23      0.00
   -4    5    6     -0.35      0.00
   -3    5    6      0.52      0.00
   -2    5    6      0.05      0.00
   -1    5    6     -1.06      0.00
    0    5    6     -0.48      0.00
    1    5    6      0.82      0.00
    2    5    6      1.12      0.00
    3    5    6      0.15      0.00
    4    5    6     -1.37      0.00
    5    5    6     -1.52      0.00
    6    5    6     -0.31      0.00
    7    5    6      0.36      0.00
    8    5    6     -0.03      0.00
    9    5    6     -0.28      0.00
  -12    6    6     -0.31      0.00
  -11    6    6     -0.23      0.00
  -10    6    6      0.25      0.00
   -9    6    6      0.15      0.00
   -8    6    6     -0.38      0.00
   -7    6    6      0.11      0.00
   -6    6    6      0.11      0.00
   -5    6    6     -0.29      0.00
   -4    6    6     -0.12      0.00
   -3    6    6     -0.74      0.00
   -2    6    6     -1.14      0.00
   -1    6    6     -0.43      0.00
    0    6    6      0.21      0.00
    2    6    6      0.66      0.00
    4    6    6     -0.86      0.00
    5    6    6     -1.46      0.00
    6    6    6     -0.75      0.00
    7    6    6     -0.24      0.00
    8    6    6     -0.21      0.00
    9    6    6      0.00      0.00
  -11    7    6      0.03      0.00
  -10    7    6      0.49      0.00
   -9    7    6      0.34      0.00
   -8    7    6     -0.60      0.00
   -7    7    6     -0.82      0.00
   -6    7    6      0.11      0.00
   -5    7    6      0.54      0.00
   -4    7    6      0.36      0.00
   -3    7    6     -0.39      0.00
   -2    7    6     -1.10      0.00
   -1    7    6     -0.48      0.00
    0    7    6      0.29      0.00
    1    7    6      0.26      0.00
    2    7    6      0.24      0.00
    3    7    6      0.24      0.00
    4    7    6     -0.23      0.00
    5    7    6     -0.79      0.00
    6    7    6     -0.66      0.00
    7    7    6     -0.28      0.00
    8    7    6     -0.15      0.00
    9    7    6      0.04      0.00
   10    7    6      0.10      0.00
  -11    8    6      0.21      0.00
  -10    8    6      0.57      0.00
   -9    8    6      0.09      0.00
   -8    8    6     -0.62      0.00
   -7    8    6     -1.06      0.00
   -6    8    6     -0.27      0.00
   -5    8    6      1.09      0.00
   -4    8    6      0.64      0.00
   -3    8    6     -0.51      0.00
   -2    8    6     -0.55      0.00
   -1    8    6     -0.04      0.00
    0    8    6      0.24      0.00
    1    8    6      0.31      0.00
    2    8    6      0.44      0.00
    3    8    6      0.22      0.00
    4    8    6     -0.24      0.00
    5    8    6     -0.30      0.00
    6    8    6     -0.11      0.00
    7    8    6      0.16      0.00
    8    8    6      0.17      0.00
    9    8    6      0.05      0.00
   10    8    6      0.13      0.00
  -10    9    6      0.44      0.00
   -9    9    6     -0.10      0.00
   -8    9    6     -0.72      0.00
   -7    9    6     -0.64      0.00
   -6    9    6     -0.39      0.00
   -5    9    6      0.69      0.00
   -4    9    6      0.78      0.00
   -3    9    6     -0.58      0.00
   -2    9    6     -0.35      0.00
   -1    9    6      0.51      0.00
    0    9    6      0.24      0.00
    1    9    6      0.09      0.00
    2    9    6      0.47      0.00
    3    9    6      0.52      0.00
    4    9    6      0.05      0.00
    5    9    6      0.00      0.00
    6    9    6      0.39      0.00
    7    9    6      0.58      0.00
    8    9    6      0.39      0.00
    9    9    6      0.02      0.00
   -9   10    6      0.18      0.00
   -8   10    6     -0.46      0.00
   -7   10    6     -0.32      0.00
   -6   10    6      0.00      0.00
   -5   10    6      0.09      0.00
   -4   10    6      0.25      0.00
   -3   10    6     -0.32      0.00
   -2   10    6     -0.19      0.00
   -1   10    6      0.50      0.00
    0   10    6      0.03      0.00
    1   10    6     -0.16      0.00
    2   10    6      0.20      0.00
    3   10    6      0.36      0.00
    4   10    6      0.59      0.00
    5   10    6      0.60      0.00
    6   10    6      0.48      0.00
    7   10    6      0.46      0.00
    8   10    6      0.33      0.00
   -8   11    6     -0.01      0.00
   -7   11    6     -0.26      0.00
   -6   11    6      0.24      0.00
   -5   11    6      0.29      0.00
   -4   11    6     -0.15      0.00
   -3   11    6     -0.31      0.00
   -2   11    6     -0.17      0.00
   -1   11    6     -0.08      0.00
    0   11    6     -0.49      0.00
    1   11    6     -0.09      0.00
    2   11    6      0.61      0.00
    3   11    6      0.12      0.00
    4   11    6      0.26      0.00
    5   11    6      0.90      0.00
    6   11    6      0.42      0.00
    7   11    6     -0.07      0.00
   -7   12    6     -0.19      0.00
   -6   12    6      0.11      0.00
   -5   12    6      0.53      0.00
   -4   12    6     -0.03      0.00
   -3   12    6     -0.45      0.00
   -2   12    6     -0.24      0.00
   -1   12    6     -0.41      0.00
    0   12    6     -0.78      0.00
    1   12    6     -0.14      0.00
    2   12    6      1.01      0.00
    3   12    6      0.48      0.00
    4   12    6     -0.32      0.00
    5   12    6      0.38      0.00
   -5   13    6      0.33      0.00
   -4   13    6     -0.11      0.00
   -3   13    6     -0.66      0.00
   -2   13    6     -0.27      0.00
   -1   13    6     -0.10      0.00
    0   13    6     -0.39      0.00
    1   13    6     -0.18      0.00
    2   13    6      0.49      0.00
    3   13    6      0.59      0.00
   -2   14    6     -0.33      0.00
    0   14    6      0.01      0.00
    1   14    6     -0.02      0.00
    2  -14    7      0.10      0.00
   -5  -13    7      0.05      0.00
   -4  -13    7     -0.24      0.00
   -3  -13    7      0.20      0.00
   -2  -13    7     -0.07      0.00
   -1  -13    7     -0.21      0.00
    0  -13    7      0.26      0.00
    1  -13    7      0.42      0.00
    2  -13    7      0.45      0.00
    3  -13    7      0.55      0.00
    4  -13    7      0.03      0.00
   -7  -12    7     -0.31      0.00
   -6  -12    7      0.89      0.00
   -5  -12    7      0.80      0.00
   -4  -12    7      0.13      0.00
   -3  -12    7      0.36      0.00
   -2  -12    7      0.39      0.00
   -1  -12    7     -0.03      0.00
    0  -12    7      0.19      0.00
    1  -12    7      0.66      0.00
    2  -12    7      0.57      0.00
    3  -12    7      0.48      0.00
    4  -12    7      0.17      0.00
    5  -12    7     -0.46      0.00
   -8  -11    7      0.15      0.00
   -7  -11    7     -0.25      0.00
   -6  -11    7     -0.23      0.00
   -5  -11    7      0.34      0.00
   -4  -11    7      0.59      0.00
   -3  -11    7      0.63      0.00
   -2  -11    7      0.57      0.00
   -1  -11    7      0.10      0.00
    0  -11    7     -0.23      0.00
    1  -11    7      0.28      0.00
    2  -11    7      0.51      0.00
    3  -11    7      0.06      0.00
    4  -11    7     -0.03      0.00
    5  -11    7     -0.31      0.00
    6  -11    7     -0.75      0.00
    7  -11    7     -0.68      0.00
   -9  -10    7      0.21      0.00
   -8  -10    7      0.81      0.00
   -7  -10    7      0.46      0.00
   -6  -10    7     -0.45      0.00
   -5  -10    7     -0.37      0.00
   -4  -10    7      0.62      0.00
   -3  -10    7      0.79      0.00
   -2  -10    7      0.03      0.00
   -1  -10    7     -0.45      0.00
    0  -10    7     -0.68      0.00
    1  -10    7     -0.41      0.00
    2  -10    7      0.23      0.00
    3  -10    7     -0.01      0.00
    4  -10    7     -0.39      0.00
    5  -10    7     -0.34      0.00
    6  -10    7     -0.61      0.00
    7  -10    7     -0.66      0.00
    8  -10    7     -0.35      0.00
  -10   -9    7     -0.81      0.00
   -9   -9    7      0.29      0.00
   -8   -9    7      1.24      0.00
   -7   -9    7      0.69      0.00
   -6   -9    7     -0.03      0.00
   -5   -9    7     -0.05      0.00
   -4   -9    7      0.52      0.00
   -3   -9    7      0.68      0.00
   -2   -9    7     -0.44      0.00
   -1   -9    7     -1.27      0.00
    0   -9    7     -1.12      0.00
    1   -9    7     -0.79      0.00
    2   -9    7     -0.22      0.00
    3   -9    7      0.03      0.00
    4   -9    7     -0.39      0.00
    5   -9    7     -0.60      0.00
    6   -9    7     -0.50      0.00
    7   -9    7     -0.14      0.00
    8   -9    7      0.18      0.00
    9   -9    7      0.01      0.00
  -11   -8    7     -0.60      0.00
  -10   -8    7     -0.95      0.00
   -9   -8    7     -0.40      0.00
   -8   -8    7      1.27      0.00
   -7   -8    7      1.14      0.00
   -6   -8    7      0.24      0.00
   -5   -8    7      0.50      0.00
   -4   -8    7      0.54      0.00
   -3   -8    7      0.26      0.00
   -2   -8    7     -0.45      0.00
   -1   -8    7     -1.41      0.00
    0   -8    7     -1.34      0.00
    1   -8    7     -0.67      0.00
    2   -8    7     -0.28      0.00
    3   -8    7     -0.14      0.00
    4   -8    7     -0.23      0.00
    5   -8    7     -0.40      0.00
    6   -8    7     -0.33      0.00
    7   -8    7      0.07      0.00
    8   -8    7      0.38      0.00
    9   -8    7      0.17      0.00
   10   -8    7     -0.09      0.00
  -11   -7    7     -0.97      0.00
  -10   -7    7     -0.21      0.00
   -9   -7    7     -0.74      0.00
   -8   -7    7     -0.28      0.00
   -7   -7    7      0.89      0.00
   -6   -7    7      0.47      0.00
   -5   -7    7      0.63      0.00
   -3   -7    7      0.47      0.00
   -2   -7    7     -0.25      0.00
   -1   -7    7     -1.37      0.00
    0   -7    7     -1.60      0.00
    1   -7    7     -0.32      0.00
    3   -7    7      0.11      0.00
    4   -7    7     -0.27      0.00
    5   -7    7     -0.12      0.00
    6   -7    7      0.12      0.00
    7   -7    7      0.18      0.00
    8   -7    7     -0.03      0.00
    9   -7    7     -0.05      0.00
   10   -7    7      0.06      0.00
  -12   -6    7     -0.96      0.00
  -11   -6    7     -1.97      0.00
  -10   -6    7      0.15      0.00
   -9   -6    7      0.66      0.00
   -8   -6    7     -1.65      0.00
   -7   -6    7     -1.45      0.00
   -6   -6    7     -0.42      0.00
   -5   -6    7      0.25      0.00
   -4   -6    7      1.64      0.00
   -3   -6    7      1.88      0.00
   -2   -6    7      0.69      0.00
   -1   -6    7     -1.29      0.00
    0   -6    7     -2.21      0.00
    2   -6    7      1.57      0.00
    3   -6    7      1.04      0.00
    4   -6    7     -0.17      0.00
    5   -6    7     -0.41      0.00
    6   -6    7      0.00      0.00
    7   -6    7      0.33      0.00
    8   -6    7     -0.02      0.00
    9   -6    7     -0.19      0.00
   10   -6    7      0.21      0.00
  -12   -5    7     -0.54      0.00
  -11   -5    7     -1.78      0.00
  -10   -5    7     -0.31      0.00
   -9   -5    7      1.95      0.00
   -8   -5    7     -0.67      0.00
   -7   -5    7     -3.29      0.00
   -6   -5    7     -2.32      0.00
   -4   -5    7      1.57      0.00
   -3   -5    7      3.12      0.00
   -2   -5    7      2.07      0.00
    0   -5    7     -1.82      0.00
    1   -5    7     -0.80      0.00
    2   -5    7      1.60      0.00
    3   -5    7      1.64      0.00
    4   -5    7      0.16      0.00
    5   -5    7     -0.68      0.00
    6   -5    7     -0.73      0.00
    7   -5    7     -0.05      0.00
    8   -5    7      0.35      0.00
    9   -5    7      0.18      0.00
   10   -5    7      0.36      0.00
   11   -5    7      0.16      0.00
  -13   -4    7      0.22      0.00
  -12   -4    7     -0.01      0.00
  -11   -4    7     -0.29      0.00
  -10   -4    7      0.25      0.00
   -9   -4    7      1.87      0.00
   -8   -4    7      0.78      0.00
   -7   -4    7     -2.58      0.00
   -4   -4    7      0.91      0.00
   -3   -4    7      3.12      0.00
   -1   -4    7      1.16      0.00
    1   -4    7     -0.42      0.00
    2   -4    7      0.33      0.00
    3   -4    7      0.99      0.00
    4   -4    7      0.21      0.00
    5   -4    7     -0.48      0.00
    6   -4    7     -0.88      0.00
    7   -4    7     -0.53      0.00
    8   -4    7      0.38      0.00
    9   -4    7      0.51      0.00
   10   -4    7      0.37      0.00
   11   -4    7      0.24      0.00
  -12   -3    7      0.11      0.00
  -11   -3    7      0.29      0.00
  -10   -3    7      1.44      0.00
   -9   -3    7      2.28      0.00
   -8   -3    7      1.55      0.00
   -7   -3    7     -1.02      0.00
   -6   -3    7     -2.67      0.00
   -5   -3    7     -1.53      0.00
   -4   -3    7      0.86      0.00
   -3   -3    7      2.51      0.00
   -2   -3    7      1.22      0.00
    1   -3    7      1.59      0.00
    2   -3    7     -0.38      0.00
    3   -3    7     -0.34      0.00
    4   -3    7     -0.27      0.00
    5   -3    7     -0.33      0.00
    6   -3    7     -0.33      0.00
    7   -3    7     -0.42      0.00
    8   -3    7      0.21      0.00
    9   -3    7      0.52      0.00
   10   -3    7      0.28      0.00
   11   -3    7      0.24      0.00
   12   -3    7      0.22      0.00
  -13   -2    7      0.06      0.00
  -12   -2    7     -0.07      0.00
  -11   -2    7     -0.28      0.00
  -10   -2    7      0.87      0.00
   -9   -2    7      2.61      0.00
   -8   -2    7      2.57      0.00
   -7   -2    7      0.48      0.00
   -6   -2    7     -1.97      0.00
   -5   -2    7     -1.35      0.00
    0   -2    7      0.49      0.00
    1   -2    7      3.24      0.00
    2   -2    7      0.94      0.00
    3   -2    7     -0.71      0.00
    5   -2    7     -0.78      0.00
    6   -2    7      0.12      0.00
    7   -2    7      0.04      0.00
    8   -2    7     -0.01      0.00
    9   -2    7      0.33      0.00
   10   -2    7      0.27      0.00
   11   -2    7      0.34      0.00
   12   -2    7      0.40      0.00
  -13   -1    7     -0.08      0.00
  -11   -1    7     -0.26      0.00
  -10   -1    7     -0.28      0.00
   -9   -1    7      1.05      0.00
   -8   -1    7      2.34      0.00
   -7   -1    7      1.58      0.00
   -6   -1    7     -0.73      0.00
   -5   -1    7     -1.06      0.00
   -4   -1    7      2.08      0.00
   -3   -1    7      2.59      0.00
   -1   -1    7     -5.33      0.00
    1   -1    7      2.04      0.00
    2   -1    7      2.22      0.00
    3   -1    7      0.42      0.00
    4   -1    7     -0.90      0.00
    5   -1    7     -1.61      0.00
    6   -1    7     -0.13      0.00
    7   -1    7      0.51      0.00
    8   -1    7     -0.24      0.00
    9   -1    7     -0.11      0.00
   10   -1    7      0.06      0.00
  -13    0    7      0.16      0.00
  -12    0    7     -0.25      0.00
  -11    0    7      0.18      0.00
  -10    0    7      0.16      0.00
   -9    0    7     -0.30      0.00
   -8    0    7      0.21      0.00
   -7    0    7      0.71      0.00
   -6    0    7      0.41      0.00
   -5    0    7      0.23      0.00
   -4    0    7      1.75      0.00
   -2    0    7     -1.38      0.00
    0    0    7     -3.30      0.00
    1    0    7     -0.72      0.00
    2    0    7      0.87      0.00
    4    0    7      0.25      0.00
    5    0    7     -1.60      0.00
    6    0    7     -0.92      0.00
    7    0    7      0.52      0.00
    8    0    7     -0.21      0.00
    9    0    7     -0.41      0.00
   10    0    7     -0.17      0.00
  -13    1    7      0.33      0.00
  -12    1    7      0.18      0.00
  -11    1    7      0.05      0.00
  -10    1    7      0.53      0.00
   -9    1    7      0.11      0.00
   -8    1    7     -0.96      0.00
   -7    1    7     -1.32      0.00
   -6    1    7     -0.08      0.00
   -3    1    7      0.71      0.00
   -1    1    7     -1.73      0.00
    0    1    7     -1.11      0.00
    2    1    7     -1.33      0.00
    3    1    7      0.45      0.00
    5    1    7     -0.25      0.00
    6    1    7     -1.03      0.00
    7    1    7     -0.14      0.00
    8    1    7     -0.28      0.00
    9    1    7     -0.41      0.00
  -13    2    7      0.44      0.00
  -12    2    7      0.55      0.00
  -11    2    7      0.00      0.00
  -10    2    7     -0.24      0.00
   -9    2    7      0.23      0.00
   -8    2    7     -0.38      0.00
   -7    2    7     -1.88      0.00
   -6    2    7     -1.48      0.00
   -2    2    7     -2.61      0.00
    0    2    7      0.36      0.00
    2    2    7     -1.34      0.00
    4    2    7      0.80      0.00
    5    2    7      0.79      0.00
    6    2    7      0.12      0.00
    7    2    7     -0.38      0.00
    8    2    7     -0.67      0.00
  -13    3    7      0.45      0.00
  -12    3    7      0.34      0.00
  -11    3    7      0.28      0.00
  -10    3    7     -0.46      0.00
   -9    3    7     -0.37      0.00
   -8    3    7      0.15      0.00
   -7    3    7     -0.90      0.00
   -6    3    7     -1.73      0.00
   -4    3    7      3.80      0.00
   -2    3    7     -2.12      0.00
   -1    3    7     -2.64      0.00
    0    3    7     -0.05      0.00
    1    3    7      0.74      0.00
    2    3    7      0.10      0.00
    3    3    7     -0.36      0.00
    4    3    7     -0.46      0.00
    5    3    7      0.21      0.00
    6    3    7      0.98      0.00
    7    3    7      0.30      0.00
    8    3    7     -0.66      0.00
  -12    4    7     -0.26      0.00
  -11    4    7      0.01      0.00
  -10    4    7      0.08      0.00
   -9    4    7     -0.38      0.00
   -8    4    7      0.19      0.00
   -7    4    7      0.11      0.00
   -6    4    7     -0.71      0.00
   -5    4    7     -0.40      0.00
   -4    4    7      1.03      0.00
   -3    4    7      1.46      0.00
   -2    4    7     -0.60      0.00
    3    4    7     -0.25      0.00
    4    4    7     -1.45      0.00
    5    4    7     -0.90      0.00
    6    4    7      0.54      0.00
    7    4    7      0.62      0.00
    8    4    7     -0.26      0.00
    9    4    7     -0.48      0.00
  -12    5    7     -0.58      0.00
  -11    5    7     -0.48      0.00
  -10    5    7      0.24      0.00
   -9    5    7      0.00      0.00
   -8    5    7     -0.01      0.00
   -7    5    7      0.41      0.00
   -6    5    7      0.16      0.00
   -5    5    7      0.25      0.00
   -4    5    7     -0.14      0.00
   -3    5    7     -0.89      0.00
   -2    5    7     -0.73      0.00
   -1    5    7     -0.02      0.00
    0    5    7      0.86      0.00
    1    5    7      1.29      0.00
    2    5    7      1.12      0.00
    3    5    7     -0.04      0.00
    4    5    7     -1.49      0.00
    5    5    7     -1.28      0.00
    6    5    7     -0.18      0.00
    7    5    7      0.09      0.00
    8    5    7     -0.16      0.00
    9    5    7     -0.18      0.00
  -12    6    7     -0.36      0.00
  -11    6    7     -0.28      0.00
  -10    6    7      0.21      0.00
   -9    6    7      0.13      0.00
   -8    6    7     -0.45      0.00
   -7    6    7     -0.11      0.00
   -6    6    7      0.36      0.00
   -5    6    7      0.76      0.00
   -4    6    7      0.51      0.00
   -3    6    7     -1.05      0.00
   -2    6    7     -1.27      0.00
   -1    6    7      0.23      0.00
    1    6    7      0.97      0.00
    2    6    7      0.82      0.00
    3    6    7      0.37      0.00
    4    6    7     -0.67      0.00
    5    6    7     -0.94      0.00
    6    6    7     -0.38      0.00
    7    6    7     -0.24      0.00
    8    6    7     -0.27      0.00
    9    6    7     -0.12      0.00
  -11    7    7      0.25      0.00
  -10    7    7      0.30      0.00
   -9    7    7     -0.10      0.00
   -8    7    7     -0.79      0.00
   -7    7    7     -0.86      0.00
   -6    7    7      0.23      0.00
   -5    7    7      0.97      0.00
   -4    7    7      0.63      0.00
   -3    7    7     -0.31      0.00
   -2    7    7     -0.63      0.00
   -1    7    7      0.20      0.00
    0    7    7      0.82      0.00
    1    7    7      0.77      0.00
    2    7    7      0.61      0.00
    3    7    7      0.37      0.00
    4    7    7     -0.07      0.00
    5    7    7     -0.41      0.00
    6    7    7     -0.22      0.00
    7    7    7      0.05      0.00
    8    7    7     -0.04      0.00
    9    7    7     -0.11      0.00
   10    7    7     -0.23      0.00
  -11    8    7      0.39      0.00
  -10    8    7      0.27      0.00
   -9    8    7     -0.58      0.00
   -8    8    7     -0.95      0.00
   -7    8    7     -0.99      0.00
   -6    8    7     -0.11      0.00
   -5    8    7      1.10      0.00
   -4    8    7      0.42      0.00
   -3    8    7     -0.46      0.00
   -2    8    7      0.08      0.00
   -1    8    7      0.61      0.00
    0    8    7      0.67      0.00
    1    8    7      0.79      0.00
    2    8    7      0.77      0.00
    3    8    7      0.27      0.00
    4    8    7     -0.07      0.00
    5    8    7     -0.01      0.00
    6    8    7      0.16      0.00
    7    8    7      0.49      0.00
    8    8    7      0.38      0.00
    9    8    7     -0.02      0.00
  -10    9    7      0.16      0.00
   -9    9    7     -0.64      0.00
   -8    9    7     -1.01      0.00
   -7    9    7     -0.54      0.00
   -6    9    7     -0.23      0.00
   -5    9    7      0.51      0.00
   -4    9    7      0.30      0.00
   -3    9    7     -0.59      0.00
   -2    9    7      0.21      0.00
   -1    9    7      0.84      0.00
    0    9    7      0.36      0.00
    1    9    7      0.41      0.00
    2    9    7      0.66      0.00
    3    9    7      0.42      0.00
    4    9    7      0.23      0.00
    5    9    7      0.40      0.00
    6    9    7      0.50      0.00
    7    9    7      0.58      0.00
    8    9    7      0.51      0.00
    9    9    7      0.11      0.00
   -9   10    7     -0.16      0.00
   -8   10    7     -0.70      0.00
   -7   10    7     -0.32      0.00
   -6   10    7      0.11      0.00
   -5   10    7      0.00      0.00
   -4   10    7     -0.10      0.00
   -3   10    7     -0.40      0.00
   -2   10    7      0.04      0.00
   -1   10    7      0.41      0.00
    0   10    7     -0.10      0.00
    1   10    7      0.10      0.00
    2   10    7      0.42      0.00
    3   10    7      0.36      0.00
    4   10    7      0.74      0.00
    5   10    7      0.89      0.00
    6   10    7      0.51      0.00
    7   10    7      0.26      0.00
    8   10    7      0.27      0.00
   -8   11    7     -0.28      0.00
   -7   11    7     -0.42      0.00
   -6   11    7      0.19      0.00
   -5   11    7      0.25      0.00
   -4   11    7     -0.21      0.00
   -3   11    7     -0.26      0.00
   -2   11    7     -0.19      0.00
   -1   11    7     -0.37      0.00
    0   11    7     -0.55      0.00
    1   11    7      0.25      0.00
    2   11    7      0.81      0.00
    3   11    7      0.26      0.00
    4   11    7      0.56      0.00
    5   11    7      1.03      0.00
    6   11    7      0.34      0.00
   -7   12    7     -0.33      0.00
   -6   12    7     -0.04      0.00
   -5   12    7      0.37      0.00
   -4   12    7     -0.07      0.00
   -3   12    7     -0.24      0.00
   -2   12    7     -0.11      0.00
   -1   12    7     -0.48      0.00
    0   12    7     -0.62      0.00
    1   12    7      0.20      0.00
    2   12    7      1.01      0.00
    3   12    7      0.49      0.00
    4   12    7      0.13      0.00
    5   12    7      0.62      0.00
   -5   13    7      0.20      0.00
   -4   13    7     -0.10      0.00
   -3   13    7     -0.39      0.00
   -2   13    7      0.03      0.00
   -1   13    7      0.08      0.00
    0   13    7     -0.12      0.00
    1   13    7      0.06      0.00
    2   13    7      0.38      0.00
    3   13    7      0.49      0.00
    0   14    7      0.18      0.00
   -5  -13    8     -0.02      0.00
   -4  -13    8     -0.34      0.00
   -3  -13    8     -0.11      0.00
   -2  -13    8     -0.34      0.00
   -1  -13    8     -0.17      0.00
    0  -13    8      0.47      0.00
    1  -13    8      0.64      0.00
    2  -13    8      0.66      0.00
    3  -13    8      0.52      0.00
    4  -13    8     -0.20      0.00
   -7  -12    8     -0.53      0.00
   -6  -12    8      0.41      0.00
   -5  -12    8      0.56      0.00
   -4  -12    8      0.07      0.00
   -3  -12    8      0.06      0.00
   -2  -12    8      0.08      0.00
   -1  -12    8      0.00      0.00
    0  -12    8      0.50      0.00
    1  -12    8      0.98      0.00
    2  -12    8      0.71      0.00
    3  -12    8      0.37      0.00
    4  -12    8     -0.11      0.00
    5  -12    8     -0.63      0.00
   -8  -11    8      0.42      0.00
   -7  -11    8     -0.36      0.00
   -6  -11    8     -0.59      0.00
   -5  -11    8      0.19      0.00
   -4  -11    8      0.62      0.00
   -3  -11    8      0.33      0.00
   -2  -11    8      0.11      0.00
   -1  -11    8     -0.03      0.00
    0  -11    8      0.07      0.00
    1  -11    8      0.77      0.00
    2  -11    8      0.70      0.00
    3  -11    8     -0.10      0.00
    4  -11    8     -0.24      0.00
    5  -11    8     -0.43      0.00
    6  -11    8     -0.68      0.00
    7  -11    8     -0.45      0.00
   -9  -10    8      0.47      0.00
   -8  -10    8      0.86      0.00
   -7  -10    8      0.31      0.00
   -6  -10    8     -0.28      0.00
   -5  -10    8      0.13      0.00
   -4  -10    8      0.93      0.00
   -3  -10    8      0.46      0.00
   -2  -10    8     -0.52      0.00
   -1  -10    8     -0.60      0.00
    0  -10    8     -0.39      0.00
    1  -10    8      0.16      0.00
    2  -10    8      0.59      0.00
    3  -10    8     -0.19      0.00
    4  -10    8     -0.66      0.00
    5  -10    8     -0.39      0.00
    6  -10    8     -0.37      0.00
    7  -10    8     -0.26      0.00
    8  -10    8     -0.05      0.00
  -10   -9    8     -0.66      0.00
   -9   -9    8      0.55      0.00
   -8   -9    8      1.11      0.00
   -7   -9    8      0.40      0.00
   -6   -9    8      0.50      0.00
   -5   -9    8      1.08      0.00
   -4   -9    8      1.16      0.00
   -3   -9    8      0.39      0.00
   -2   -9    8     -1.02      0.00
   -1   -9    8     -1.34      0.00
    0   -9    8     -0.66      0.00
    1   -9    8     -0.19      0.00
    2   -9    8      0.18      0.00
    3   -9    8     -0.05      0.00
    4   -9    8     -0.71      0.00
    5   -9    8     -0.65      0.00
    6   -9    8     -0.10      0.00
    7   -9    8      0.35      0.00
    8   -9    8      0.33      0.00
    9   -9    8     -0.04      0.00
  -11   -8    8     -0.45      0.00
  -10   -8    8     -0.61      0.00
   -9   -8    8     -0.05      0.00
   -8   -8    8      1.22      0.00
   -7   -8    8      0.76      0.00
   -6   -8    8      0.64      0.00
   -5   -8    8      1.71      0.00
   -4   -8    8      1.41      0.00
   -3   -8    8      0.24      0.00
   -2   -8    8     -0.99      0.00
   -1   -8    8     -1.69      0.00
    0   -8    8     -0.94      0.00
    1   -8    8      0.04      0.00
    2   -8    8      0.16      0.00
    3   -8    8     -0.11      0.00
    4   -8    8     -0.40      0.00
    5   -8    8     -0.45      0.00
    6   -8    8      0.04      0.00
    7   -8    8      0.54      0.00
    8   -8    8      0.42      0.00
    9   -8    8     -0.06      0.00
  -11   -7    8     -1.05      0.00
  -10   -7    8      0.24      0.00
   -9   -7    8     -0.31      0.00
   -8   -7    8     -0.08      0.00
   -7   -7    8      0.60      0.00
   -6   -7    8      0.44      0.00
   -5   -7    8      1.46      0.00
   -4   -7    8      1.85      0.00
   -3   -7    8      0.71      0.00
   -2   -7    8     -0.60      0.00
   -1   -7    8     -1.92      0.00
    0   -7    8     -1.61      0.00
    1   -7    8      0.30      0.00
    2   -7    8      1.01      0.00
    3   -7    8      0.17      0.00
    4   -7    8     -0.35      0.00
    5   -7    8     -0.20      0.00
    6   -7    8      0.25      0.00
    7   -7    8      0.50      0.00
    8   -7    8      0.19      0.00
    9   -7    8     -0.05      0.00
   10   -7    8     -0.05      0.00
  -12   -6    8     -1.42      0.00
  -11   -6    8     -2.09      0.00
  -10   -6    8      0.62      0.00
   -9   -6    8      0.98      0.00
   -8   -6    8     -1.26      0.00
   -7   -6    8     -1.19      0.00
   -6   -6    8     -0.47      0.00
   -4   -6    8      2.14      0.00
   -3   -6    8      1.84      0.00
   -2   -6    8      0.31      0.00
   -1   -6    8     -1.68      0.00
    0   -6    8     -2.33      0.00
    1   -6    8     -0.13      0.00
    2   -6    8      1.67      0.00
    3   -6    8      0.88      0.00
    4   -6    8     -0.32      0.00
    5   -6    8     -0.54      0.00
    6   -6    8     -0.07      0.00
    7   -6    8      0.50      0.00
    8   -6    8      0.36      0.00
    9   -6    8      0.19      0.00
   10   -6    8      0.25      0.00
  -12   -5    8     -0.49      0.00
  -11   -5    8     -1.41      0.00
  -10   -5    8      0.35      0.00
   -9   -5    8      2.02      0.00
   -8   -5    8     -0.48      0.00
   -7   -5    8     -2.37      0.00
   -6   -5    8     -1.69      0.00
   -5   -5    8     -0.43      0.00
   -3   -5    8      2.25      0.00
    0   -5    8     -1.66      0.00
    1   -5    8     -0.85      0.00
    2   -5    8      0.96      0.00
    3   -5    8      0.90      0.00
    4   -5    8     -0.07      0.00
    5   -5    8     -0.64      0.00
    6   -5    8     -0.71      0.00
    7   -5    8      0.13      0.00
    8   -5    8      0.71      0.00
    9   -5    8      0.57      0.00
   10   -5    8      0.49      0.00
   11   -5    8      0.04      0.00
  -13   -4    8      0.10      0.00
  -12   -4    8      0.08      0.00
  -11   -4    8      0.38      0.00
  -10   -4    8      1.12      0.00
   -9   -4    8      1.92      0.00
   -8   -4    8      0.64      0.00
   -7   -4    8     -1.63      0.00
   -6   -4    8     -1.94      0.00
   -5   -4    8     -0.94      0.00
   -4   -4    8      0.76      0.00
   -3   -4    8      1.44      0.00
   -2   -4    8      0.28      0.00
   -1   -4    8      0.27      0.00
    0   -4    8      0.43      0.00
    1   -4    8     -0.48      0.00
    3   -4    8     -0.12      0.00
    4   -4    8     -0.20      0.00
    5   -4    8     -0.12      0.00
    6   -4    8     -0.53      0.00
    7   -4    8     -0.26      0.00
    8   -4    8      0.64      0.00
    9   -4    8      0.64      0.00
   10   -4    8      0.42      0.00
   11   -4    8      0.28      0.00
  -13   -3    8      0.08      0.00
  -12   -3    8     -0.11      0.00
  -11   -3    8      0.56      0.00
  -10   -3    8      1.95      0.00
   -9   -3    8      2.27      0.00
   -8   -3    8      1.26      0.00
   -7   -3    8     -0.52      0.00
   -6   -3    8     -1.58      0.00
   -5   -3    8     -0.76      0.00
   -3   -3    8      0.44      0.00
   -1   -3    8     -1.31      0.00
    0   -3    8      1.51      0.00
    1   -3    8      1.15      0.00
    2   -3    8     -0.51      0.00
    4   -3    8     -0.85      0.00
    5   -3    8      0.01      0.00
    6   -3    8      0.24      0.00
    7   -3    8     -0.14      0.00
    8   -3    8      0.31      0.00
    9   -3    8      0.40      0.00
   10   -3    8      0.23      0.00
   11   -3    8      0.44      0.00
  -13   -2    8     -0.22      0.00
  -12   -2    8     -0.27      0.00
  -11   -2    8     -0.26      0.00
  -10   -2    8      0.80      0.00
   -9   -2    8      2.12      0.00
   -8   -2    8      1.89      0.00
   -7   -2    8      0.45      0.00
   -6   -2    8     -1.08      0.00
   -4   -2    8      1.23      0.00
   -3   -2    8      0.05      0.00
   -1   -2    8     -3.94      0.00
    0   -2    8      0.00      0.00
    4   -2    8     -1.27      0.00
    5   -2    8     -0.73      0.00
    6   -2    8      0.56      0.00
    7   -2    8      0.16      0.00
    8   -2    8     -0.03      0.00
    9   -2    8      0.08      0.00
   10   -2    8      0.04      0.00
   11   -2    8      0.54      0.00
  -13   -1    8     -0.44      0.00
  -12   -1    8     -0.37      0.00
  -11   -1    8      0.00      0.00
  -10   -1    8     -0.25      0.00
   -9   -1    8      0.40      0.00
   -8   -1    8      1.11      0.00
   -7   -1    8      0.83      0.00
   -6   -1    8      0.04      0.00
   -5   -1    8      0.20      0.00
   -3   -1    8      0.01      0.00
   -2   -1    8     -3.50      0.00
   -1   -1    8     -4.56      0.00
    0   -1    8     -2.10      0.00
    2   -1    8      0.61      0.00
    3   -1    8      0.47      0.00
    5   -1    8     -1.53      0.00
    6   -1    8      0.16      0.00
    7   -1    8      0.38      0.00
    8   -1    8     -0.29      0.00
    9   -1    8     -0.11      0.00
   10   -1    8     -0.20      0.00
   11   -1    8      0.28      0.00
  -13    0    8     -0.14      0.00
  -12    0    8     -0.45      0.00
  -11    0    8      0.37      0.00
  -10    0    8      0.45      0.00
   -9    0    8     -0.40      0.00
   -8    0    8     -0.78      0.00
   -7    0    8     -0.44      0.00
   -6    0    8      0.87      0.00
   -4    0    8      1.36      0.00
   -3    0    8     -0.66      0.00
   -2    0    8     -2.64      0.00
    0    0    8     -2.00      0.00
    2    0    8     -1.14      0.00
    3    0    8      0.43      0.00
    4    0    8      0.25      0.00
    5    0    8     -1.21      0.00
    6    0    8     -0.43      0.00
    8    0    8     -0.31      0.00
    9    0    8     -0.01      0.00
   10    0    8     -0.07      0.00
  -13    1    8      0.17      0.00
  -12    1    8     -0.03      0.00
  -11    1    8     -0.11      0.00
  -10    1    8      0.54      0.00
   -9    1    8      0.29      0.00
   -8    1    8     -1.15      0.00
   -7    1    8     -1.95      0.00
   -6    1    8      0.14      0.00
   -4    1    8      2.58      0.00
   -2    1    8     -2.87      0.00
   -1    1    8     -1.14      0.00
    0    1    8     -0.49      0.00
    1    1    8     -2.01      0.00
    2    1    8     -2.21      0.00
    4    1    8      0.80      0.00
    5    1    8      0.16      0.00
    6    1    8     -0.25      0.00
    7    1    8      0.00      0.00
    8    1    8     -0.29      0.00
    9    1    8      0.12      0.00
  -13    2    8     -0.01      0.00
  -12    2    8      0.31      0.00
  -11    2    8     -0.06      0.00
  -10    2    8     -0.41      0.00
   -9    2    8      0.16      0.00
   -8    2    8     -0.27      0.00
   -7    2    8     -1.61      0.00
   -6    2    8     -0.88      0.00
   -5    2    8      2.70      0.00
   -4    2    8      3.96      0.00
   -3    2    8     -0.14      0.00
   -2    2    8     -3.31      0.00
   -1    2    8     -1.75      0.00
    3    2    8     -0.74      0.00
    4    2    8      0.12      0.00
    6    2    8      0.77      0.00
    7    2    8      0.06      0.00
    8    2    8     -0.28      0.00
    9    2    8      0.01      0.00
  -13    3    8     -0.41      0.00
  -12    3    8     -0.37      0.00
  -11    3    8      0.33      0.00
  -10    3    8     -0.26      0.00
   -9    3    8     -0.46      0.00
   -8    3    8      0.03      0.00
   -7    3    8     -0.32      0.00
   -5    3    8      1.00      0.00
   -4    3    8      2.59      0.00
   -3    3    8      1.04      0.00
   -2    3    8     -1.94      0.00
   -1    3    8     -1.73      0.00
    0    3    8     -0.05      0.00
    2    3    8      0.33      0.00
    3    3    8     -0.63      0.00
    4    3    8     -1.02      0.00
    5    3    8      0.27      0.00
    6    3    8      1.25      0.00
    7    3    8      0.51      0.00
    8    3    8     -0.08      0.00
    9    3    8     -0.04      0.00
  -12    4    8     -1.24      0.00
  -11    4    8     -0.23      0.00
  -10    4    8      0.46      0.00
   -9    4    8     -0.12      0.00
   -8    4    8      0.01      0.00
   -7    4    8      0.29      0.00
   -6    4    8      0.69      0.00
   -5    4    8      0.79      0.00
   -3    4    8     -0.32      0.00
    1    4    8      1.12      0.00
    2    4    8      0.79      0.00
    3    4    8     -0.56      0.00
    5    4    8     -0.50      0.00
    6    4    8      0.70      0.00
    7    4    8      0.52      0.00
    8    4    8      0.07      0.00
    9    4    8      0.03      0.00
  -12    5    8     -1.07      0.00
  -11    5    8     -0.82      0.00
  -10    5    8      0.35      0.00
   -9    5    8      0.32      0.00
   -8    5    8      0.00      0.00
   -7    5    8      0.19      0.00
   -6    5    8      0.79      0.00
   -5    5    8      1.45      0.00
   -4    5    8     -0.01      0.00
   -3    5    8     -1.71      0.00
   -2    5    8     -0.84      0.00
   -1    5    8      0.92      0.00
    0    5    8      1.61      0.00
    1    5    8      1.30      0.00
    2    5    8      0.80      0.00
    3    5    8     -0.17      0.00
    4    5    8     -0.99      0.00
    5    5    8     -0.46      0.00
    6    5    8      0.15      0.00
    7    5    8      0.06      0.00
    8    5    8     -0.03      0.00
    9    5    8     -0.03      0.00
  -12    6    8     -0.27      0.00
  -11    6    8     -0.31      0.00
  -10    6    8     -0.01      0.00
   -9    6    8      0.06      0.00
   -8    6    8     -0.37      0.00
   -7    6    8     -0.23      0.00
   -6    6    8      0.40      0.00
   -4    6    8      0.82      0.00
   -2    6    8     -0.92      0.00
   -1    6    8      0.54      0.00
    0    6    8      1.22      0.00
    1    6    8      1.01      0.00
    2    6    8      0.72      0.00
    3    6    8      0.38      0.00
    5    6    8     -0.14      0.00
    6    6    8      0.09      0.00
    7    6    8     -0.05      0.00
    8    6    8     -0.12      0.00
    9    6    8     -0.14      0.00
  -11    7    8      0.39      0.00
  -10    7    8     -0.09      0.00
   -9    7    8     -0.58      0.00
   -8    7    8     -0.84      0.00
   -7    7    8     -0.73      0.00
   -6    7    8      0.27      0.00
   -5    7    8      0.85      0.00
   -4    7    8      0.45      0.00
   -3    7    8     -0.04      0.00
   -2    7    8      0.00      0.00
   -1    7    8      0.46      0.00
    0    7    8      0.81      0.00
    1    7    8      0.89      0.00
    2    7    8      0.62      0.00
    3    7    8      0.33      0.00
    4    7    8      0.17      0.00
    5    7    8      0.00      0.00
    6    7    8      0.18      0.00
    7    7    8      0.35      0.00
    8    7    8      0.09      0.00
    9    7    8     -0.15      0.00
   10    7    8     -0.32      0.00
  -11    8    8      0.37      0.00
  -10    8    8     -0.12      0.00
   -9    8    8     -1.08      0.00
   -8    8    8     -1.03      0.00
   -7    8    8     -0.76      0.00
   -6    8    8      0.00      0.00
   -5    8    8      0.74      0.00
   -4    8    8     -0.08      0.00
   -3    8    8     -0.34      0.00
   -2    8    8      0.58      0.00
   -1    8    8      0.73      0.00
    0    8    8      0.58      0.00
    1    8    8      0.84      0.00
    2    8    8      0.61      0.00
    3    8    8      0.04      0.00
    4    8    8      0.05      0.00
    5    8    8      0.17      0.00
    6    8    8      0.23      0.00
    7    8    8      0.61      0.00
    8    8    8      0.43      0.00
    9    8    8     -0.05      0.00
  -10    9    8     -0.11      0.00
   -9    9    8     -0.87      0.00
   -8    9    8     -0.97      0.00
   -7    9    8     -0.33      0.00
   -6    9    8     -0.12      0.00
   -5    9    8      0.18      0.00
   -4    9    8     -0.20      0.00
   -3    9    8     -0.54      0.00
   -2    9    8      0.46      0.00
   -1    9    8      0.61      0.00
    0    9    8      0.07      0.00
    1    9    8      0.34      0.00
    2    9    8      0.40      0.00
    3    9    8      0.14      0.00
    4    9    8      0.35      0.00
    5    9    8      0.56      0.00
    6    9    8      0.30      0.00
    7    9    8      0.34      0.00
    8    9    8      0.44      0.00
   -9   10    8     -0.24      0.00
   -8   10    8     -0.66      0.00
   -7   10    8     -0.27      0.00
   -6   10    8      0.16      0.00
   -5   10    8     -0.10      0.00
   -4   10    8     -0.31      0.00
   -3   10    8     -0.39      0.00
   -2   10    8      0.01      0.00
   -1   10    8      0.01      0.00
    0   10    8     -0.38      0.00
    1   10    8      0.09      0.00
    2   10    8      0.30      0.00
    3   10    8      0.28      0.00
    4   10    8      0.82      0.00
    5   10    8      0.90      0.00
    6   10    8      0.29      0.00
    7   10    8     -0.08      0.00
   -8   11    8     -0.30      0.00
   -7   11    8     -0.51      0.00
   -6   11    8      0.11      0.00
   -5   11    8      0.24      0.00
   -4   11    8     -0.13      0.00
   -3   11    8     -0.14      0.00
   -2   11    8     -0.26      0.00
   -1   11    8     -0.56      0.00
    0   11    8     -0.50      0.00
    1   11    8      0.34      0.00
    2   11    8      0.69      0.00
    3   11    8      0.35      0.00
    4   11    8      0.74      0.00
    5   11    8      0.85      0.00
    6   11    8      0.12      0.00
   -7   12    8     -0.35      0.00
   -6   12    8     -0.13      0.00
   -5   12    8      0.32      0.00
   -4   12    8      0.05      0.00
   -3   12    8      0.00      0.00
   -2   12    8      0.03      0.00
   -1   12    8     -0.32      0.00
    0   12    8     -0.27      0.00
    1   12    8      0.31      0.00
    2   12    8      0.72      0.00
    3   12    8      0.49      0.00
    4   12    8      0.44      0.00
    5   12    8      0.54      0.00
   -5   13    8      0.27      0.00
   -4   13    8      0.12      0.00
   -3   13    8     -0.12      0.00
   -2   13    8      0.23      0.00
   -1   13    8      0.31      0.00
    0   13    8      0.21      0.00
    1   13    8      0.13      0.00
    2   13    8      0.15      0.00
    3   13    8      0.44      0.00
   -5  -13    9     -0.07      0.00
   -4  -13    9     -0.40      0.00
   -3  -13    9     -0.34      0.00
   -2  -13    9     -0.42      0.00
   -1  -13    9     -0.03      0.00
    0  -13    9      0.63      0.00
    1  -13    9      0.77      0.00
    2  -13    9      0.71      0.00
    3  -13    9      0.38      0.00
   -6  -12    9     -0.07      0.00
   -5  -12    9      0.24      0.00
   -4  -12    9     -0.13      0.00
   -3  -12    9     -0.21      0.00
   -2  -12    9     -0.03      0.00
   -1  -12    9      0.11      0.00
    0  -12    9      0.71      0.00
    1  -12    9      1.12      0.00
    2  -12    9      0.63      0.00
    3  -12    9      0.17      0.00
    4  -12    9     -0.21      0.00
    5  -12    9     -0.47      0.00
   -8  -11    9      0.49      0.00
   -7  -11    9     -0.42      0.00
   -6  -11    9     -0.75      0.00
   -5  -11    9     -0.01      0.00
   -4  -11    9      0.32      0.00
   -3  -11    9     -0.08      0.00
   -2  -11    9     -0.09      0.00
   -1  -11    9      0.02      0.00
    0  -11    9      0.30      0.00
    1  -11    9      1.06      0.00
    2  -11    9      0.65      0.00
    3  -11    9     -0.33      0.00
    4  -11    9     -0.24      0.00
    5  -11    9     -0.18      0.00
    6  -11    9     -0.31      0.00
   -9  -10    9      0.48      0.00
   -8  -10    9      0.45      0.00
   -7  -10    9      0.11      0.00
   -6  -10    9      0.10      0.00
   -5  -10    9      0.45      0.00
   -4  -10    9      0.66      0.00
   -3  -10    9     -0.10      0.00
   -2  -10    9     -0.72      0.00
   -1  -10    9     -0.37      0.00
    0  -10    9     -0.02      0.00
    1  -10    9      0.58      0.00
    2  -10    9      0.73      0.00
    3  -10    9     -0.36      0.00
    4  -10    9     -0.66      0.00
    5  -10    9     -0.05      0.00
    6  -10    9      0.11      0.00
    7  -10    9      0.11      0.00
  -10   -9    9     -0.45      0.00
   -9   -9    9      0.52      0.00
   -8   -9    9      0.48      0.00
   -7   -9    9      0.00      0.00
   -6   -9    9      1.04      0.00
   -5   -9    9      1.67      0.00
   -4   -9    9      0.93      0.00
   -3   -9    9     -0.23      0.00
   -2   -9    9     -1.20      0.00
   -1   -9    9     -0.87      0.00
    0   -9    9      0.01      0.00
    1   -9    9      0.36      0.00
    2   -9    9      0.50      0.00
    3   -9    9     -0.01      0.00
    4   -9    9     -0.69      0.00
    5   -9    9     -0.34      0.00
    6   -9    9      0.42      0.00
    7   -9    9      0.62      0.00
    8   -9    9      0.19      0.00
  -10   -8    9     -0.45      0.00
   -9   -8    9     -0.03      0.00
   -8   -8    9      0.77      0.00
   -7   -8    9      0.24      0.00
   -6   -8    9      0.95      0.00
   -5   -8    9      2.23      0.00
   -4   -8    9      1.25      0.00
   -3   -8    9     -0.25      0.00
   -2   -8    9     -1.22      0.00
   -1   -8    9     -1.35      0.00
    0   -8    9     -0.13      0.00
    1   -8    9      0.79      0.00
    2   -8    9      0.55      0.00
    3   -8    9      0.11      0.00
    4   -8    9     -0.25      0.00
    5   -8    9     -0.29      0.00
    6   -8    9      0.33      0.00
    7   -8    9      0.69      0.00
    8   -8    9      0.19      0.00
    9   -8    9     -0.36      0.00
  -11   -7    9     -1.00      0.00
  -10   -7    9      0.30      0.00
   -9   -7    9     -0.38      0.00
   -8   -7    9     -0.21      0.00
   -7   -7    9      0.21      0.00
   -6   -7    9      0.42      0.00
   -5   -7    9      1.80      0.00
   -4   -7    9      1.73      0.00
   -3   -7    9      0.29      0.00
   -2   -7    9     -0.90      0.00
   -1   -7    9     -1.85      0.00
    0   -7    9     -0.99      0.00
    1   -7    9      1.02      0.00
    2   -7    9      1.28      0.00
    3   -7    9      0.25      0.00
    4   -7    9     -0.23      0.00
    5   -7    9     -0.22      0.00
    6   -7    9      0.18      0.00
    7   -7    9      0.51      0.00
    8   -7    9      0.18      0.00
    9   -7    9     -0.13      0.00
   10   -7    9     -0.20      0.00
  -12   -6    9     -1.57      0.00
  -11   -6    9     -1.79      0.00
  -10   -6    9      0.75      0.00
   -9   -6    9      0.60      0.00
   -8   -6    9     -1.22      0.00
   -7   -6    9     -0.96      0.00
   -6   -6    9     -0.36      0.00
   -5   -6    9      0.85      0.00
   -3   -6    9      1.00      0.00
   -2   -6    9     -0.27      0.00
   -1   -6    9     -1.67      0.00
    0   -6    9     -1.82      0.00
    1   -6    9      0.24      0.00
    2   -6    9      1.41      0.00
    3   -6    9      0.51      0.00
    4   -6    9     -0.38      0.00
    5   -6    9     -0.63      0.00
    6   -6    9     -0.27      0.00
    7   -6    9      0.42      0.00
    8   -6    9      0.43      0.00
    9   -6    9      0.29      0.00
   10   -6    9      0.14      0.00
  -12   -5    9     -0.35      0.00
  -11   -5    9     -0.71      0.00
  -10   -5    9      0.73      0.00
   -9   -5    9      1.37      0.00
   -8   -5    9     -0.65      0.00
   -7   -5    9     -1.54      0.00
   -6   -5    9     -1.01      0.00
   -5   -5    9     -0.17      0.00
   -3   -5    9      0.65      0.00
   -1   -5    9     -0.69      0.00
    0   -5    9     -1.24      0.00
    1   -5    9     -0.67      0.00
    2   -5    9      0.26      0.00
    3   -5    9      0.05      0.00
    4   -5    9     -0.23      0.00
    5   -5    9     -0.56      0.00
    6   -5    9     -0.70      0.00
    7   -5    9      0.18      0.00
    8   -5    9      0.68      0.00
    9   -5    9      0.46      0.00
   10   -5    9      0.34      0.00
   11   -5    9     -0.08      0.00
  -12   -4    9      0.05      0.00
  -11   -4    9      0.94      0.00
  -10   -4    9      1.47      0.00
   -9   -4    9      1.25      0.00
   -8   -4    9      0.14      0.00
   -7   -4    9     -0.82      0.00
   -6   -4    9     -0.93      0.00
   -5   -4    9     -0.63      0.00
   -4   -4    9     -0.03      0.00
   -3   -4    9     -0.66      0.00
   -2   -4    9     -1.68      0.00
   -1   -4    9     -0.51      0.00
    0   -4    9      0.33      0.00
    1   -4    9     -0.30      0.00
    2   -4    9     -0.64      0.00
    3   -4    9     -0.89      0.00
    4   -4    9     -0.40      0.00
    5   -4    9      0.18      0.00
    6   -4    9     -0.31      0.00
    7   -4    9     -0.07      0.00
    8   -4    9      0.56      0.00
    9   -4    9      0.26      0.00
   10   -4    9      0.17      0.00
   11   -4    9      0.24      0.00
  -13   -3    9     -0.36      0.00
  -12   -3    9     -0.37      0.00
  -11   -3    9      0.59      0.00
  -10   -3    9      1.75      0.00
   -9   -3    9      1.40      0.00
   -8   -3    9      0.50      0.00
   -7   -3    9     -0.09      0.00
   -6   -3    9     -0.52      0.00
   -4   -3    9     -0.38      0.00
   -2   -3    9     -3.54      0.00
   -1   -3    9     -1.93      0.00
    0   -3    9      0.88      0.00
    1   -3    9      0.83      0.00
    3   -3    9     -0.84      0.00
    5   -3    9      0.30      0.00
    6   -3    9      0.43      0.00
    7   -3    9     -0.05      0.00
    8   -3    9      0.22      0.00
    9   -3    9     -0.06      0.00
   10   -3    9     -0.06      0.00
   11   -3    9      0.48      0.00
  -13   -2    9     -0.62      0.00
  -12   -2    9     -0.32      0.00
  -11   -2    9     -0.25      0.00
  -10   -2    9      0.31      0.00
   -9   -2    9      0.93      0.00
   -8   -2    9      0.66      0.00
   -7   -2    9      0.37      0.00
   -6   -2    9      0.08      0.00
   -5   -2    9      0.16      0.00
   -2   -2    9     -4.31      0.00
    0   -2    9     -0.20      0.00
    1   -2    9      0.76      0.00
    3   -2    9      0.21      0.00
    4   -2    9     -1.11      0.00
    5   -2    9     -0.45      0.00
    6   -2    9      0.61      0.00
    7   -2    9      0.04      0.00
    8   -2    9     -0.04      0.00
    9   -2    9     -0.26      0.00
   10   -2    9     -0.29      0.00
   11   -2    9      0.55      0.00
  -13   -1    9     -0.85      0.00
  -12   -1    9     -0.24      0.00
  -11   -1    9      0.36      0.00
  -10   -1    9     -0.31      0.00
   -9   -1    9     -0.44      0.00
   -8   -1    9     -0.32      0.00
   -7   -1    9      0.17      0.00
   -6   -1    9      1.12      0.00
   -4   -1    9      0.13      0.00
   -2   -1    9     -3.61      0.00
    0   -1    9     -1.20      0.00
    2   -1    9     -0.30      0.00
    4   -1    9     -0.37      0.00
    5   -1    9     -0.94      0.00
    6   -1    9      0.28      0.00
    7   -1    9      0.08      0.00
    8   -1    9     -0.13      0.00
    9   -1    9     -0.03      0.00
   10   -1    9     -0.46      0.00
   11   -1    9      0.15      0.00
  -13    0    9     -0.45      0.00
  -12    0    9     -0.42      0.00
  -11    0    9      0.63      0.00
  -10    0    9      0.67      0.00
   -9    0    9     -0.47      0.00
   -8    0    9     -1.52      0.00
   -7    0    9     -1.13      0.00
   -6    0    9      1.51      0.00
   -5    0    9      2.93      0.00
   -4    0    9      0.64      0.00
   -3    0    9     -2.50      0.00
   -2    0    9     -2.77      0.00
   -1    0    9     -0.99      0.00
    1    0    9     -2.14      0.00
    2    0    9     -1.80      0.00
    3    0    9      0.17      0.00
    4    0    9      0.57      0.00
    6    0    9      0.09      0.00
    7    0    9      0.11      0.00
    8    0    9     -0.11      0.00
    9    0    9      0.47      0.00
   10    0    9     -0.01      0.00
  -13    1    9     -0.09      0.00
  -11    1    9     -0.08      0.00
  -10    1    9      0.50      0.00
   -9    1    9      0.37      0.00
   -8    1    9     -1.07      0.00
   -7    1    9     -1.84      0.00
   -5    1    9      3.69      0.00
   -4    1    9      2.06      0.00
   -3    1    9     -2.16      0.00
   -2    1    9     -2.85      0.00
    0    1    9     -0.27      0.00
    2    1    9     -1.74      0.00
    3    1    9     -0.53      0.00
    4    1    9      0.76      0.00
    5    1    9      0.84      0.00
    6    1    9      0.47      0.00
    7    1    9      0.21      0.00
    8    1    9      0.02      0.00
    9    1    9      0.63      0.00
  -13    2    9     -0.71      0.00
  -12    2    9      0.13      0.00
  -11    2    9      0.10      0.00
  -10    2    9     -0.42      0.00
   -9    2    9     -0.02      0.00
   -8    2    9     -0.16      0.00
   -7    2    9     -0.77      0.00
   -6    2    9      0.06      0.00
   -5    2    9      2.44      0.00
   -4    2    9      2.66      0.00
   -3    2    9     -0.62      0.00
   -1    2    9     -1.20      0.00
    0    2    9     -0.28      0.00
    1    2    9     -0.19      0.00
    3    2    9     -0.73      0.00
    5    2    9      1.19      0.00
    6    2    9      1.11      0.00
    7    2    9      0.46      0.00
    8    2    9      0.33      0.00
    9    2    9      0.49      0.00
  -13    3    9     -1.45      0.00
  -12    3    9     -1.06      0.00
  -11    3    9      0.49      0.00
  -10    3    9      0.12      0.00
   -9    3    9     -0.47      0.00
   -8    3    9     -0.18      0.00
   -7    3    9      0.37      0.00
   -6    3    9      1.02      0.00
   -5    3    9      1.04      0.00
   -4    3    9      0.78      0.00
   -3    3    9     -0.06      0.00
   -1    3    9     -0.21      0.00
    1    3    9      0.48      0.00
    2    3    9      0.36      0.00
    3    3    9     -0.79      0.00
    4    3    9     -0.93      0.00
    5    3    9      0.56      0.00
    6    3    9      1.19      0.00
    7    3    9      0.61      0.00
    8    3    9      0.54      0.00
    9    3    9      0.48      0.00
  -12    4    9     -2.04      0.00
  -11    4    9     -0.40      0.00
  -10    4    9      0.86      0.00
   -9    4    9      0.21      0.00
   -8    4    9     -0.22      0.00
   -7    4    9      0.29      0.00
   -6    4    9      1.70      0.00
   -4    4    9     -0.86      0.00
   -2    4    9     -0.07      0.00
   -1    4    9      1.30      0.00
    0    4    9      1.33      0.00
    1    4    9      0.73      0.00
    5    4    9      0.16      0.00
    6    4    9      0.70      0.00
    7    4    9      0.40      0.00
    8    4    9      0.37      0.00
    9    4    9      0.40      0.00
  -12    5    9     -1.28      0.00
  -11    5    9     -1.03      0.00
  -10    5    9      0.36      0.00
   -9    5    9      0.58      0.00
   -8    5    9      0.01      0.00
   -7    5    9     -0.14      0.00
   -6    5    9      0.89      0.00
   -5    5    9      1.85      0.00
   -4    5    9     -0.01      0.00
   -3    5    9     -1.85      0.00
   -2    5    9     -0.74      0.00
   -1    5    9      1.08      0.00
    0    5    9      1.46      0.00
    1    5    9      0.76      0.00
    2    5    9      0.23      0.00
    3    5    9     -0.16      0.00
    4    5    9     -0.16      0.00
    5    5    9      0.36      0.00
    6    5    9      0.36      0.00
    7    5    9      0.09      0.00
    8    5    9      0.13      0.00
    9    5    9      0.13      0.00
  -12    6    9     -0.05      0.00
  -11    6    9     -0.27      0.00
  -10    6    9     -0.31      0.00
   -9    6    9     -0.07      0.00
   -8    6    9     -0.25      0.00
   -7    6    9     -0.30      0.00
   -6    6    9      0.14      0.00
   -5    6    9      0.93      0.00
   -4    6    9      0.75      0.00
   -3    6    9     -0.45      0.00
   -2    6    9     -0.61      0.00
   -1    6    9      0.18      0.00
    0    6    9      0.69      0.00
    2    6    9      0.32      0.00
    3    6    9      0.32      0.00
    4    6    9      0.34      0.00
    5    6    9      0.40      0.00
    6    6    9      0.34      0.00
    7    6    9      0.10      0.00
    8    6    9      0.05      0.00
    9    6    9      0.00      0.00
  -11    7    9      0.47      0.00
  -10    7    9     -0.42      0.00
   -9    7    9     -0.87      0.00
   -8    7    9     -0.73      0.00
   -7    7    9     -0.48      0.00
   -6    7    9      0.19      0.00
   -5    7    9      0.29      0.00
   -4    7    9     -0.02      0.00
   -3    7    9      0.19      0.00
   -2    7    9      0.31      0.00
   -1    7    9      0.15      0.00
    0    7    9      0.37      0.00
    1    7    9      0.59      0.00
    2    7    9      0.21      0.00
    3    7    9      0.04      0.00
    4    7    9      0.19      0.00
    5    7    9      0.09      0.00
    6    7    9      0.26      0.00
    7    7    9      0.43      0.00
    8    7    9      0.15      0.00
    9    7    9     -0.02      0.00
  -11    8    9      0.27      0.00
  -10    8    9     -0.27      0.00
   -9    8    9     -1.10      0.00
   -8    8    9     -0.80      0.00
   -7    8    9     -0.43      0.00
   -6    8    9      0.06      0.00
   -5    8    9      0.25      0.00
   -4    8    9     -0.58      0.00
   -3    8    9     -0.26      0.00
   -2    8    9      0.64      0.00
   -1    8    9      0.32      0.00
    0    8    9      0.17      0.00
    1    8    9      0.46      0.00
    2    8    9      0.04      0.00
    3    8    9     -0.33      0.00
    4    8    9      0.02      0.00
    5    8    9      0.03      0.00
    6    8    9      0.01      0.00
    7    8    9      0.50      0.00
    8    8    9      0.38      0.00
    9    8    9      0.02      0.00
  -10    9    9     -0.12      0.00
   -9    9    9     -0.60      0.00
   -8    9    9     -0.62      0.00
   -7    9    9     -0.06      0.00
   -6    9    9     -0.05      0.00
   -5    9    9     -0.11      0.00
   -4    9    9     -0.52      0.00
   -3    9    9     -0.48      0.00
   -2    9    9      0.35      0.00
   -1    9    9      0.06      0.00
    0    9    9     -0.36      0.00
    1    9    9     -0.02      0.00
    2    9    9     -0.09      0.00
    3    9    9     -0.13      0.00
    4    9    9      0.38      0.00
    5    9    9      0.40      0.00
    6    9    9     -0.12      0.00
    7    9    9     -0.01      0.00
    8    9    9      0.28      0.00
   -9   10    9      0.02      0.00
   -8   10    9     -0.43      0.00
   -7   10    9     -0.17      0.00
   -6   10    9      0.20      0.00
   -5   10    9     -0.13      0.00
   -4   10    9     -0.35      0.00
   -3   10    9     -0.34      0.00
   -2   10    9     -0.14      0.00
   -1   10    9     -0.34      0.00
    0   10    9     -0.54      0.00
    1   10    9     -0.06      0.00
    2   10    9      0.09      0.00
    3   10    9      0.24      0.00
    4   10    9      0.76      0.00
    5   10    9      0.63      0.00
    6   10    9     -0.04      0.00
    7   10    9     -0.41      0.00
   -8   11    9     -0.17      0.00
   -7   11    9     -0.53      0.00
   -6   11    9      0.08      0.00
   -5   11    9      0.26      0.00
   -4   11    9     -0.02      0.00
   -3   11    9     -0.04      0.00
   -2   11    9     -0.26      0.00
   -1   11    9     -0.47      0.00
    0   11    9     -0.28      0.00
    1   11    9      0.29      0.00
    2   11    9      0.49      0.00
    3   11    9      0.42      0.00
    4   11    9      0.67      0.00
    5   11    9      0.46      0.00
    6   11    9     -0.06      0.00
   -6   12    9     -0.11      0.00
   -5   12    9      0.35      0.00
   -4   12    9      0.10      0.00
   -3   12    9      0.07      0.00
   -2   12    9      0.14      0.00
   -1   12    9      0.00      0.00
    0   12    9      0.09      0.00
    1   12    9      0.25      0.00
    2   12    9      0.44      0.00
    3   12    9      0.48      0.00
    4   12    9      0.44      0.00
   -5   13    9      0.40      0.00
   -4   13    9      0.19      0.00
   -3   13    9     -0.11      0.00
   -2   13    9      0.26      0.00
   -1   13    9      0.48      0.00
    0   13    9      0.39      0.00
    1   13    9      0.09      0.00
    2   13    9      0.04      0.00
   -4  -13   10     -0.35      0.00
   -3  -13   10     -0.30      0.00
   -2  -13   10     -0.26      0.00
   -1  -13   10      0.08      0.00
    0  -13   10      0.59      0.00
    1  -13   10      0.64      0.00
    2  -13   10      0.51      0.00
    3  -13   10      0.19      0.00
   -6  -12   10     -0.38      0.00
   -5  -12   10     -0.10      0.00
   -4  -12   10     -0.35      0.00
   -3  -12   10     -0.27      0.00
   -2  -12   10      0.03      0.00
   -1  -12   10      0.06      0.00
    0  -12   10      0.54      0.00
    1  -12   10      0.84      0.00
    2  -12   10      0.20      0.00
    3  -12   10     -0.11      0.00
    4  -12   10     -0.08      0.00
    5  -12   10     -0.07      0.00
   -8  -11   10      0.32      0.00
   -7  -11   10     -0.33      0.00
   -6  -11   10     -0.66      0.00
   -5  -11   10     -0.31      0.00
   -4  -11   10     -0.19      0.00
   -3  -11   10     -0.39      0.00
   -2  -11   10     -0.12      0.00
   -1  -11   10     -0.08      0.00
    0  -11   10      0.10      0.00
    1  -11   10      0.79      0.00
    2  -11   10      0.18      0.00
    3  -11   10     -0.60      0.00
    4  -11   10     -0.02      0.00
    5  -11   10      0.25      0.00
    6  -11   10      0.05      0.00
   -9  -10   10      0.14      0.00
   -8  -10   10     -0.25      0.00
   -7  -10   10      0.03      0.00
   -6  -10   10      0.51      0.00
   -5  -10   10      0.30      0.00
   -4  -10   10     -0.09      0.00
   -3  -10   10     -0.65      0.00
   -2  -10   10     -0.68      0.00
   -1  -10   10     -0.17      0.00
    0  -10   10     -0.01      0.00
    1  -10   10      0.46      0.00
    2  -10   10      0.43      0.00
    3  -10   10     -0.57      0.00
    4  -10   10     -0.42      0.00
    5  -10   10      0.41      0.00
    6  -10   10      0.44      0.00
    7  -10   10      0.19      0.00
  -10   -9   10     -0.34      0.00
   -9   -9   10      0.19      0.00
   -8   -9   10     -0.31      0.00
   -7   -9   10     -0.27      0.00
   -6   -9   10      1.37      0.00
   -5   -9   10      1.40      0.00
   -4   -9   10     -0.01      0.00
   -3   -9   10     -0.89      0.00
   -2   -9   10     -1.08      0.00
   -1   -9   10     -0.28      0.00
    0   -9   10      0.46      0.00
    1   -9   10      0.48      0.00
    2   -9   10      0.45      0.00
    3   -9   10      0.01      0.00
    4   -9   10     -0.45      0.00
    5   -9   10      0.04      0.00
    6   -9   10      0.65      0.00
    7   -9   10      0.48      0.00
    8   -9   10     -0.18      0.00
  -10   -8   10     -0.58      0.00
   -9   -8   10     -0.32      0.00
   -8   -8   10      0.16      0.00
   -7   -8   10     -0.18      0.00
   -6   -8   10      1.04      0.00
   -5   -8   10      1.88      0.00
   -4   -8   10      0.31      0.00
   -3   -8   10     -0.88      0.00
   -2   -8   10     -1.17      0.00
   -1   -8   10     -0.70      0.00
    0   -8   10      0.68      0.00
    1   -8   10      1.18      0.00
    2   -8   10      0.62      0.00
    3   -8   10      0.29      0.00
    4   -8   10     -0.03      0.00
    5   -8   10     -0.19      0.00
    6   -8   10      0.32      0.00
    7   -8   10      0.45      0.00
    8   -8   10     -0.21      0.00
  -11   -7   10     -0.84      0.00
  -10   -7   10     -0.02      0.00
   -9   -7   10     -0.85      0.00
   -8   -7   10     -0.55      0.00
   -7   -7   10     -0.16      0.00
   -6   -7   10      0.38      0.00
   -5   -7   10      1.61      0.00
   -4   -7   10      0.95      0.00
   -3   -7   10     -0.35      0.00
   -2   -7   10     -0.93      0.00
   -1   -7   10     -1.25      0.00
    0   -7   10     -0.05      0.00
    1   -7   10      1.48      0.00
    2   -7   10      1.14      0.00
    3   -7   10      0.20      0.00
    4   -7   10     -0.15      0.00
    5   -7   10     -0.38      0.00
    6   -7   10     -0.09      0.00
    7   -7   10      0.25      0.00
    8   -7   10     -0.04      0.00
    9   -7   10     -0.27      0.00
  -11   -6   10     -1.19      0.00
  -10   -6   10      0.57      0.00
   -9   -6   10     -0.22      0.00
   -8   -6   10     -1.41      0.00
   -7   -6   10     -0.83      0.00
   -6   -6   10     -0.20      0.00
   -5   -6   10      0.86      0.00
   -4   -6   10      1.07      0.00
   -3   -6   10      0.02      0.00
   -2   -6   10     -0.53      0.00
   -1   -6   10     -1.07      0.00
    0   -6   10     -0.82      0.00
    1   -6   10      0.61      0.00
    2   -6   10      0.89      0.00
    3   -6   10      0.05      0.00
    4   -6   10     -0.47      0.00
    5   -6   10     -0.79      0.00
    6   -6   10     -0.47      0.00
    7   -6   10      0.22      0.00
    8   -6   10      0.17      0.00
    9   -6   10      0.10      0.00
   10   -6   10     -0.04      0.00
  -12   -5   10     -0.10      0.00
  -11   -5   10      0.04      0.00
  -10   -5   10      0.76      0.00
   -9   -5   10      0.35      0.00
   -8   -5   10     -0.96      0.00
   -7   -5   10     -0.89      0.00
   -6   -5   10     -0.48      0.00
   -5   -5   10     -0.05      0.00
   -4   -5   10      0.21      0.00
   -3   -5   10     -0.72      0.00
   -2   -5   10     -0.92      0.00
   -1   -5   10     -0.34      0.00
    0   -5   10     -0.33      0.00
    2   -5   10     -0.21      0.00
    3   -5   10     -0.53      0.00
    4   -5   10     -0.32      0.00
    5   -5   10     -0.56      0.00
    6   -5   10     -0.65      0.00
    7   -5   10      0.19      0.00
    8   -5   10      0.29      0.00
    9   -5   10     -0.05      0.00
   10   -5   10      0.06      0.00
  -12   -4   10      0.02      0.00
  -11   -4   10      1.16      0.00
  -10   -4   10      1.19      0.00
   -9   -4   10      0.17      0.00
   -8   -4   10     -0.38      0.00
   -7   -4   10     -0.10      0.00
   -6   -4   10     -0.16      0.00
   -5   -4   10     -0.59      0.00
   -4   -4   10     -0.88      0.00
   -3   -4   10     -2.00      0.00
   -2   -4   10     -2.27      0.00
   -1   -4   10     -0.36      0.00
    0   -4   10      0.75      0.00
    1   -4   10      0.44      0.00
    2   -4   10     -0.29      0.00
    3   -4   10     -1.04      0.00
    4   -4   10     -0.35      0.00
    5   -4   10      0.26      0.00
    6   -4   10     -0.25      0.00
    7   -4   10      0.07      0.00
    8   -4   10      0.22      0.00
    9   -4   10     -0.40      0.00
   10   -4   10     -0.17      0.00
   11   -4   10      0.14      0.00
  -13   -3   10     -0.56      0.00
  -12   -3   10     -0.42      0.00
  -11   -3   10      0.31      0.00
  -10   -3   10      0.86      0.00
   -9   -3   10      0.06      0.00
   -8   -3   10     -0.30      0.00
   -7   -3   10      0.46      0.00
   -6   -3   10      0.49      0.00
   -5   -3   10     -0.36      0.00
   -4   -3   10     -1.44      0.00
   -3   -3   10     -2.87      0.00
   -2   -3   10     -3.29      0.00
    0   -3   10      0.97      0.00
    1   -3   10      1.14      0.00
    2   -3   10      0.87      0.00
    3   -3   10     -0.33      0.00
    4   -3   10     -0.74      0.00
    5   -3   10      0.41      0.00
    6   -3   10      0.26      0.00
    7   -3   10     -0.03      0.00
    8   -3   10      0.05      0.00
    9   -3   10     -0.62      0.00
   10   -3   10     -0.36      0.00
   11   -3   10      0.37      0.00
  -13   -2   10     -0.68      0.00
  -12   -2   10     -0.01      0.00
  -11   -2   10     -0.30      0.00
  -10   -2   10     -0.52      0.00
   -9   -2   10     -0.49      0.00
   -8   -2   10     -0.53      0.00
   -7   -2   10      0.53      0.00
   -6   -2   10      1.35      0.00
   -4   -2   10     -1.30      0.00
   -1   -2   10     -1.05      0.00
    0   -2   10      0.44      0.00
    2   -2   10      1.05      0.00
    3   -2   10      0.91      0.00
    4   -2   10     -0.58      0.00
    5   -2   10     -0.14      0.00
    6   -2   10      0.33      0.00
    7   -2   10     -0.10      0.00
    8   -2   10      0.02      0.00
    9   -2   10     -0.60      0.00
   10   -2   10     -0.59      0.00
   11   -2   10      0.40      0.00
  -13   -1   10     -0.86      0.00
  -12   -1   10      0.25      0.00
  -11   -1   10      0.66      0.00
  -10   -1   10     -0.51      0.00
   -9   -1   10     -1.18      0.00
   -8   -1   10     -1.36      0.00
   -7   -1   10     -0.10      0.00
   -6   -1   10      2.11      0.00
   -5   -1   10      1.98      0.00
   -4   -1   10     -0.74      0.00
   -3   -1   10     -3.07      0.00
   -1   -1   10     -0.10      0.00
    0   -1   10      0.22      0.00
    1   -1   10     -0.97      0.00
    2   -1   10     -0.40      0.00
    3   -1   10      1.07      0.00
    4   -1   10      0.30      0.00
    6   -1   10      0.22      0.00
    7   -1   10     -0.14      0.00
    8   -1   10      0.16      0.00
    9   -1   10     -0.04      0.00
   10   -1   10     -0.71      0.00
   11   -1   10     -0.03      0.00
  -13    0   10     -0.38      0.00
  -12    0   10     -0.05      0.00
  -11    0   10      0.80      0.00
  -10    0   10      0.63      0.00
   -9    0   10     -0.53      0.00
   -8    0   10     -1.72      0.00
   -7    0   10     -1.20      0.00
   -6    0   10      1.85      0.00
   -5    0   10      3.08      0.00
   -4    0   10      0.15      0.00
   -3    0   10     -2.66      0.00
   -2    0   10     -1.83      0.00
    0    0   10      0.31      0.00
    1    0   10     -1.20      0.00
    2    0   10     -1.38      0.00
    3    0   10      0.30      0.00
    4    0   10      1.04      0.00
    5    0   10      0.51      0.00
    6    0   10      0.39      0.00
    7    0   10      0.02      0.00
    8    0   10      0.21      0.00
    9    0   10      0.67      0.00
   10    0   10     -0.11      0.00
  -13    1   10     -0.19      0.00
  -12    1   10      0.21      0.00
  -11    1   10      0.00      0.00
  -10    1   10      0.28      0.00
   -9    1   10      0.22      0.00
   -8    1   10     -0.79      0.00
   -7    1   10     -1.19      0.00
   -6    1   10      0.79      0.00
   -5    1   10      2.85      0.00
   -3    1   10     -1.67      0.00
   -1    1   10     -0.25      0.00
    0    1   10      0.05      0.00
    1    1   10     -0.30      0.00
    2    1   10     -0.69      0.00
    3    1   10     -0.30      0.00
    4    1   10      0.89      0.00
    5    1   10      1.21      0.00
    6    1   10      0.77      0.00
    7    1   10      0.42      0.00
    8    1   10      0.32      0.00
    9    1   10      0.76      0.00
   10    1   10      0.70      0.00
  -13    2   10     -1.32      0.00
  -12    2   10      0.08      0.00
  -11    2   10      0.34      0.00
  -10    2   10     -0.41      0.00
   -9    2   10     -0.37      0.00
   -8    2   10     -0.19      0.00
   -7    2   10      0.15      0.00
   -6    2   10      0.70      0.00
   -5    2   10      1.24      0.00
   -4    2   10      0.86      0.00
   -3    2   10     -0.44      0.00
   -2    2   10     -0.61      0.00
   -1    2   10     -0.22      0.00
    0    2   10     -0.20      0.00
    2    2   10      0.18      0.00
    4    2   10      0.04      0.00
    5    2   10      1.12      0.00
    6    2   10      0.92      0.00
    7    2   10      0.67      0.00
    8    2   10      0.71      0.00
    9    2   10      0.56      0.00
  -13    3   10     -2.25      0.00
  -12    3   10     -1.50      0.00
  -11    3   10      0.63      0.00
  -10    3   10      0.44      0.00
   -9    3   10     -0.55      0.00
   -8    3   10     -0.57      0.00
   -7    3   10      0.75      0.00
   -6    3   10      1.82      0.00
   -5    3   10      0.43      0.00
   -2    3   10      0.60      0.00
   -1    3   10      1.13      0.00
    0    3   10      0.41      0.00
    1    3   10      0.17      0.00
    3    3   10     -0.86      0.00
    4    3   10     -0.50      0.00
    5    3   10      0.63      0.00
    6    3   10      0.72      0.00
    7    3   10      0.48      0.00
    8    3   10      0.80      0.00
    9    3   10      0.64      0.00
  -12    4   10     -2.38      0.00
  -11    4   10     -0.50      0.00
  -10    4   10      1.04      0.00
   -9    4   10      0.38      0.00
   -8    4   10     -0.53      0.00
   -7    4   10     -0.02      0.00
   -6    4   10      1.86      0.00
   -5    4   10      1.29      0.00
   -4    4   10     -1.57      0.00
   -3    4   10     -1.92      0.00
   -2    4   10      0.21      0.00
    3    4   10     -0.68      0.00
    4    4   10     -0.15      0.00
    5    4   10      0.56      0.00
    6    4   10      0.44      0.00
    7    4   10      0.17      0.00
    8    4   10      0.42      0.00
    9    4   10      0.57      0.00
  -12    5   10     -1.12      0.00
  -11    5   10     -1.07      0.00
  -10    5   10      0.21      0.00
   -9    5   10      0.62      0.00
   -8    5   10     -0.01      0.00
   -7    5   10     -0.51      0.00
   -6    5   10      0.41      0.00
   -4    5   10     -0.05      0.00
   -2    5   10     -0.82      0.00
   -1    5   10      0.44      0.00
    0    5   10      0.64      0.00
    1    5   10     -0.05      0.00
    3    5   10     -0.03      0.00
    4    5   10      0.47      0.00
    5    5   10      0.69      0.00
    6    5   10      0.28      0.00
    7    5   10      0.05      0.00
    8    5   10      0.20      0.00
    9    5   10      0.34      0.00
  -12    6   10      0.29      0.00
  -11    6   10     -0.13      0.00
  -10    6   10     -0.54      0.00
   -9    6   10     -0.21      0.00
   -8    6   10     -0.12      0.00
   -7    6   10     -0.25      0.00
   -6    6   10     -0.26      0.00
   -5    6   10      0.20      0.00
   -4    6   10      0.48      0.00
   -3    6   10     -0.01      0.00
   -1    6   10     -0.50      0.00
    0    6   10      0.00      0.00
    1    6   10      0.05      0.00
    2    6   10     -0.15      0.00
    3    6   10      0.17      0.00
    4    6   10      0.43      0.00
    5    6   10      0.39      0.00
    6    6   10      0.23      0.00
    7    6   10      0.09      0.00
    8    6   10      0.20      0.00
    9    6   10      0.32      0.00
  -11    7   10      0.57      0.00
  -10    7   10     -0.44      0.00
   -9    7   10     -0.83      0.00
   -8    7   10     -0.47      0.00
   -7    7   10     -0.15      0.00
   -6    7   10      0.15      0.00
   -5    7   10     -0.29      0.00
   -4    7   10     -0.44      0.00
   -3    7   10      0.30      0.00
   -2    7   10      0.28      0.00
   -1    7   10     -0.28      0.00
    0    7   10     -0.03      0.00
    1    7   10      0.16      0.00
    2    7   10     -0.33      0.00
    3    7   10     -0.32      0.00
    4    7   10     -0.07      0.00
    5    7   10     -0.22      0.00
    6    7   10      0.07      0.00
    7    7   10      0.35      0.00
    8    7   10      0.20      0.00
    9    7   10      0.28      0.00
  -11    8   10      0.23      0.00
  -10    8   10     -0.04      0.00
   -9    8   10     -0.65      0.00
   -8    8   10     -0.34      0.00
   -7    8   10     -0.06      0.00
   -6    8   10      0.13      0.00
   -5    8   10     -0.11      0.00
   -4    8   10     -0.82      0.00
   -3    8   10     -0.20      0.00
   -2    8   10      0.43      0.00
   -1    8   10     -0.12      0.00
    0    8   10     -0.18      0.00
    1    8   10     -0.05      0.00
    2    8   10     -0.55      0.00
    3    8   10     -0.56      0.00
    4    8   10     -0.11      0.00
    5    8   10     -0.35      0.00
    6    8   10     -0.33      0.00
    7    8   10      0.33      0.00
    8    8   10      0.34      0.00
  -10    9   10      0.19      0.00
   -9    9   10     -0.03      0.00
   -8    9   10     -0.17      0.00
   -7    9   10      0.20      0.00
   -6    9   10      0.02      0.00
   -5    9   10     -0.27      0.00
   -4    9   10     -0.59      0.00
   -3    9   10     -0.36      0.00
   -2    9   10      0.15      0.00
   -1    9   10     -0.31      0.00
    0    9   10     -0.56      0.00
    1    9   10     -0.34      0.00
    2    9   10     -0.44      0.00
    3    9   10     -0.18      0.00
    4    9   10      0.36      0.00
    5    9   10      0.10      0.00
    6    9   10     -0.51      0.00
    7    9   10     -0.27      0.00
   -9   10   10      0.38      0.00
   -8   10   10     -0.22      0.00
   -7   10   10     -0.10      0.00
   -6   10   10      0.23      0.00
   -5   10   10     -0.14      0.00
   -4   10   10     -0.31      0.00
   -3   10   10     -0.25      0.00
   -2   10   10     -0.17      0.00
   -1   10   10     -0.36      0.00
    0   10   10     -0.44      0.00
    1   10   10     -0.10      0.00
    2   10   10      0.01      0.00
    3   10   10      0.25      0.00
    4   10   10      0.54      0.00
    5   10   10      0.31      0.00
    6   10   10     -0.24      0.00
    7   10   10     -0.60      0.00
   -8   11   10     -0.12      0.00
   -7   11   10     -0.54      0.00
   -6   11   10      0.08      0.00
   -5   11   10      0.22      0.00
   -4   11   10     -0.06      0.00
   -3   11   10     -0.03      0.00
   -2   11   10     -0.14      0.00
   -1   11   10     -0.14      0.00
    0   11   10      0.02      0.00
    1   11   10      0.26      0.00
    2   11   10      0.38      0.00
    3   11   10      0.36      0.00
    4   11   10      0.32      0.00
    5   11   10      0.08      0.00
   -6   12   10     -0.04      0.00
   -5   12   10      0.27      0.00
   -4   12   10     -0.12      0.00
   -3   12   10     -0.08      0.00
   -2   12   10      0.19      0.00
   -1   12   10      0.27      0.00
    0   12   10      0.28      0.00
    1   12   10      0.15      0.00
    2   12   10      0.27      0.00
    3   12   10      0.32      0.00
    4   12   10      0.14      0.00
   -4   13   10     -0.08      0.00
   -3   13   10     -0.35      0.00
   -2   13   10      0.17      0.00
   -1   13   10      0.45      0.00
    0   13   10      0.31      0.00
    1   13   10      0.01      0.00
   -4  -13   11     -0.24      0.00
   -3  -13   11     -0.08      0.00
   -2  -13   11     -0.09      0.00
   -1  -13   11     -0.03      0.00
    0  -13   11      0.26      0.00
    1  -13   11      0.19      0.00
   -6  -12   11     -0.51      0.00
   -5  -12   11     -0.40      0.00
   -4  -12   11     -0.50      0.00
   -3  -12   11     -0.19      0.00
   -2  -12   11      0.02      0.00
   -1  -12   11     -0.35      0.00
    0  -12   11     -0.09      0.00
    1  -12   11      0.08      0.00
    2  -12   11     -0.55      0.00
    3  -12   11     -0.40      0.00
    4  -12   11      0.13      0.00
   -7  -11   11      0.01      0.00
   -6  -11   11     -0.44      0.00
   -5  -11   11     -0.66      0.00
   -4  -11   11     -0.67      0.00
   -3  -11   11     -0.54      0.00
   -2  -11   11     -0.20      0.00
   -1  -11   11     -0.52      0.00
    0  -11   11     -0.59      0.00
    1  -11   11     -0.06      0.00
    2  -11   11     -0.66      0.00
    3  -11   11     -0.87      0.00
    4  -11   11      0.22      0.00
    5  -11   11      0.49      0.00
    6  -11   11      0.12      0.00
   -9  -10   11     -0.35      0.00
   -8  -10   11     -0.77      0.00
   -7  -10   11      0.25      0.00
   -6  -10   11      0.77      0.00
   -5  -10   11     -0.22      0.00
   -4  -10   11     -0.89      0.00
   -3  -10   11     -0.97      0.00
   -2  -10   11     -0.58      0.00
   -1  -10   11     -0.23      0.00
    0  -10   11     -0.46      0.00
    1  -10   11     -0.24      0.00
    2  -10   11     -0.27      0.00
    3  -10   11     -0.78      0.00
    4  -10   11     -0.15      0.00
    5  -10   11      0.61      0.00
    6  -10   11      0.37      0.00
  -10   -9   11     -0.34      0.00
   -9   -9   11     -0.15      0.00
   -8   -9   11     -0.77      0.00
   -7   -9   11     -0.18      0.00
   -6   -9   11      1.41      0.00
   -5   -9   11      0.56      0.00
   -4   -9   11     -1.06      0.00
   -3   -9   11     -1.29      0.00
   -2   -9   11     -0.82      0.00
   -1   -9   11      0.13      0.00
    0   -9   11      0.48      0.00
    1   -9   11      0.06      0.00
    2   -9   11      0.03      0.00
    3   -9   11     -0.06      0.00
    4   -9   11     -0.25      0.00
    5   -9   11      0.17      0.00
    6   -9   11      0.49      0.00
    7   -9   11      0.08      0.00
    8   -9   11     -0.48      0.00
  -10   -8   11     -0.85      0.00
   -9   -8   11     -0.58      0.00
   -8   -8   11     -0.19      0.00
   -7   -8   11     -0.26      0.00
   -6   -8   11      1.01      0.00
   -5   -8   11      1.09      0.00
   -4   -8   11     -0.68      0.00
   -3   -8   11     -1.23      0.00
   -2   -8   11     -0.88      0.00
   -1   -8   11     -0.03      0.00
    0   -8   11      1.15      0.00
    1   -8   11      1.00      0.00
    2   -8   11      0.29      0.00
    3   -8   11      0.27      0.00
    4   -8   11      0.00      0.00
    5   -8   11     -0.30      0.00
    6   -8   11      0.11      0.00
    7   -8   11      0.09      0.00
    8   -8   11     -0.50      0.00
  -11   -7   11     -0.56      0.00
  -10   -7   11     -0.40      0.00
   -9   -7   11     -1.25      0.00
   -8   -7   11     -0.75      0.00
   -7   -7   11     -0.30      0.00
   -6   -7   11      0.46      0.00
   -5   -7   11      1.23      0.00
   -4   -7   11      0.15      0.00
   -3   -7   11     -0.67      0.00
   -2   -7   11     -0.60      0.00
   -1   -7   11     -0.41      0.00
    0   -7   11      0.71      0.00
    1   -7   11      1.39      0.00
    2   -7   11      0.59      0.00
    3   -7   11     -0.04      0.00
    4   -7   11     -0.29      0.00
    5   -7   11     -0.63      0.00
    6   -7   11     -0.28      0.00
    7   -7   11      0.02      0.00
    8   -7   11     -0.25      0.00
    9   -7   11     -0.30      0.00
  -11   -6   11     -0.40      0.00
  -10   -6   11      0.39      0.00
   -9   -6   11     -0.86      0.00
   -8   -6   11     -1.42      0.00
   -7   -6   11     -0.61      0.00
   -6   -6   11      0.06      0.00
   -5   -6   11      0.81      0.00
   -4   -6   11      0.34      0.00
   -3   -6   11     -0.48      0.00
   -2   -6   11     -0.22      0.00
   -1   -6   11     -0.13      0.00
    1   -6   11      0.66      0.00
    3   -6   11     -0.39      0.00
    4   -6   11     -0.65      0.00
    5   -6   11     -0.90      0.00
    6   -6   11     -0.40      0.00
    7   -6   11      0.12      0.00
    8   -6   11     -0.18      0.00
    9   -6   11     -0.12      0.00
  -12   -5   11      0.13      0.00
  -11   -5   11      0.62      0.00
  -10   -5   11      0.63      0.00
   -9   -5   11     -0.43      0.00
   -8   -5   11     -0.95      0.00
   -7   -5   11     -0.25      0.00
   -6   -5   11     -0.06      0.00
   -5   -5   11     -0.03      0.00
   -4   -5   11     -0.41      0.00
   -3   -5   11     -1.25      0.00
   -2   -5   11     -0.60      0.00
   -1   -5   11      0.50      0.00
    1   -5   11      0.37      0.00
    2   -5   11     -0.42      0.00
    3   -5   11     -0.76      0.00
    4   -5   11     -0.38      0.00
    5   -5   11     -0.57      0.00
    6   -5   11     -0.36      0.00
    7   -5   11      0.31      0.00
    8   -5   11     -0.19      0.00
    9   -5   11     -0.51      0.00
   10   -5   11     -0.06      0.00
  -12   -4   11     -0.04      0.00
  -11   -4   11      0.90      0.00
  -10   -4   11      0.51      0.00
   -9   -4   11     -0.74      0.00
   -8   -4   11     -0.46      0.00
   -7   -4   11      0.71      0.00
   -6   -4   11      0.39      0.00
   -5   -4   11     -0.67      0.00
   -4   -4   11     -1.35      0.00
   -3   -4   11     -2.11      0.00
   -2   -4   11     -1.47      0.00
    0   -4   11      1.40      0.00
    1   -4   11      1.25      0.00
    2   -4   11      0.26      0.00
    3   -4   11     -0.79      0.00
    4   -4   11     -0.19      0.00
    5   -4   11      0.16      0.00
    6   -4   11     -0.17      0.00
    7   -4   11      0.27      0.00
    8   -4   11     -0.11      0.00
    9   -4   11     -0.85      0.00
   10   -4   11     -0.29      0.00
  -13   -3   11     -0.32      0.00
  -12   -3   11     -0.28      0.00
  -11   -3   11     -0.29      0.00
  -10   -3   11     -0.35      0.00
   -9   -3   11     -1.11      0.00
   -8   -3   11     -0.62      0.00
   -7   -3   11      1.23      0.00
   -6   -3   11      1.35      0.00
   -5   -3   11     -0.37      0.00
   -4   -3   11     -1.93      0.00
   -3   -3   11     -2.55      0.00
   -1   -3   11      0.56      0.00
    0   -3   11      1.43      0.00
    1   -3   11      1.52      0.00
    2   -3   11      1.57      0.00
    5   -3   11      0.32      0.00
    6   -3   11      0.00      0.00
    7   -3   11      0.07      0.00
    8   -3   11     -0.06      0.00
    9   -3   11     -0.90      0.00
   10   -3   11     -0.40      0.00
  -13   -2   11     -0.24      0.00
  -12   -2   11      0.52      0.00
  -11   -2   11     -0.50      0.00
  -10   -2   11     -1.37      0.00
   -9   -2   11     -1.51      0.00
   -8   -2   11     -1.11      0.00
   -7   -2   11      0.94      0.00
   -6   -2   11      2.30      0.00
   -5   -2   11      0.87      0.00
   -4   -2   11     -1.76      0.00
   -2   -2   11     -1.02      0.00
   -1   -2   11      1.31      0.00
    0   -2   11      1.28      0.00
    1   -2   11      0.33      0.00
    2   -2   11      1.21      0.00
    3   -2   11      1.23      0.00
    4   -2   11     -0.08      0.00
    5   -2   11      0.05      0.00
    6   -2   11      0.02      0.00
    7   -2   11     -0.06      0.00
    8   -2   11      0.13      0.00
    9   -2   11     -0.77      0.00
   10   -2   11     -0.65      0.00
  -13   -1   11     -0.34      0.00
  -12   -1   11      0.84      0.00
  -11   -1   11      0.68      0.00
  -10   -1   11     -0.76      0.00
   -9   -1   11     -1.46      0.00
   -8   -1   11     -1.64      0.00
   -7   -1   11     -0.05      0.00
   -6   -1   11      2.44      0.00
   -1   -1   11      1.72      0.00
    0   -1   11      1.39      0.00
    1   -1   11     -0.61      0.00
    3   -1   11      1.15      0.00
    5   -1   11      0.27      0.00
    6   -1   11      0.12      0.00
    7   -1   11     -0.09      0.00
    8   -1   11      0.42      0.00
    9   -1   11     -0.16      0.00
   10   -1   11     -0.83      0.00
   11   -1   11     -0.12      0.00
  -13    0   11      0.09      0.00
  -12    0   11      0.39      0.00
  -11    0   11      0.69      0.00
  -10    0   11      0.35      0.00
   -9    0   11     -0.48      0.00
   -8    0   11     -1.36      0.00
   -7    0   11     -0.91      0.00
   -6    0   11      1.45      0.00
   -5    0   11      2.18      0.00
   -4    0   11     -0.05      0.00
   -3    0   11     -1.63      0.00
   -1    0   11      0.91      0.00
    0    0   11      1.06      0.00
    1    0   11     -0.15      0.00
    2    0   11     -0.79      0.00
    3    0   11      0.41      0.00
    4    0   11      1.24      0.00
    5    0   11      0.85      0.00
    6    0   11      0.48      0.00
    7    0   11      0.08      0.00
    8    0   11      0.38      0.00
    9    0   11      0.52      0.00
   10    0   11     -0.24      0.00
  -13    1   11     -0.04      0.00
  -12    1   11      0.49      0.00
  -11    1   11     -0.02      0.00
  -10    1   11     -0.08      0.00
   -9    1   11     -0.09      0.00
   -8    1   11     -0.43      0.00
   -7    1   11     -0.44      0.00
   -6    1   11      0.41      0.00
   -4    1   11      0.18      0.00
   -3    1   11     -0.53      0.00
   -2    1   11     -0.10      0.00
   -1    1   11      0.05      0.00
    0    1   11      0.21      0.00
    1    1   11      0.54      0.00
    4    1   11      0.80      0.00
    5    1   11      0.98      0.00
    6    1   11      0.67      0.00
    7    1   11      0.52      0.00
    8    1   11      0.33      0.00
    9    1   11      0.50      0.00
   10    1   11      0.55      0.00
  -13    2   11     -1.59      0.00
  -12    2   11      0.10      0.00
  -11    2   11      0.46      0.00
  -10    2   11     -0.44      0.00
   -9    2   11     -0.79      0.00
   -8    2   11     -0.36      0.00
   -7    2   11      0.75      0.00
   -6    2   11      0.74      0.00
   -5    2   11     -0.42      0.00
   -4    2   11     -0.86      0.00
   -3    2   11     -0.06      0.00
   -2    2   11      1.03      0.00
    0    2   11     -0.15      0.00
    1    2   11      0.27      0.00
    2    2   11      0.09      0.00
    3    2   11     -0.53      0.00
    4    2   11      0.06      0.00
    5    2   11      0.58      0.00
    6    2   11      0.40      0.00
    7    2   11      0.62      0.00
    8    2   11      0.64      0.00
    9    2   11      0.32      0.00
  -13    3   11     -2.49      0.00
  -12    3   11     -1.60      0.00
  -11    3   11      0.62      0.00
  -10    3   11      0.55      0.00
   -9    3   11     -0.66      0.00
   -8    3   11     -0.96      0.00
   -7    3   11      0.69      0.00
   -6    3   11      1.75      0.00
   -4    3   11     -2.24      0.00
   -3    3   11     -0.94      0.00
   -2    3   11      1.33      0.00
   -1    3   11      1.66      0.00
    0    3   11      0.23      0.00
    1    3   11     -0.46      0.00
    2    3   11     -0.65      0.00
    4    3   11     -0.10      0.00
    5    3   11      0.40      0.00
    6    3   11      0.11      0.00
    7    3   11      0.17      0.00
    8    3   11      0.64      0.00
    9    3   11      0.56      0.00
  -12    4   11     -2.19      0.00
  -11    4   11     -0.56      0.00
  -10    4   11      0.89      0.00
   -9    4   11      0.36      0.00
   -8    4   11     -0.71      0.00
   -7    4   11     -0.44      0.00
   -6    4   11      1.26      0.00
   -5    4   11      0.70      0.00
   -4    4   11     -1.70      0.00
   -3    4   11     -1.80      0.00
   -1    4   11      1.15      0.00
    0    4   11      0.32      0.00
    1    4   11     -0.77      0.00
    2    4   11     -0.88      0.00
    3    4   11     -0.43      0.00
    4    4   11      0.37      0.00
    5    4   11      0.57      0.00
    6    4   11      0.09      0.00
    7    4   11     -0.11      0.00
    8    4   11      0.26      0.00
    9    4   11      0.67      0.00
  -12    5   11     -0.64      0.00
  -11    5   11     -0.93      0.00
  -10    5   11     -0.06      0.00
   -9    5   11      0.45      0.00
   -8    5   11      0.03      0.00
   -7    5   11     -0.67      0.00
   -6    5   11     -0.27      0.00
   -5    5   11      0.63      0.00
   -4    5   11      0.05      0.00
   -3    5   11     -0.93      0.00
   -2    5   11     -0.97      0.00
   -1    5   11     -0.37      0.00
    0    5   11     -0.12      0.00
    1    5   11     -0.56      0.00
    2    5   11     -0.49      0.00
    3    5   11      0.16      0.00
    4    5   11      0.64      0.00
    5    5   11      0.52      0.00
    6    5   11      0.05      0.00
    7    5   11     -0.04      0.00
    8    5   11      0.23      0.00
    9    5   11      0.60      0.00
  -12    6   11      0.62      0.00
  -11    6   11      0.11      0.00
  -10    6   11     -0.59      0.00
   -9    6   11     -0.30      0.00
   -8    6   11      0.05      0.00
   -7    6   11      0.01      0.00
   -6    6   11     -0.45      0.00
   -5    6   11     -0.44      0.00
   -4    6   11      0.27      0.00
   -3    6   11      0.35      0.00
   -2    6   11     -0.50      0.00
   -1    6   11     -0.82      0.00
    0    6   11     -0.24      0.00
    1    6   11     -0.19      0.00
    2    6   11     -0.37      0.00
    3    6   11      0.01      0.00
    4    6   11      0.14      0.00
    5    6   11      0.00      0.00
    6    6   11     -0.03      0.00
    7    6   11      0.03      0.00
    8    6   11      0.35      0.00
    9    6   11      0.67      0.00
  -11    7   11      0.71      0.00
  -10    7   11     -0.16      0.00
   -9    7   11     -0.52      0.00
   -8    7   11     -0.14      0.00
   -7    7   11      0.23      0.00
   -6    7   11      0.27      0.00
   -5    7   11     -0.54      0.00
   -4    7   11     -0.59      0.00
   -3    7   11      0.36      0.00
   -2    7   11      0.22      0.00
   -1    7   11     -0.33      0.00
    0    7   11     -0.05      0.00
    1    7   11     -0.09      0.00
    2    7   11     -0.64      0.00
    3    7   11     -0.50      0.00
    4    7   11     -0.42      0.00
    5    7   11     -0.62      0.00
    6    7   11     -0.13      0.00
    7    7   11      0.27      0.00
    8    7   11      0.29      0.00
    9    7   11      0.55      0.00
  -10    8   11      0.41      0.00
   -9    8   11     -0.05      0.00
   -8    8   11      0.11      0.00
   -7    8   11      0.24      0.00
   -6    8   11      0.22      0.00
   -5    8   11     -0.22      0.00
   -4    8   11     -0.74      0.00
   -3    8   11     -0.08      0.00
   -2    8   11      0.29      0.00
   -1    8   11     -0.18      0.00
    0    8   11     -0.22      0.00
    1    8   11     -0.38      0.00
    2    8   11     -0.76      0.00
    3    8   11     -0.44      0.00
    4    8   11     -0.16      0.00
    5    8   11     -0.66      0.00
    6    8   11     -0.50      0.00
    7    8   11      0.30      0.00
    8    8   11      0.38      0.00
  -10    9   11      0.55      0.00
   -9    9   11      0.40      0.00
   -8    9   11      0.11      0.00
   -7    9   11      0.35      0.00
   -6    9   11      0.05      0.00
   -5    9   11     -0.32      0.00
   -4    9   11     -0.46      0.00
   -3    9   11     -0.16      0.00
   -2    9   11      0.12      0.00
   -1    9   11     -0.27      0.00
    0    9   11     -0.41      0.00
    1    9   11     -0.40      0.00
    2    9   11     -0.44      0.00
    3    9   11      0.01      0.00
    4    9   11      0.36      0.00
    5    9   11     -0.10      0.00
    6    9   11     -0.65      0.00
    7    9   11     -0.29      0.00
   -9   10   11      0.49      0.00
   -8   10   11     -0.25      0.00
   -7   10   11     -0.09      0.00
   -6   10   11      0.22      0.00
   -5   10   11     -0.19      0.00
   -4   10   11     -0.25      0.00
   -3   10   11     -0.10      0.00
   -2   10   11     -0.03      0.00
   -1   10   11     -0.09      0.00
    0   10   11     -0.09      0.00
    1   10   11      0.07      0.00
    2   10   11      0.09      0.00
    3   10   11      0.20      0.00
    4   10   11      0.25      0.00
    5   10   11      0.14      0.00
    6   10   11     -0.22      0.00
   -7   11   11     -0.56      0.00
   -6   11   11      0.08      0.00
   -5   11   11      0.02      0.00
   -4   11   11     -0.23      0.00
   -3   11   11     -0.06      0.00
   -2   11   11      0.01      0.00
   -1   11   11      0.18      0.00
    0   11   11      0.26      0.00
    1   11   11      0.29      0.00
    2   11   11      0.29      0.00
    3   11   11      0.09      0.00
    4   11   11     -0.12      0.00
    5   11   11     -0.08      0.00
   -5   12   11      0.00      0.00
   -4   12   11     -0.50      0.00
   -3   12   11     -0.28      0.00
   -2   12   11      0.14      0.00
   -1   12   11      0.29      0.00
    0   12   11      0.26      0.00
    1   12   11      0.08      0.00
    2   12   11      0.12      0.00
    3   12   11     -0.05      0.00
   -2   13   11      0.04      0.00
   -1   13   11      0.19      0.00
    1   13   11     -0.02      0.00
   -3  -13   12      0.08      0.00
   -2  -13   12     -0.11      0.00
   -1  -13   12     -0.37      0.00
   -5  -12   12     -0.62      0.00
   -4  -12   12     -0.55      0.00
   -3  -12   12     -0.09      0.00
   -2  -12   12     -0.18      0.00
   -1  -12   12     -0.98      0.00
    0  -12   12     -0.90      0.00
    1  -12   12     -0.87      0.00
    2  -12   12     -1.29      0.00
    3  -12   12     -0.58      0.00
   -7  -11   12      0.48      0.00
   -6  -11   12     -0.23      0.00
   -5  -11   12     -0.91      0.00
   -4  -11   12     -0.88      0.00
   -3  -11   12     -0.54      0.00
   -2  -11   12     -0.34      0.00
   -1  -11   12     -1.06      0.00
    0  -11   12     -1.42      0.00
    1  -11   12     -1.09      0.00
    2  -11   12     -1.46      0.00
    3  -11   12     -0.98      0.00
    4  -11   12      0.33      0.00
    5  -11   12      0.35      0.00
   -8  -10   12     -0.79      0.00
   -7  -10   12      0.69      0.00
   -6  -10   12      0.79      0.00
   -5  -10   12     -0.77      0.00
   -4  -10   12     -1.28      0.00
   -3  -10   12     -0.96      0.00
   -2  -10   12     -0.47      0.00
   -1  -10   12     -0.40      0.00
    0  -10   12     -1.03      0.00
    1  -10   12     -1.10      0.00
    2  -10   12     -0.97      0.00
    3  -10   12     -0.87      0.00
    4  -10   12      0.01      0.00
    5  -10   12      0.46      0.00
    6  -10   12      0.04      0.00
   -9   -9   12     -0.21      0.00
   -8   -9   12     -0.61      0.00
   -7   -9   12      0.27      0.00
   -6   -9   12      1.24      0.00
   -5   -9   12     -0.30      0.00
   -4   -9   12     -1.58      0.00
   -3   -9   12     -1.22      0.00
   -2   -9   12     -0.50      0.00
   -1   -9   12      0.36      0.00
    0   -9   12      0.21      0.00
    1   -9   12     -0.59      0.00
    2   -9   12     -0.45      0.00
    3   -9   12     -0.15      0.00
    4   -9   12     -0.21      0.00
    5   -9   12      0.06      0.00
    6   -9   12      0.20      0.00
    7   -9   12     -0.23      0.00
  -10   -8   12     -0.98      0.00
   -9   -8   12     -0.53      0.00
   -8   -8   12     -0.10      0.00
   -7   -8   12      0.03      0.00
   -6   -8   12      1.02      0.00
   -5   -8   12      0.41      0.00
   -4   -8   12     -1.14      0.00
   -3   -8   12     -1.08      0.00
   -2   -8   12     -0.45      0.00
   -1   -8   12      0.46      0.00
    0   -8   12      1.12      0.00
    1   -8   12      0.38      0.00
    2   -8   12     -0.19      0.00
    3   -8   12      0.10      0.00
    4   -8   12     -0.18      0.00
    5   -8   12     -0.44      0.00
    6   -8   12      0.02      0.00
    7   -8   12     -0.08      0.00
    8   -8   12     -0.51      0.00
  -11   -7   12     -0.11      0.00
  -10   -7   12     -0.46      0.00
   -9   -7   12     -1.21      0.00
   -8   -7   12     -0.63      0.00
   -7   -7   12     -0.16      0.00
   -6   -7   12      0.68      0.00
   -5   -7   12      0.92      0.00
   -4   -7   12     -0.29      0.00
   -3   -7   12     -0.52      0.00
   -2   -7   12     -0.07      0.00
   -1   -7   12      0.26      0.00
    0   -7   12      0.89      0.00
    1   -7   12      0.74      0.00
    2   -7   12     -0.09      0.00
    3   -7   12     -0.35      0.00
    4   -7   12     -0.54      0.00
    5   -7   12     -0.68      0.00
    6   -7   12     -0.10      0.00
    7   -7   12      0.01      0.00
    8   -7   12     -0.30      0.00
  -11   -6   12      0.43      0.00
  -10   -6   12      0.53      0.00
   -9   -6   12     -0.89      0.00
   -8   -6   12     -1.03      0.00
   -7   -6   12     -0.26      0.00
   -6   -6   12      0.33      0.00
   -5   -6   12      0.66      0.00
   -4   -6   12     -0.19      0.00
   -3   -6   12     -0.45      0.00
   -2   -6   12      0.39      0.00
   -1   -6   12      0.61      0.00
    0   -6   12      0.54      0.00
    1   -6   12      0.27      0.00
    2   -6   12     -0.39      0.00
    3   -6   12     -0.68      0.00
    4   -6   12     -0.80      0.00
    5   -6   12     -0.73      0.00
    6   -6   12      0.07      0.00
    7   -6   12      0.20      0.00
    8   -6   12     -0.41      0.00
    9   -6   12     -0.10      0.00
  -12   -5   12      0.14      0.00
  -11   -5   12      0.87      0.00
  -10   -5   12      0.57      0.00
   -9   -5   12     -0.54      0.00
   -8   -5   12     -0.37      0.00
   -7   -5   12      0.41      0.00
   -6   -5   12      0.16      0.00
   -5   -5   12     -0.18      0.00
   -3   -5   12     -1.10      0.00
   -2   -5   12      0.15      0.00
   -1   -5   12      1.13      0.00
    0   -5   12      1.04      0.00
    1   -5   12      0.46      0.00
    2   -5   12     -0.52      0.00
    3   -5   12     -0.73      0.00
    5   -5   12     -0.44      0.00
    6   -5   12      0.15      0.00
    7   -5   12      0.49      0.00
    8   -5   12     -0.45      0.00
    9   -5   12     -0.55      0.00
  -12   -4   12     -0.27      0.00
  -11   -4   12      0.23      0.00
  -10   -4   12     -0.22      0.00
   -9   -4   12     -1.03      0.00
   -8   -4   12      0.10      0.00
   -7   -4   12      1.53      0.00
   -6   -4   12      0.64      0.00
   -5   -4   12     -0.84      0.00
   -4   -4   12     -1.45      0.00
   -3   -4   12     -1.50      0.00
   -2   -4   12     -0.23      0.00
   -1   -4   12      1.25      0.00
    0   -4   12      1.52      0.00
    1   -4   12      1.43      0.00
    2   -4   12      0.48      0.00
    3   -4   12     -0.50      0.00
    4   -4   12     -0.06      0.00
    5   -4   12      0.05      0.00
    6   -4   12      0.01      0.00
    7   -4   12      0.48      0.00
    8   -4   12     -0.20      0.00
    9   -4   12     -0.74      0.00
   10   -4   12     -0.07      0.00
  -13   -3   12      0.20      0.00
  -12   -3   12     -0.20      0.00
  -11   -3   12     -1.08      0.00
  -10   -3   12     -1.37      0.00
   -9   -3   12     -1.60      0.00
   -8   -3   12     -0.30      0.00
   -7   -3   12      1.98      0.00
   -5   -3   12     -0.45      0.00
   -4   -3   12     -1.88      0.00
   -3   -3   12     -1.61      0.00
   -2   -3   12      0.17      0.00
   -1   -3   12      1.71      0.00
    1   -3   12      1.22      0.00
    3   -3   12      0.27      0.00
    4   -3   12     -0.14      0.00
    5   -3   12      0.18      0.00
    6   -3   12     -0.11      0.00
    7   -3   12      0.24      0.00
    8   -3   12     -0.01      0.00
    9   -3   12     -0.70      0.00
   10   -3   12     -0.12      0.00
  -13   -2   12      0.44      0.00
  -12   -2   12      0.85      0.00
  -11   -2   12     -0.88      0.00
  -10   -2   12     -1.88      0.00
   -9   -2   12     -1.71      0.00
   -8   -2   12     -0.96      0.00
   -7   -2   12      1.29      0.00
   -6   -2   12      2.51      0.00
   -5   -2   12      0.83      0.00
   -4   -2   12     -1.60      0.00
   -3   -2   12     -1.84      0.00
   -1   -2   12      2.48      0.00
    0   -2   12      1.35      0.00
    1   -2   12     -0.22      0.00
    2   -2   12      0.66      0.00
    3   -2   12      0.97      0.00
    4   -2   12      0.15      0.00
    5   -2   12      0.14      0.00
    6   -2   12     -0.08      0.00
    7   -2   12      0.16      0.00
    8   -2   12      0.23      0.00
    9   -2   12     -0.69      0.00
   10   -2   12     -0.41      0.00
  -13   -1   12      0.34      0.00
  -12   -1   12      1.09      0.00
  -11   -1   12      0.37      0.00
  -10   -1   12     -0.89      0.00
   -9   -1   12     -1.14      0.00
   -8   -1   12     -1.18      0.00
   -7   -1   12      0.03      0.00
   -6   -1   12      1.86      0.00
   -4   -1   12     -0.64      0.00
   -3   -1   12     -1.50      0.00
   -2   -1   12      0.14      0.00
   -1   -1   12      2.09      0.00
    0   -1   12      1.51      0.00
    1   -1   12     -0.68      0.00
    2   -1   12     -0.65      0.00
    3   -1   12      0.86      0.00
    4   -1   12      0.84      0.00
    5   -1   12      0.45      0.00
    6   -1   12      0.15      0.00
    7   -1   12      0.14      0.00
    8   -1   12      0.50      0.00
    9   -1   12     -0.30      0.00
   10   -1   12     -0.72      0.00
  -13    0   12      0.61      0.00
  -12    0   12      0.54      0.00
  -11    0   12      0.32      0.00
  -10    0   12      0.03      0.00
   -9    0   12     -0.27      0.00
   -8    0   12     -0.64      0.00
   -7    0   12     -0.56      0.00
   -6    0   12      0.41      0.00
   -4    0   12     -0.11      0.00
   -3    0   12     -0.35      0.00
   -2    0   12      0.05      0.00
   -1    0   12      0.61      0.00
    0    0   12      0.93      0.00
    1    0   12      0.17      0.00
    2    0   12     -0.54      0.00
    3    0   12      0.33      0.00
    4    0   12      0.97      0.00
    5    0   12      0.71      0.00
    6    0   12      0.49      0.00
    7    0   12      0.20      0.00
    8    0   12      0.31      0.00
    9    0   12      0.22      0.00
   10    0   12     -0.26      0.00
  -13    1   12      0.17      0.00
  -11    1   12     -0.14      0.00
  -10    1   12     -0.36      0.00
   -9    1   12     -0.34      0.00
   -8    1   12     -0.08      0.00
   -7    1   12      0.14      0.00
   -6    1   12     -0.30      0.00
   -5    1   12     -0.85      0.00
   -4    1   12     -0.67      0.00
   -3    1   12      0.52      0.00
   -2    1   12      1.01      0.00
    2    1   12      0.08      0.00
    3    1   12     -0.09      0.00
    4    1   12      0.38      0.00
    5    1   12      0.37      0.00
    6    1   12      0.47      0.00
    7    1   12      0.48      0.00
    8    1   12      0.05      0.00
    9    1   12      0.15      0.00
   10    1   12      0.44      0.00
  -13    2   12     -1.49      0.00
  -12    2   12      0.09      0.00
  -11    2   12      0.43      0.00
  -10    2   12     -0.40      0.00
   -9    2   12     -0.98      0.00
   -8    2   12     -0.48      0.00
   -7    2   12      0.95      0.00
   -6    2   12      0.40      0.00
   -5    2   12     -1.70      0.00
   -4    2   12     -1.90      0.00
   -3    2   12      0.21      0.00
   -2    2   12      1.92      0.00
   -1    2   12      0.97      0.00
    0    2   12     -0.36      0.00
    1    2   12     -0.26      0.00
    2    2   12     -0.35      0.00
    3    2   12     -0.48      0.00
    4    2   12     -0.06      0.00
    5    2   12     -0.05      0.00
    6    2   12     -0.04      0.00
    7    2   12      0.40      0.00
    8    2   12      0.26      0.00
    9    2   12      0.07      0.00
   10    2   12      0.59      0.00
  -12    3   12     -1.39      0.00
  -11    3   12      0.46      0.00
  -10    3   12      0.47      0.00
   -9    3   12     -0.60      0.00
   -8    3   12     -1.03      0.00
   -7    3   12      0.41      0.00
   -6    3   12      1.16      0.00
   -5    3   12     -1.01      0.00
   -4    3   12     -2.41      0.00
   -3    3   12     -0.89      0.00
    0    3   12     -0.20      0.00
    1    3   12     -0.99      0.00
    2    3   12     -0.99      0.00
    3    3   12     -0.56      0.00
    4    3   12      0.16      0.00
    5    3   12      0.15      0.00
    6    3   12     -0.27      0.00
    7    3   12     -0.16      0.00
    8    3   12      0.30      0.00
    9    3   12      0.49      0.00
  -12    4   12     -1.60      0.00
  -11    4   12     -0.57      0.00
  -10    4   12      0.51      0.00
   -9    4   12      0.29      0.00
   -8    4   12     -0.54      0.00
   -7    4   12     -0.64      0.00
   -6    4   12      0.43      0.00
   -5    4   12      0.17      0.00
   -4    4   12     -1.15      0.00
   -3    4   12     -1.22      0.00
   -2    4   12     -0.25      0.00
    0    4   12     -0.27      0.00
    1    4   12     -0.96      0.00
    2    4   12     -0.71      0.00
    3    4   12     -0.04      0.00
    4    4   12      0.55      0.00
    5    4   12      0.43      0.00
    6    4   12     -0.09      0.00
    7    4   12     -0.31      0.00
    8    4   12      0.11      0.00
    9    4   12      0.77      0.00
  -12    5   12     -0.05      0.00
  -11    5   12     -0.67      0.00
  -10    5   12     -0.32      0.00
   -9    5   12      0.21      0.00
   -8    5   12      0.24      0.00
   -7    5   12     -0.43      0.00
   -6    5   12     -0.67      0.00
   -5    5   12      0.04      0.00
   -3    5   12     -0.20      0.00
   -2    5   12     -0.87      0.00
   -1    5   12     -0.65      0.00
    0    5   12     -0.27      0.00
    1    5   12     -0.46      0.00
    2    5   12     -0.21      0.00
    3    5   12      0.31      0.00
    4    5   12      0.42      0.00
    5    5   12      0.16      0.00
    6    5   12     -0.11      0.00
    7    5   12     -0.07      0.00
    8    5   12      0.29      0.00
    9    5   12      0.78      0.00
  -11    6   12      0.36      0.00
  -10    6   12     -0.47      0.00
   -9    6   12     -0.32      0.00
   -8    6   12      0.23      0.00
   -7    6   12      0.44      0.00
   -6    6   12     -0.26      0.00
   -5    6   12     -0.64      0.00
   -4    6   12      0.23      0.00
   -3    6   12      0.60      0.00
   -2    6   12     -0.21      0.00
   -1    6   12     -0.46      0.00
    0    6   12      0.11      0.00
    1    6   12     -0.03      0.00
    2    6   12     -0.30      0.00
    3    6   12     -0.10      0.00
    4    6   12     -0.26      0.00
    5    6   12     -0.37      0.00
    6    6   12     -0.18      0.00
    7    6   12      0.03      0.00
    8    6   12      0.46      0.00
    9    6   12      0.80      0.00
  -11    7   12      0.80      0.00
  -10    7   12      0.18      0.00
   -9    7   12     -0.17      0.00
   -8    7   12      0.11      0.00
   -7    7   12      0.53      0.00
   -6    7   12      0.49      0.00
   -5    7   12     -0.44      0.00
   -4    7   12     -0.46      0.00
   -3    7   12      0.40      0.00
   -2    7   12      0.33      0.00
   -1    7   12      0.07      0.00
    0    7   12      0.21      0.00
    1    7   12     -0.15      0.00
    2    7   12     -0.57      0.00
    3    7   12     -0.40      0.00
    4    7   12     -0.59      0.00
    5    7   12     -0.78      0.00
    6    7   12     -0.11      0.00
    7    7   12      0.29      0.00
    8    7   12      0.34      0.00
  -10    8   12      0.68      0.00
   -9    8   12      0.28      0.00
   -8    8   12      0.35      0.00
   -7    8   12      0.38      0.00
   -6    8   12      0.23      0.00
   -5    8   12     -0.18      0.00
   -4    8   12     -0.46      0.00
   -3    8   12      0.10      0.00
   -2    8   12      0.33      0.00
   -1    8   12      0.09      0.00
    0    8   12     -0.07      0.00
    1    8   12     -0.48      0.00
    2    8   12     -0.53      0.00
    3    8   12     -0.01      0.00
    4    8   12     -0.05      0.00
    5    8   12     -0.69      0.00
    6    8   12     -0.37      0.00
    7    8   12      0.41      0.00
   -9    9   12      0.35      0.00
   -8    9   12      0.09      0.00
   -7    9   12      0.38      0.00
   -6    9   12     -0.02      0.00
   -5    9   12     -0.36      0.00
   -4    9   12     -0.25      0.00
   -3    9   12      0.07      0.00
   -2    9   12      0.22      0.00
   -1    9   12      0.05      0.00
    0    9   12     -0.03      0.00
    1    9   12     -0.21      0.00
    2    9   12     -0.17      0.00
    3    9   12      0.28      0.00
    4    9   12      0.39      0.00
    5    9   12     -0.12      0.00
   -8   10   12     -0.51      0.00
   -7   10   12     -0.12      0.00
   -6   10   12      0.13      0.00
   -5   10   12     -0.30      0.00
   -4   10   12     -0.19      0.00
   -3   10   12      0.02      0.00
   -2   10   12      0.12      0.00
   -1   10   12      0.22      0.00
    0   10   12      0.32      0.00
    1   10   12      0.34      0.00
    2   10   12      0.18      0.00
    3   10   12      0.04      0.00
    4   10   12      0.01      0.00
    5   10   12      0.13      0.00
    6   10   12     -0.09      0.00
   -7   11   12     -0.51      0.00
   -6   11   12      0.04      0.00
   -5   11   12     -0.22      0.00
   -4   11   12     -0.37      0.00
   -3   11   12     -0.09      0.00
   -2   11   12      0.03      0.00
   -1   11   12      0.29      0.00
    0   11   12      0.39      0.00
    1   11   12      0.33      0.00
    2   11   12      0.11      0.00
    3   11   12     -0.32      0.00
    4   11   12     -0.42      0.00
   -5   12   12     -0.29      0.00
   -4   12   12     -0.73      0.00
   -3   12   12     -0.35      0.00
   -2   12   12     -0.02      0.00
   -1   12   12      0.08      0.00
    0   12   12      0.14      0.00
    1   12   12      0.04      0.00
    2   12   12     -0.10      0.00
    3   12   12     -0.47      0.00
   -5  -12   13     -0.65      0.00
   -4  -12   13     -0.45      0.00
   -3  -12   13     -0.02      0.00
   -2  -12   13     -0.38      0.00
   -1  -12   13     -1.38      0.00
    0  -12   13     -1.43      0.00
    1  -12   13     -1.50      0.00
   -6  -11   13     -0.14      0.00
   -5  -11   13     -0.90      0.00
   -4  -11   13     -0.70      0.00
   -3  -11   13     -0.36      0.00
   -2  -11   13     -0.33      0.00
   -1  -11   13     -1.24      0.00
    0  -11   13     -1.82      0.00
    1  -11   13     -1.69      0.00
    2  -11   13     -1.74      0.00
    3  -11   13     -0.80      0.00
    4  -11   13      0.29      0.00
   -8  -10   13     -0.33      0.00
   -7  -10   13      1.09      0.00
   -6  -10   13      0.57      0.00
   -5  -10   13     -1.00      0.00
   -4  -10   13     -1.08      0.00
   -3  -10   13     -0.62      0.00
   -2  -10   13     -0.22      0.00
   -1  -10   13     -0.33      0.00
    0  -10   13     -1.27      0.00
    1  -10   13     -1.53      0.00
    2  -10   13     -1.17      0.00
    3  -10   13     -0.68      0.00
    4  -10   13      0.07      0.00
    5  -10   13      0.17      0.00
    6  -10   13     -0.20      0.00
   -9   -9   13      0.06      0.00
   -8   -9   13     -0.04      0.00
   -7   -9   13      0.77      0.00
   -6   -9   13      0.95      0.00
   -5   -9   13     -0.75      0.00
   -4   -9   13     -1.38      0.00
   -3   -9   13     -0.76      0.00
   -2   -9   13     -0.10      0.00
   -1   -9   13      0.53      0.00
    0   -9   13     -0.05      0.00
    1   -9   13     -0.97      0.00
    2   -9   13     -0.56      0.00
    3   -9   13     -0.10      0.00
    4   -9   13     -0.21      0.00
    5   -9   13     -0.01      0.00
    6   -9   13      0.10      0.00
    7   -9   13     -0.26      0.00
  -10   -8   13     -0.80      0.00
   -9   -8   13     -0.19      0.00
   -8   -8   13      0.19      0.00
   -7   -8   13      0.41      0.00
   -6   -8   13      1.03      0.00
   -5   -8   13      0.06      0.00
   -4   -8   13     -1.00      0.00
   -3   -8   13     -0.59      0.00
   -2   -8   13      0.00      0.00
   -1   -8   13      0.67      0.00
    0   -8   13      0.71      0.00
    1   -8   13     -0.24      0.00
    2   -8   13     -0.41      0.00
    3   -8   13      0.00      0.00
    4   -8   13     -0.33      0.00
    5   -8   13     -0.30      0.00
    6   -8   13      0.24      0.00
    7   -8   13     -0.01      0.00
  -10   -7   13     -0.06      0.00
   -9   -7   13     -0.72      0.00
   -8   -7   13     -0.35      0.00
   -7   -7   13      0.05      0.00
   -6   -7   13      0.83      0.00
   -5   -7   13      0.60      0.00
   -4   -7   13     -0.42      0.00
   -3   -7   13     -0.12      0.00
   -2   -7   13      0.40      0.00
   -1   -7   13      0.48      0.00
    0   -7   13      0.47      0.00
    1   -7   13     -0.06      0.00
    2   -7   13     -0.50      0.00
    3   -7   13     -0.50      0.00
    4   -7   13     -0.62      0.00
    5   -7   13     -0.31      0.00
    6   -7   13      0.40      0.00
    7   -7   13      0.13      0.00
    8   -7   13     -0.19      0.00
  -11   -6   13      1.15      0.00
  -10   -6   13      0.99      0.00
   -9   -6   13     -0.31      0.00
   -8   -6   13     -0.35      0.00
   -7   -6   13      0.04      0.00
   -6   -6   13      0.36      0.00
   -5   -6   13      0.23      0.00
   -4   -6   13     -0.63      0.00
   -3   -6   13     -0.21      0.00
   -2   -6   13      0.82      0.00
   -1   -6   13      0.71      0.00
    0   -6   13      0.23      0.00
    1   -6   13     -0.30      0.00
    2   -6   13     -0.67      0.00
    3   -6   13     -0.68      0.00
    4   -6   13     -0.70      0.00
    5   -6   13     -0.22      0.00
    6   -6   13      0.67      0.00
    7   -6   13      0.29      0.00
    8   -6   13     -0.41      0.00
  -12   -5   13     -0.16      0.00
  -11   -5   13      0.79      0.00
  -10   -5   13      0.66      0.00
   -9   -5   13     -0.04      0.00
   -8   -5   13      0.55      0.00
   -7   -5   13      0.87      0.00
   -6   -5   13      0.01      0.00
   -5   -5   13     -0.60      0.00
   -4   -5   13     -1.14      0.00
   -3   -5   13     -0.80      0.00
   -2   -5   13      0.62      0.00
   -1   -5   13      1.04      0.00
    0   -5   13      0.67      0.00
    1   -5   13      0.17      0.00
    2   -5   13     -0.52      0.00
    3   -5   13     -0.51      0.00
    4   -5   13     -0.24      0.00
    5   -5   13     -0.11      0.00
    6   -5   13      0.59      0.00
    7   -5   13      0.55      0.00
    8   -5   13     -0.40      0.00
    9   -5   13     -0.17      0.00
  -12   -4   13     -0.71      0.00
  -11   -4   13     -0.63      0.00
  -10   -4   13     -0.69      0.00
   -9   -4   13     -0.70      0.00
   -8   -4   13      0.96      0.00
   -7   -4   13      2.01      0.00
   -6   -4   13      0.45      0.00
   -5   -4   13     -1.09      0.00
   -3   -4   13     -0.91      0.00
   -2   -4   13      0.48      0.00
   -1   -4   13      1.18      0.00
    0   -4   13      0.90      0.00
    1   -4   13      0.91      0.00
    3   -4   13     -0.35      0.00
    4   -4   13      0.07      0.00
    5   -4   13      0.04      0.00
    6   -4   13      0.13      0.00
    7   -4   13      0.51      0.00
    8   -4   13     -0.04      0.00
    9   -4   13     -0.19      0.00
  -12   -3   13     -0.36      0.00
  -11   -3   13     -1.82      0.00
  -10   -3   13     -1.83      0.00
   -9   -3   13     -1.33      0.00
   -8   -3   13      0.35      0.00
   -7   -3   13      2.28      0.00
   -6   -3   13      1.58      0.00
   -5   -3   13     -0.55      0.00
   -4   -3   13     -1.54      0.00
   -3   -3   13     -0.87      0.00
   -2   -3   13      0.92      0.00
    0   -3   13      0.54      0.00
    2   -3   13      0.64      0.00
    3   -3   13     -0.01      0.00
    4   -3   13     -0.03      0.00
    5   -3   13      0.13      0.00
    6   -3   13     -0.11      0.00
    7   -3   13      0.30      0.00
    8   -3   13      0.11      0.00
    9   -3   13     -0.16      0.00
   10   -3   13      0.29      0.00
  -12   -2   13      0.71      0.00
  -11   -2   13     -1.25      0.00
  -10   -2   13     -1.80      0.00
   -9   -2   13     -1.14      0.00
   -8   -2   13     -0.37      0.00
   -7   -2   13      1.23      0.00
   -6   -2   13      1.94      0.00
   -4   -2   13     -1.10      0.00
   -3   -2   13     -1.11      0.00
   -2   -2   13      0.85      0.00
   -1   -2   13      2.14      0.00
    1   -2   13     -1.15      0.00
    2   -2   13     -0.21      0.00
    3   -2   13      0.41      0.00
    4   -2   13      0.15      0.00
    5   -2   13      0.23      0.00
    6   -2   13      0.05      0.00
    7   -2   13      0.33      0.00
    8   -2   13      0.20      0.00
    9   -2   13     -0.44      0.00
   10   -2   13     -0.03      0.00
  -13   -1   13      0.69      0.00
  -12   -1   13      0.80      0.00
  -11   -1   13     -0.07      0.00
  -10   -1   13     -0.70      0.00
   -9   -1   13     -0.36      0.00
   -8   -1   13     -0.38      0.00
   -7   -1   13     -0.07      0.00
   -6   -1   13      0.70      0.00
   -5   -1   13      0.66      0.00
   -4   -1   13     -0.14      0.00
   -3   -1   13     -0.59      0.00
   -2   -1   13      0.13      0.00
    0   -1   13      0.66      0.00
    1   -1   13     -1.11      0.00
    2   -1   13     -0.91      0.00
    3   -1   13      0.44      0.00
    4   -1   13      0.57      0.00
    5   -1   13      0.45      0.00
    6   -1   13      0.31      0.00
    7   -1   13      0.34      0.00
    8   -1   13      0.37      0.00
    9   -1   13     -0.38      0.00
   10   -1   13     -0.45      0.00
  -13    0   13      0.80      0.00
  -12    0   13      0.30      0.00
  -11    0   13     -0.04      0.00
  -10    0   13     -0.06      0.00
   -9    0   13      0.09      0.00
   -8    0   13      0.13      0.00
   -7    0   13     -0.28      0.00
   -6    0   13     -0.70      0.00
   -5    0   13     -0.73      0.00
   -4    0   13     -0.02      0.00
   -3    0   13      0.70      0.00
   -2    0   13      0.34      0.00
    0    0   13      0.17      0.00
    2    0   13     -0.41      0.00
    3    0   13      0.17      0.00
    4    0   13      0.42      0.00
    5    0   13      0.40      0.00
    6    0   13      0.53      0.00
    7    0   13      0.22      0.00
    8    0   13      0.08      0.00
    9    0   13      0.01      0.00
   10    0   13     -0.15      0.00
  -13    1   13      0.25      0.00
  -12    1   13      0.39      0.00
  -11    1   13     -0.17      0.00
  -10    1   13     -0.31      0.00
   -9    1   13     -0.36      0.00
   -8    1   13      0.20      0.00
   -7    1   13      0.50      0.00
   -6    1   13     -0.78      0.00
   -5    1   13     -1.98      0.00
   -3    1   13      1.21      0.00
    0    1   13     -0.52      0.00
    1    1   13      0.04      0.00
    2    1   13     -0.04      0.00
    3    1   13     -0.12      0.00
    4    1   13     -0.13      0.00
    5    1   13     -0.12      0.00
    6    1   13      0.37      0.00
    7    1   13      0.29      0.00
    8    1   13     -0.28      0.00
    9    1   13      0.00      0.00
   10    1   13      0.43      0.00
  -12    2   13      0.06      0.00
  -11    2   13      0.36      0.00
  -10    2   13     -0.17      0.00
   -9    2   13     -0.77      0.00
   -8    2   13     -0.39      0.00
   -7    2   13      0.87      0.00
   -6    2   13      0.11      0.00
   -5    2   13     -1.97      0.00
   -4    2   13     -1.95      0.00
   -3    2   13      0.41      0.00
   -2    2   13      2.06      0.00
   -1    2   13      0.89      0.00
    0    2   13     -0.61      0.00
    1    2   13     -0.70      0.00
    2    2   13     -0.57      0.00
    3    2   13     -0.32      0.00
    4    2   13     -0.14      0.00
    5    2   13     -0.31      0.00
    6    2   13     -0.14      0.00
    7    2   13      0.12      0.00
    8    2   13     -0.08      0.00
    9    2   13      0.05      0.00
   10    2   13      0.54      0.00
  -12    3   13     -0.96      0.00
  -11    3   13      0.25      0.00
  -10    3   13      0.34      0.00
   -9    3   13     -0.26      0.00
   -8    3   13     -0.65      0.00
   -7    3   13      0.15      0.00
   -6    3   13      0.49      0.00
   -5    3   13     -0.91      0.00
   -3    3   13     -0.52      0.00
   -2    3   13      0.92      0.00
   -1    3   13      0.81      0.00
    0    3   13     -0.47      0.00
    1    3   13     -0.94      0.00
    2    3   13     -0.75      0.00
    3    3   13     -0.19      0.00
    4    3   13      0.35      0.00
    5    3   13      0.18      0.00
    6    3   13     -0.27      0.00
    7    3   13     -0.36      0.00
    8    3   13      0.11      0.00
    9    3   13      0.56      0.00
   10    3   13      0.56      0.00
  -12    4   13     -0.85      0.00
  -11    4   13     -0.49      0.00
  -10    4   13      0.09      0.00
   -9    4   13      0.28      0.00
   -8    4   13     -0.02      0.00
   -7    4   13     -0.48      0.00
   -6    4   13     -0.20      0.00
   -5    4   13     -0.03      0.00
   -4    4   13     -0.20      0.00
   -3    4   13     -0.41      0.00
   -1    4   13     -0.09      0.00
    0    4   13     -0.35      0.00
    1    4   13     -0.49      0.00
    2    4   13     -0.09      0.00
    3    4   13      0.27      0.00
    4    4   13      0.50      0.00
    5    4   13      0.36      0.00
    6    4   13     -0.05      0.00
    7    4   13     -0.36      0.00
    8    4   13      0.10      0.00
    9    4   13      0.84      0.00
  -12    5   13      0.39      0.00
  -11    5   13     -0.35      0.00
  -10    5   13     -0.46      0.00
   -9    5   13      0.00      0.00
   -8    5   13      0.52      0.00
   -7    5   13      0.10      0.00
   -6    5   13     -0.62      0.00
   -5    5   13     -0.19      0.00
   -4    5   13      0.62      0.00
   -3    5   13      0.38      0.00
   -2    5   13     -0.45      0.00
   -1    5   13     -0.29      0.00
    0    5   13      0.13      0.00
    1    5   13      0.02      0.00
    2    5   13      0.21      0.00
    3    5   13      0.30      0.00
    4    5   13      0.06      0.00
    5    5   13     -0.10      0.00
    6    5   13     -0.13      0.00
    7    5   13     -0.03      0.00
    8    5   13      0.33      0.00
    9    5   13      0.74      0.00
  -12    6   13      0.81      0.00
  -11    6   13      0.49      0.00
  -10    6   13     -0.29      0.00
   -9    6   13     -0.31      0.00
   -8    6   13      0.31      0.00
   -7    6   13      0.82      0.00
   -6    6   13      0.14      0.00
   -5    6   13     -0.48      0.00
   -4    6   13      0.20      0.00
   -3    6   13      0.64      0.00
   -2    6   13      0.20      0.00
   -1    6   13      0.23      0.00
    0    6   13      0.56      0.00
    1    6   13      0.16      0.00
    2    6   13     -0.15      0.00
    3    6   13     -0.18      0.00
    4    6   13     -0.51      0.00
    5    6   13     -0.48      0.00
    6    6   13     -0.14      0.00
    7    6   13      0.08      0.00
    8    6   13      0.41      0.00
  -11    7   13      0.71      0.00
  -10    7   13      0.30      0.00
   -9    7   13     -0.02      0.00
   -8    7   13      0.20      0.00
   -7    7   13      0.62      0.00
   -6    7   13      0.59      0.00
   -5    7   13     -0.22      0.00
   -4    7   13     -0.29      0.00
   -3    7   13      0.33      0.00
   -2    7   13      0.47      0.00
   -1    7   13      0.47      0.00
    0    7   13      0.29      0.00
    1    7   13     -0.22      0.00
    2    7   13     -0.31      0.00
    3    7   13     -0.13      0.00
    4    7   13     -0.52      0.00
    5    7   13     -0.60      0.00
    6    7   13      0.12      0.00
    7    7   13      0.34      0.00
    8    7   13      0.19      0.00
  -10    8   13      0.52      0.00
   -9    8   13      0.16      0.00
   -8    8   13      0.35      0.00
   -7    8   13      0.35      0.00
   -6    8   13      0.06      0.00
   -5    8   13     -0.19      0.00
   -4    8   13     -0.22      0.00
   -3    8   13      0.18      0.00
   -2    8   13      0.37      0.00
   -1    8   13      0.35      0.00
    0    8   13      0.00      0.00
    1    8   13     -0.46      0.00
    2    8   13     -0.10      0.00
    3    8   13      0.44      0.00
    4    8   13      0.11      0.00
    5    8   13     -0.48      0.00
    6    8   13     -0.06      0.00
    7    8   13      0.53      0.00
   -9    9   13     -0.14      0.00
   -8    9   13     -0.12      0.00
   -7    9   13      0.32      0.00
   -6    9   13     -0.17      0.00
   -5    9   13     -0.40      0.00
   -4    9   13     -0.09      0.00
   -3    9   13      0.14      0.00
   -2    9   13      0.23      0.00
   -1    9   13      0.33      0.00
    0    9   13      0.33      0.00
    1    9   13      0.05      0.00
    2    9   13      0.13      0.00
    3    9   13      0.44      0.00
    4    9   13      0.36      0.00
    5    9   13     -0.05      0.00
    6    9   13     -0.30      0.00
   -8   10   13     -0.76      0.00
   -7   10   13     -0.10      0.00
   -6   10   13      0.05      0.00
   -5   10   13     -0.34      0.00
   -4   10   13     -0.11      0.00
   -3   10   13      0.01      0.00
   -2   10   13      0.08      0.00
   -1   10   13      0.38      0.00
    0   10   13      0.62      0.00
    1   10   13      0.53      0.00
    2   10   13      0.14      0.00
    3   10   13     -0.17      0.00
    4   10   13     -0.14      0.00
    5   10   13      0.15      0.00
   -6   11   13      0.03      0.00
   -5   11   13     -0.32      0.00
   -4   11   13     -0.33      0.00
   -3   11   13     -0.15      0.00
   -2   11   13     -0.12      0.00
   -1   11   13      0.22      0.00
    0   11   13      0.40      0.00
    1   11   13      0.29      0.00
    2   11   13     -0.14      0.00
    3   11   13     -0.60      0.00
    4   11   13     -0.44      0.00
   -4   12   13     -0.59      0.00
   -3   12   13     -0.25      0.00
   -2   12   13     -0.23      0.00
   -1   12   13     -0.14      0.00
    0   12   13      0.07      0.00
    1   12   13      0.00      0.00
    2   12   13     -0.31      0.00
   -4  -12   14     -0.22      0.00
   -3  -12   14      0.14      0.00
   -2  -12   14     -0.26      0.00
   -1  -12   14     -1.25      0.00
    0  -12   14     -1.38      0.00
    1  -12   14     -1.47      0.00
   -6  -11   14     -0.15      0.00
   -5  -11   14     -0.57      0.00
   -4  -11   14     -0.24      0.00
   -3  -11   14     -0.01      0.00
   -2  -11   14      0.02      0.00
   -1  -11   14     -0.85      0.00
    0  -11   14     -1.56      0.00
    1  -11   14     -1.53      0.00
    2  -11   14     -1.29      0.00
    3  -11   14     -0.31      0.00
    4  -11   14      0.24      0.00
   -7  -10   14      1.15      0.00
   -6  -10   14      0.21      0.00
   -5  -10   14     -0.84      0.00
   -4  -10   14     -0.44      0.00
   -3  -10   14     -0.08      0.00
   -2  -10   14      0.24      0.00
   -1  -10   14      0.06      0.00
    0  -10   14     -1.00      0.00
    1  -10   14     -1.24      0.00
    2  -10   14     -0.70      0.00
    3  -10   14     -0.21      0.00
    4  -10   14      0.16      0.00
    5  -10   14      0.05      0.00
   -9   -9   14      0.38      0.00
   -8   -9   14      0.46      0.00
   -7   -9   14      0.99      0.00
   -6   -9   14      0.60      0.00
   -5   -9   14     -0.74      0.00
   -4   -9   14     -0.72      0.00
   -3   -9   14     -0.12      0.00
   -2   -9   14      0.35      0.00
   -1   -9   14      0.68      0.00
    0   -9   14     -0.16      0.00
    1   -9   14     -0.81      0.00
    2   -9   14     -0.15      0.00
    3   -9   14      0.14      0.00
    4   -9   14     -0.09      0.00
    5   -9   14      0.17      0.00
    6   -9   14      0.26      0.00
  -10   -8   14     -0.38      0.00
   -9   -8   14      0.13      0.00
   -8   -8   14      0.29      0.00
   -7   -8   14      0.58      0.00
   -6   -8   14      0.92      0.00
   -5   -8   14     -0.09      0.00
   -4   -8   14     -0.57      0.00
   -3   -8   14      0.00      0.00
   -2   -8   14      0.38      0.00
   -1   -8   14      0.61      0.00
    0   -8   14      0.16      0.00
    1   -8   14     -0.50      0.00
    2   -8   14     -0.18      0.00
    3   -8   14      0.08      0.00
    4   -8   14     -0.24      0.00
    5   -8   14      0.17      0.00
    6   -8   14      0.63      0.00
    7   -8   14      0.11      0.00
  -10   -7   14      0.60      0.00
   -9   -7   14     -0.10      0.00
   -8   -7   14     -0.16      0.00
   -7   -7   14      0.08      0.00
   -6   -7   14      0.67      0.00
   -5   -7   14      0.10      0.00
   -4   -7   14     -0.50      0.00
   -3   -7   14      0.26      0.00
   -2   -7   14      0.62      0.00
   -1   -7   14      0.28      0.00
    0   -7   14     -0.19      0.00
    1   -7   14     -0.55      0.00
    2   -7   14     -0.42      0.00
    3   -7   14     -0.33      0.00
    4   -7   14     -0.37      0.00
    5   -7   14      0.32      0.00
    6   -7   14      0.86      0.00
    7   -7   14      0.17      0.00
    8   -7   14     -0.08      0.00
  -11   -6   14      1.65      0.00
  -10   -6   14      1.51      0.00
   -9   -6   14      0.49      0.00
   -8   -6   14      0.30      0.00
   -7   -6   14      0.08      0.00
   -6   -6   14     -0.02      0.00
   -5   -6   14     -0.52      0.00
   -4   -6   14     -1.08      0.00
   -3   -6   14     -0.03      0.00
   -2   -6   14      0.84      0.00
   -1   -6   14      0.30      0.00
    0   -6   14     -0.33      0.00
    1   -6   14     -0.61      0.00
    2   -6   14     -0.50      0.00
    3   -6   14     -0.35      0.00
    4   -6   14     -0.29      0.00
    5   -6   14      0.37      0.00
    6   -6   14      0.94      0.00
    7   -6   14      0.18      0.00
    8   -6   14     -0.26      0.00
  -12   -5   14     -0.60      0.00
  -11   -5   14      0.50      0.00
  -10   -5   14      0.77      0.00
   -9   -5   14      0.68      0.00
   -8   -5   14      1.38      0.00
   -7   -5   14      0.90      0.00
   -6   -5   14     -0.49      0.00
   -5   -5   14     -1.12      0.00
   -4   -5   14     -1.40      0.00
   -3   -5   14     -0.61      0.00
   -2   -5   14      0.60      0.00
    0   -5   14      0.05      0.00
    1   -5   14     -0.09      0.00
    2   -5   14     -0.37      0.00
    3   -5   14     -0.15      0.00
    4   -5   14      0.10      0.00
    5   -5   14      0.20      0.00
    6   -5   14      0.58      0.00
    7   -5   14      0.34      0.00
    8   -5   14     -0.13      0.00
  -12   -4   14     -1.19      0.00
  -11   -4   14     -1.33      0.00
  -10   -4   14     -0.83      0.00
   -9   -4   14     -0.08      0.00
   -8   -4   14      1.64      0.00
   -7   -4   14      1.89      0.00
   -6   -4   14     -0.07      0.00
   -5   -4   14     -1.22      0.00
   -4   -4   14     -1.18      0.00
   -3   -4   14     -0.61      0.00
   -2   -4   14      0.51      0.00
   -1   -4   14      0.57      0.00
    0   -4   14      0.05      0.00
    1   -4   14      0.22      0.00
    2   -4   14     -0.08      0.00
    3   -4   14     -0.24      0.00
    4   -4   14      0.28      0.00
    5   -4   14      0.10      0.00
    6   -4   14     -0.03      0.00
    7   -4   14      0.26      0.00
    8   -4   14      0.23      0.00
    9   -4   14      0.41      0.00
  -12   -3   14     -0.68      0.00
  -11   -3   14     -2.16      0.00
  -10   -3   14     -1.65      0.00
   -9   -3   14     -0.62      0.00
   -8   -3   14      0.85      0.00
   -7   -3   14      1.92      0.00
   -6   -3   14      0.95      0.00
   -5   -3   14     -0.51      0.00
   -4   -3   14     -0.99      0.00
   -3   -3   14     -0.51      0.00
   -1   -3   14      0.97      0.00
    0   -3   14     -0.45      0.00
    1   -3   14     -0.71      0.00
    2   -3   14     -0.17      0.00
    3   -3   14     -0.28      0.00
    4   -3   14      0.12      0.00
    5   -3   14      0.21      0.00
    6   -3   14     -0.14      0.00
    7   -3   14      0.11      0.00
    8   -3   14      0.17      0.00
    9   -3   14      0.33      0.00
  -12   -2   14      0.22      0.00
  -11   -2   14     -1.34      0.00
  -10   -2   14     -1.18      0.00
   -9   -2   14     -0.21      0.00
   -8   -2   14      0.17      0.00
   -7   -2   14      0.72      0.00
   -6   -2   14      0.97      0.00
   -5   -2   14      0.44      0.00
   -4   -2   14     -0.40      0.00
   -3   -2   14     -0.59      0.00
   -2   -2   14      0.46      0.00
    0   -2   14     -0.54      0.00
    1   -2   14     -1.70      0.00
    2   -2   14     -0.67      0.00
    3   -2   14      0.02      0.00
    4   -2   14      0.15      0.00
    5   -2   14      0.37      0.00
    6   -2   14      0.23      0.00
    7   -2   14      0.30      0.00
    8   -2   14      0.01      0.00
    9   -2   14     -0.23      0.00
  -12   -1   14      0.22      0.00
  -11   -1   14     -0.27      0.00
  -10   -1   14     -0.22      0.00
   -9   -1   14      0.44      0.00
   -8   -1   14      0.31      0.00
   -7   -1   14     -0.31      0.00
   -6   -1   14     -0.41      0.00
   -5   -1   14      0.08      0.00
   -3   -1   14      0.20      0.00
   -2   -1   14     -0.07      0.00
   -1   -1   14      0.13      0.00
    0   -1   14     -0.31      0.00
    1   -1   14     -1.20      0.00
    2   -1   14     -0.67      0.00
    3   -1   14      0.23      0.00
    4   -1   14      0.26      0.00
    5   -1   14      0.44      0.00
    6   -1   14      0.47      0.00
    7   -1   14      0.37      0.00
    8   -1   14      0.09      0.00
    9   -1   14     -0.41      0.00
  -12    0   14     -0.05      0.00
  -11    0   14     -0.07      0.00
  -10    0   14      0.14      0.00
   -9    0   14      0.38      0.00
   -8    0   14      0.62      0.00
   -7    0   14     -0.06      0.00
   -6    0   14     -1.29      0.00
   -5    0   14     -1.36      0.00
   -4    0   14      0.27      0.00
   -3    0   14      1.48      0.00
   -1    0   14     -0.60      0.00
    0    0   14     -0.48      0.00
    1    0   14     -0.18      0.00
    2    0   14     -0.05      0.00
    3    0   14      0.11      0.00
    4    0   14     -0.06      0.00
    5    0   14      0.23      0.00
    6    0   14      0.54      0.00
    7    0   14      0.11      0.00
    8    0   14     -0.11      0.00
    9    0   14     -0.05      0.00
  -12    1   14      0.19      0.00
  -11    1   14      0.05      0.00
  -10    1   14      0.06      0.00
   -9    1   14     -0.19      0.00
   -8    1   14      0.32      0.00
   -7    1   14      0.63      0.00
   -6    1   14     -0.75      0.00
   -5    1   14     -1.98      0.00
   -4    1   14     -0.84      0.00
   -3    1   14      1.58      0.00
   -2    1   14      1.79      0.00
   -1    1   14     -0.06      0.00
    1    1   14     -0.19      0.00
    2    1   14      0.05      0.00
    3    1   14     -0.07      0.00
    4    1   14     -0.40      0.00
    5    1   14     -0.18      0.00
    6    1   14      0.38      0.00
    7    1   14      0.01      0.00
    8    1   14     -0.40      0.00
    9    1   14      0.11      0.00
  -12    2   14      0.09      0.00
  -11    2   14      0.33      0.00
  -10    2   14      0.18      0.00
   -9    2   14     -0.25      0.00
   -8    2   14     -0.16      0.00
   -7    2   14      0.58      0.00
   -6    2   14      0.00      0.00
   -5    2   14     -1.32      0.00
   -4    2   14     -1.20      0.00
   -3    2   14      0.56      0.00
   -1    2   14      0.57      0.00
    0    2   14     -0.59      0.00
    1    2   14     -0.59      0.00
    2    2   14     -0.38      0.00
    3    2   14     -0.07      0.00
    4    2   14     -0.01      0.00
    5    2   14     -0.10      0.00
    6    2   14     -0.02      0.00
    7    2   14     -0.09      0.00
    8    2   14     -0.14      0.00
    9    2   14      0.25      0.00
  -12    3   14     -0.42      0.00
  -11    3   14      0.08      0.00
  -10    3   14      0.18      0.00
   -9    3   14      0.21      0.00
   -8    3   14     -0.04      0.00
   -7    3   14     -0.05      0.00
   -6    3   14     -0.07      0.00
   -5    3   14     -0.40      0.00
   -4    3   14     -0.38      0.00
   -3    3   14     -0.06      0.00
   -2    3   14      0.42      0.00
   -1    3   14      0.21      0.00
    0    3   14     -0.38      0.00
    2    3   14     -0.16      0.00
    3    3   14      0.12      0.00
    4    3   14      0.51      0.00
    5    3   14      0.41      0.00
    6    3   14     -0.11      0.00
    7    3   14     -0.38      0.00
    8    3   14      0.18      0.00
    9    3   14      0.66      0.00
  -12    4   14     -0.18      0.00
  -11    4   14     -0.32      0.00
  -10    4   14     -0.24      0.00
   -9    4   14      0.25      0.00
   -8    4   14      0.53      0.00
   -7    4   14     -0.15      0.00
   -6    4   14     -0.53      0.00
   -5    4   14     -0.05      0.00
   -4    4   14      0.55      0.00
   -3    4   14      0.22      0.00
   -2    4   14     -0.30      0.00
   -1    4   14     -0.16      0.00
    0    4   14     -0.07      0.00
    1    4   14      0.22      0.00
    2    4   14      0.47      0.00
    3    4   14      0.30      0.00
    4    4   14      0.30      0.00
    5    4   14      0.34      0.00
    6    4   14      0.04      0.00
    7    4   14     -0.30      0.00
    8    4   14      0.20      0.00
    9    4   14      0.76      0.00
  -12    5   14      0.57      0.00
  -11    5   14     -0.05      0.00
  -10    5   14     -0.46      0.00
   -9    5   14     -0.22      0.00
   -8    5   14      0.62      0.00
   -7    5   14      0.56      0.00
   -6    5   14     -0.33      0.00
   -5    5   14     -0.26      0.00
   -4    5   14      0.56      0.00
   -3    5   14      0.54      0.00
   -2    5   14      0.00      0.00
   -1    5   14      0.25      0.00
    0    5   14      0.49      0.00
    1    5   14      0.31      0.00
    2    5   14      0.32      0.00
    3    5   14      0.06      0.00
    4    5   14     -0.28      0.00
    5    5   14     -0.22      0.00
    6    5   14     -0.08      0.00
    7    5   14      0.00      0.00
    8    5   14      0.25      0.00
  -11    6   14      0.44      0.00
  -10    6   14     -0.16      0.00
   -9    6   14     -0.34      0.00
   -8    6   14      0.21      0.00
   -7    6   14      0.90      0.00
   -6    6   14      0.41      0.00
   -5    6   14     -0.30      0.00
   -4    6   14     -0.01      0.00
   -3    6   14      0.35      0.00
   -2    6   14      0.40      0.00
   -1    6   14      0.60      0.00
    0    6   14      0.54      0.00
    1    6   14      0.01      0.00
    2    6   14     -0.19      0.00
    3    6   14     -0.28      0.00
    4    6   14     -0.54      0.00
    5    6   14     -0.34      0.00
    6    6   14     -0.02      0.00
    7    6   14      0.06      0.00
    8    6   14      0.13      0.00
  -10    7   14      0.11      0.00
   -9    7   14     -0.05      0.00
   -8    7   14      0.15      0.00
   -7    7   14      0.43      0.00
   -6    7   14      0.39      0.00
   -5    7   14     -0.17      0.00
   -4    7   14     -0.26      0.00
   -3    7   14      0.10      0.00
   -2    7   14      0.40      0.00
   -1    7   14      0.45      0.00
    0    7   14     -0.08      0.00
    1    7   14     -0.42      0.00
    2    7   14     -0.09      0.00
    3    7   14      0.07      0.00
    4    7   14     -0.32      0.00
    5    7   14     -0.23      0.00
    6    7   14      0.35      0.00
    7    7   14      0.27      0.00
  -10    8   14      0.00      0.00
   -9    8   14     -0.20      0.00
   -8    8   14      0.29      0.00
   -7    8   14      0.21      0.00
   -6    8   14     -0.25      0.00
   -5    8   14     -0.31      0.00
   -4    8   14     -0.14      0.00
   -3    8   14      0.06      0.00
   -2    8   14      0.25      0.00
   -1    8   14      0.36      0.00
    0    8   14     -0.13      0.00
    1    8   14     -0.41      0.00
    2    8   14      0.27      0.00
    3    8   14      0.63      0.00
    4    8   14      0.14      0.00
    5    8   14     -0.23      0.00
    6    8   14      0.22      0.00
   -9    9   14     -0.68      0.00
   -8    9   14     -0.25      0.00
   -7    9   14      0.29      0.00
   -6    9   14     -0.29      0.00
   -5    9   14     -0.41      0.00
   -4    9   14     -0.06      0.00
   -3    9   14     -0.02      0.00
   -2    9   14      0.07      0.00
   -1    9   14      0.45      0.00
    0    9   14      0.53      0.00
    1    9   14      0.23      0.00
    2    9   14      0.29      0.00
    3    9   14      0.36      0.00
    4    9   14      0.17      0.00
    5    9   14     -0.06      0.00
   -7   10   14      0.01      0.00
   -6   10   14      0.04      0.00
   -5   10   14     -0.24      0.00
   -4   10   14     -0.06      0.00
   -3   10   14     -0.19      0.00
   -2   10   14     -0.13      0.00
   -1   10   14      0.37      0.00
    0   10   14      0.71      0.00
    1   10   14      0.53      0.00
    2   10   14      0.02      0.00
    3   10   14     -0.31      0.00
    4   10   14     -0.22      0.00
   -6   11   14      0.08      0.00
   -5   11   14     -0.19      0.00
   -4   11   14     -0.16      0.00
   -3   11   14     -0.28      0.00
   -2   11   14     -0.33      0.00
   -1   11   14      0.13      0.00
    0   11   14      0.33      0.00
    1   11   14      0.15      0.00
    2   11   14     -0.30      0.00
    3   11   14     -0.57      0.00
   -4   12   14     -0.20      0.00
   -3   12   14     -0.11      0.00
   -2   12   14     -0.36      0.00
   -1   12   14     -0.17      0.00
   -2  -12   15      0.17      0.00
   -1  -12   15     -0.69      0.00
   -6  -11   15     -0.21      0.00
   -5  -11   15     -0.09      0.00
   -4  -11   15      0.28      0.00
   -3  -11   15      0.42      0.00
   -2  -11   15      0.59      0.00
   -1  -11   15     -0.14      0.00
    0  -11   15     -0.85      0.00
    1  -11   15     -0.77      0.00
    2  -11   15     -0.39      0.00
   -7  -10   15      0.83      0.00
   -6  -10   15     -0.14      0.00
   -5  -10   15     -0.41      0.00
   -4  -10   15      0.28      0.00
   -3  -10   15      0.46      0.00
   -2  -10   15      0.72      0.00
   -1  -10   15      0.49      0.00
    0  -10   15     -0.45      0.00
    1  -10   15     -0.44      0.00
    2  -10   15      0.13      0.00
    3  -10   15      0.31      0.00
    4  -10   15      0.31      0.00
   -9   -9   15      0.44      0.00
   -8   -9   15      0.56      0.00
   -7   -9   15      0.87      0.00
   -6   -9   15      0.28      0.00
   -5   -9   15     -0.48      0.00
   -4   -9   15      0.00      0.00
   -3   -9   15      0.47      0.00
   -2   -9   15      0.71      0.00
   -1   -9   15      0.66      0.00
    0   -9   15     -0.17      0.00
    1   -9   15     -0.25      0.00
    2   -9   15      0.50      0.00
    3   -9   15      0.42      0.00
    4   -9   15      0.15      0.00
    5   -9   15      0.52      0.00
    6   -9   15      0.46      0.00
   -9   -8   15      0.21      0.00
   -8   -8   15      0.07      0.00
   -7   -8   15      0.47      0.00
   -6   -8   15      0.64      0.00
   -5   -8   15     -0.20      0.00
   -4   -8   15     -0.16      0.00
   -3   -8   15      0.49      0.00
   -2   -8   15      0.64      0.00
   -1   -8   15      0.35      0.00
    0   -8   15     -0.32      0.00
    1   -8   15     -0.35      0.00
    2   -8   15      0.30      0.00
    3   -8   15      0.27      0.00
    4   -8   15      0.05      0.00
    5   -8   15      0.69      0.00
    6   -8   15      0.85      0.00
    7   -8   15      0.07      0.00
  -11   -7   15      1.72      0.00
  -10   -7   15      1.20      0.00
   -9   -7   15      0.40      0.00
   -8   -7   15     -0.14      0.00
   -7   -7   15     -0.12      0.00
   -6   -7   15      0.20      0.00
   -5   -7   15     -0.54      0.00
   -4   -7   15     -0.56      0.00
   -3   -7   15      0.53      0.00
   -2   -7   15      0.65      0.00
   -1   -7   15     -0.03      0.00
    0   -7   15     -0.63      0.00
    1   -7   15     -0.53      0.00
    2   -7   15      0.01      0.00
    3   -7   15      0.02      0.00
    4   -7   15      0.06      0.00
    5   -7   15      0.78      0.00
    6   -7   15      0.87      0.00
    7   -7   15      0.00      0.00
  -11   -6   15      1.81      0.00
  -10   -6   15      1.81      0.00
   -9   -6   15      1.18      0.00
   -8   -6   15      0.72      0.00
   -7   -6   15     -0.15      0.00
   -6   -6   15     -0.62      0.00
   -5   -6   15     -1.25      0.00
   -4   -6   15     -1.32      0.00
   -3   -6   15      0.11      0.00
   -2   -6   15      0.63      0.00
   -1   -6   15     -0.13      0.00
    0   -6   15     -0.54      0.00
    1   -6   15     -0.43      0.00
    2   -6   15     -0.05      0.00
    3   -6   15      0.13      0.00
    4   -6   15      0.22      0.00
    5   -6   15      0.61      0.00
    6   -6   15      0.60      0.00
    7   -6   15     -0.11      0.00
    8   -6   15     -0.06      0.00
  -11   -5   15      0.16      0.00
  -10   -5   15      0.79      0.00
   -9   -5   15      1.25      0.00
   -8   -5   15      1.76      0.00
   -7   -5   15      0.51      0.00
   -6   -5   15     -1.02      0.00
   -5   -5   15     -1.36      0.00
   -4   -5   15     -1.37      0.00
   -3   -5   15     -0.44      0.00
   -2   -5   15      0.38      0.00
   -1   -5   15     -0.05      0.00
    0   -5   15     -0.20      0.00
    1   -5   15     -0.04      0.00
    2   -5   15     -0.10      0.00
    3   -5   15      0.25      0.00
    4   -5   15      0.48      0.00
    5   -5   15      0.21      0.00
    6   -5   15      0.02      0.00
    7   -5   15     -0.05      0.00
    8   -5   15      0.17      0.00
  -12   -4   15     -1.42      0.00
  -11   -4   15     -1.59      0.00
  -10   -4   15     -0.67      0.00
   -9   -4   15      0.46      0.00
   -8   -4   15      1.77      0.00
   -7   -4   15      1.22      0.00
   -6   -4   15     -0.56      0.00
   -5   -4   15     -0.94      0.00
   -4   -4   15     -0.73      0.00
   -3   -4   15     -0.41      0.00
   -2   -4   15      0.32      0.00
   -1   -4   15      0.11      0.00
    0   -4   15     -0.35      0.00
    1   -4   15     -0.11      0.00
    2   -4   15     -0.26      0.00
    3   -4   15     -0.05      0.00
    4   -4   15      0.55      0.00
    5   -4   15      0.07      0.00
    6   -4   15     -0.47      0.00
    7   -4   15     -0.14      0.00
    8   -4   15      0.42      0.00
    9   -4   15      0.68      0.00
  -12   -3   15     -0.85      0.00
  -11   -3   15     -1.91      0.00
  -10   -3   15     -1.02      0.00
   -9   -3   15      0.08      0.00
   -8   -3   15      0.90      0.00
   -7   -3   15      1.06      0.00
   -6   -3   15      0.30      0.00
   -5   -3   15     -0.15      0.00
   -4   -3   15     -0.25      0.00
   -3   -3   15     -0.22      0.00
   -2   -3   15      0.41      0.00
   -1   -3   15      0.29      0.00
    0   -3   15     -0.89      0.00
    1   -3   15     -0.94      0.00
    2   -3   15     -0.43      0.00
    3   -3   15     -0.25      0.00
    4   -3   15      0.36      0.00
    5   -3   15      0.31      0.00
    6   -3   15     -0.25      0.00
    7   -3   15     -0.22      0.00
    8   -3   15      0.09      0.00
    9   -3   15      0.48      0.00
  -12   -2   15     -0.18      0.00
  -11   -2   15     -0.98      0.00
  -10   -2   15     -0.35      0.00
   -9   -2   15      0.54      0.00
   -8   -2   15      0.36      0.00
   -7   -2   15      0.00      0.00
   -6   -2   15      0.11      0.00
   -5   -2   15      0.50      0.00
   -4   -2   15      0.42      0.00
   -3   -2   15      0.00      0.00
   -1   -2   15      0.10      0.00
    0   -2   15     -0.99      0.00
    1   -2   15     -1.34      0.00
    2   -2   15     -0.38      0.00
    3   -2   15      0.02      0.00
    4   -2   15      0.22      0.00
    5   -2   15      0.51      0.00
    6   -2   15      0.34      0.00
    7   -2   15      0.12      0.00
    8   -2   15     -0.30      0.00
    9   -2   15     -0.20      0.00
  -12   -1   15     -0.17      0.00
  -11   -1   15     -0.08      0.00
  -10   -1   15      0.26      0.00
   -9   -1   15      0.84      0.00
   -8   -1   15      0.57      0.00
   -7   -1   15     -0.52      0.00
   -6   -1   15     -1.02      0.00
   -5   -1   15     -0.09      0.00
   -4   -1   15      1.08      0.00
   -3   -1   15      0.97      0.00
   -2   -1   15      0.05      0.00
   -1   -1   15     -0.50      0.00
    0   -1   15     -0.70      0.00
    1   -1   15     -0.61      0.00
    2   -1   15      0.07      0.00
    3   -1   15      0.25      0.00
    4   -1   15      0.09      0.00
    5   -1   15      0.44      0.00
    6   -1   15      0.52      0.00
    7   -1   15      0.28      0.00
    8   -1   15     -0.17      0.00
    9   -1   15     -0.44      0.00
  -12    0   15     -0.14      0.00
  -11    0   15      0.27      0.00
  -10    0   15      0.38      0.00
   -9    0   15      0.35      0.00
   -8    0   15      0.61      0.00
   -7    0   15      0.05      0.00
   -6    0   15     -1.21      0.00
   -5    0   15     -1.24      0.00
   -4    0   15      0.62      0.00
   -3    0   15      1.95      0.00
   -2    0   15      0.89      0.00
   -1    0   15     -0.60      0.00
    0    0   15     -0.57      0.00
    1    0   15      0.14      0.00
    3    0   15      0.12      0.00
    4    0   15     -0.26      0.00
    5    0   15      0.24      0.00
    6    0   15      0.43      0.00
    7    0   15     -0.05      0.00
    8    0   15     -0.13      0.00
    9    0   15      0.00      0.00
  -12    1   15      0.19      0.00
  -11    1   15      0.40      0.00
  -10    1   15      0.43      0.00
   -9    1   15     -0.06      0.00
   -8    1   15      0.14      0.00
   -7    1   15      0.45      0.00
   -6    1   15     -0.39      0.00
   -5    1   15     -1.25      0.00
   -4    1   15     -0.34      0.00
   -3    1   15      1.59      0.00
   -2    1   15      1.58      0.00
   -1    1   15     -0.04      0.00
    0    1   15     -0.50      0.00
    1    1   15      0.02      0.00
    2    1   15      0.29      0.00
    3    1   15      0.02      0.00
    4    1   15     -0.32      0.00
    5    1   15      0.08      0.00
    6    1   15      0.35      0.00
    7    1   15     -0.19      0.00
    8    1   15     -0.23      0.00
    9    1   15      0.32      0.00
  -12    2   15      0.21      0.00
  -11    2   15      0.28      0.00
  -10    2   15      0.38      0.00
   -9    2   15      0.24      0.00
   -8    2   15     -0.03      0.00
   -7    2   15      0.06      0.00
   -6    2   15     -0.11      0.00
   -5    2   15     -0.39      0.00
   -4    2   15     -0.29      0.00
   -3    2   15      0.52      0.00
   -2    2   15      0.94      0.00
   -1    2   15      0.11      0.00
    0    2   15     -0.27      0.00
    1    2   15     -0.05      0.00
    2    2   15     -0.02      0.00
    3    2   15      0.14      0.00
    4    2   15      0.25      0.00
    5    2   15      0.27      0.00
    6    2   15      0.11      0.00
    7    2   15     -0.13      0.00
    8    2   15      0.09      0.00
    9    2   15      0.45      0.00
  -12    3   15      0.06      0.00
  -11    3   15     -0.05      0.00
  -10    3   15     -0.07      0.00
   -9    3   15      0.49      0.00
   -8    3   15      0.41      0.00
   -7    3   15     -0.29      0.00
   -6    3   15     -0.56      0.00
   -5    3   15      0.01      0.00
   -4    3   15      0.49      0.00
   -3    3   15      0.16      0.00
   -2    3   15     -0.10      0.00
   -1    3   15     -0.27      0.00
    0    3   15     -0.08      0.00
    1    3   15      0.44      0.00
    2    3   15      0.29      0.00
    3    3   15      0.20      0.00
    4    3   15      0.55      0.00
    5    3   15      0.54      0.00
    6    3   15     -0.03      0.00
    7    3   15     -0.25      0.00
    8    3   15      0.41      0.00
    9    3   15      0.66      0.00
  -12    4   15      0.25      0.00
  -11    4   15     -0.09      0.00
  -10    4   15     -0.46      0.00
   -9    4   15      0.06      0.00
   -8    4   15      0.73      0.00
   -7    4   15      0.08      0.00
   -6    4   15     -0.69      0.00
   -5    4   15     -0.20      0.00
   -4    4   15      0.66      0.00
   -3    4   15      0.35      0.00
   -2    4   15     -0.23      0.00
   -1    4   15     -0.11      0.00
    0    4   15      0.17      0.00
    1    4   15      0.61      0.00
    2    4   15      0.55      0.00
    3    4   15      0.03      0.00
    4    4   15      0.03      0.00
    5    4   15      0.22      0.00
    6    4   15     -0.01      0.00
    7    4   15     -0.23      0.00
    8    4   15      0.27      0.00
  -11    5   15      0.17      0.00
  -10    5   15     -0.36      0.00
   -9    5   15     -0.46      0.00
   -8    5   15      0.41      0.00
   -7    5   15      0.69      0.00
   -6    5   15     -0.10      0.00
   -5    5   15     -0.38      0.00
   -4    5   15      0.08      0.00
   -3    5   15      0.22      0.00
   -2    5   15      0.16      0.00
   -1    5   15      0.45      0.00
    0    5   15      0.40      0.00
    1    5   15      0.10      0.00
    2    5   15      0.02      0.00
    3    5   15     -0.28      0.00
    4    5   15     -0.46      0.00
    5    5   15     -0.27      0.00
    6    5   15     -0.11      0.00
    7    5   15     -0.07      0.00
    8    5   15      0.01      0.00
  -11    6   15      0.24      0.00
  -10    6   15     -0.12      0.00
   -9    6   15     -0.37      0.00
   -8    6   15     -0.03      0.00
   -7    6   15      0.61      0.00
   -6    6   15      0.35      0.00
   -5    6   15     -0.29      0.00
   -4    6   15     -0.37      0.00
   -3    6   15     -0.12      0.00
   -2    6   15      0.25      0.00
   -1    6   15      0.38      0.00
    0    6   15     -0.02      0.00
    1    6   15     -0.44      0.00
    2    6   15     -0.42      0.00
    3    6   15     -0.37      0.00
    4    6   15     -0.37      0.00
    5    6   15     -0.12      0.00
    6    6   15      0.03      0.00
    7    6   15     -0.09      0.00
  -10    7   15     -0.25      0.00
   -9    7   15     -0.11      0.00
   -8    7   15      0.13      0.00
   -7    7   15      0.08      0.00
   -6    7   15     -0.07      0.00
   -5    7   15     -0.29      0.00
   -4    7   15     -0.31      0.00
   -3    7   15     -0.18      0.00
   -2    7   15      0.14      0.00
   -1    7   15      0.04      0.00
    0    7   15     -0.65      0.00
    1    7   15     -0.60      0.00
    2    7   15     -0.01      0.00
    3    7   15      0.07      0.00
    4    7   15     -0.13      0.00
    5    7   15      0.11      0.00
    6    7   15      0.41      0.00
    7    7   15      0.04      0.00
   -9    8   15     -0.45      0.00
   -8    8   15      0.35      0.00
   -7    8   15      0.08      0.00
   -6    8   15     -0.57      0.00
   -5    8   15     -0.46      0.00
   -4    8   15     -0.19      0.00
   -3    8   15     -0.15      0.00
   -2    8   15      0.05      0.00
   -1    8   15      0.22      0.00
    0    8   15     -0.28      0.00
    1    8   15     -0.27      0.00
    2    8   15      0.45      0.00
    3    8   15      0.43      0.00
    4    8   15     -0.03      0.00
    5    8   15     -0.07      0.00
    6    8   15      0.30      0.00
   -8    9   15     -0.14      0.00
   -7    9   15      0.33      0.00
   -6    9   15     -0.30      0.00
   -5    9   15     -0.35      0.00
   -4    9   15     -0.15      0.00
   -3    9   15     -0.31      0.00
   -2    9   15     -0.13      0.00
   -1    9   15      0.45      0.00
    0    9   15      0.57      0.00
    1    9   15      0.30      0.00
    2    9   15      0.29      0.00
    3    9   15      0.10      0.00
    4    9   15     -0.16      0.00
    5    9   15     -0.16      0.00
   -7   10   15      0.17      0.00
   -6   10   15      0.11      0.00
   -5   10   15     -0.05      0.00
   -4   10   15     -0.11      0.00
   -3   10   15     -0.48      0.00
   -2   10   15     -0.29      0.00
   -1   10   15      0.31      0.00
    0   10   15      0.57      0.00
    1   10   15      0.35      0.00
    2   10   15     -0.06      0.00
    3   10   15     -0.31      0.00
    4   10   15     -0.28      0.00
   -5   11   15      0.04      0.00
   -4   11   15     -0.04      0.00
   -3   11   15     -0.45      0.00
   -2   11   15     -0.39      0.00
   -1   11   15      0.12      0.00
    0   11   15      0.15      0.00
    1   11   15     -0.02      0.00
    2   11   15     -0.23      0.00
   -5  -11   16      0.33      0.00
   -4  -11   16      0.64      0.00
   -3  -11   16      0.72      0.00
   -2  -11   16      0.97      0.00
   -1  -11   16      0.35      0.00
    0  -11   16     -0.17      0.00
    1  -11   16      0.08      0.00
   -6  -10   16     -0.34      0.00
   -5  -10   16      0.04      0.00
   -4  -10   16      0.80      0.00
   -3  -10   16      0.80      0.00
   -2  -10   16      0.91      0.00
   -1  -10   16      0.57      0.00
    0  -10   16     -0.02      0.00
    1  -10   16      0.36      0.00
    2  -10   16      0.78      0.00
    3  -10   16      0.59      0.00
   -8   -9   16      0.35      0.00
   -7   -9   16      0.63      0.00
   -6   -9   16      0.10      0.00
   -5   -9   16     -0.17      0.00
   -4   -9   16      0.52      0.00
   -3   -9   16      0.88      0.00
   -2   -9   16      0.84      0.00
   -1   -9   16      0.35      0.00
    0   -9   16     -0.23      0.00
    1   -9   16      0.31      0.00
    2   -9   16      0.93      0.00
    3   -9   16      0.52      0.00
    4   -9   16      0.35      0.00
    5   -9   16      0.75      0.00
   -9   -8   16      0.07      0.00
   -8   -8   16     -0.26      0.00
   -7   -8   16      0.28      0.00
   -6   -8   16      0.31      0.00
   -5   -8   16     -0.31      0.00
   -4   -8   16      0.16      0.00
   -3   -8   16      0.84      0.00
   -2   -8   16      0.77      0.00
   -1   -8   16      0.03      0.00
    0   -8   16     -0.61      0.00
    1   -8   16     -0.04      0.00
    2   -8   16      0.65      0.00
    3   -8   16      0.34      0.00
    4   -8   16      0.28      0.00
    5   -8   16      0.91      0.00
    6   -8   16      0.70      0.00
  -10   -7   16      1.50      0.00
   -9   -7   16      0.74      0.00
   -8   -7   16     -0.15      0.00
   -7   -7   16     -0.33      0.00
   -6   -7   16     -0.33      0.00
   -5   -7   16     -1.02      0.00
   -4   -7   16     -0.44      0.00
   -3   -7   16      0.75      0.00
   -2   -7   16      0.61      0.00
   -1   -7   16     -0.17      0.00
    0   -7   16     -0.65      0.00
    1   -7   16     -0.20      0.00
    2   -7   16      0.39      0.00
    3   -7   16      0.28      0.00
    4   -7   16      0.32      0.00
    5   -7   16      0.72      0.00
    6   -7   16      0.43      0.00
    7   -7   16     -0.22      0.00
  -10   -6   16      1.75      0.00
   -9   -6   16      1.58      0.00
   -8   -6   16      0.88      0.00
   -7   -6   16     -0.44      0.00
   -6   -6   16     -1.03      0.00
   -5   -6   16     -1.51      0.00
   -4   -6   16     -1.11      0.00
   -3   -6   16      0.33      0.00
   -2   -6   16      0.44      0.00
   -1   -6   16     -0.22      0.00
    0   -6   16     -0.25      0.00
    1   -6   16      0.02      0.00
    2   -6   16      0.32      0.00
    3   -6   16      0.49      0.00
    4   -6   16      0.48      0.00
    5   -6   16      0.28      0.00
    6   -6   16     -0.15      0.00
    7   -6   16     -0.34      0.00
  -11   -5   16     -0.11      0.00
  -10   -5   16      0.68      0.00
   -9   -5   16      1.46      0.00
   -8   -5   16      1.63      0.00
   -7   -5   16     -0.06      0.00
   -6   -5   16     -1.19      0.00
   -5   -5   16     -1.02      0.00
   -4   -5   16     -0.87      0.00
   -3   -5   16     -0.12      0.00
   -2   -5   16      0.31      0.00
   -1   -5   16     -0.10      0.00
    0   -5   16      0.05      0.00
    1   -5   16      0.22      0.00
    2   -5   16      0.11      0.00
    3   -5   16      0.52      0.00
    4   -5   16      0.66      0.00
    5   -5   16     -0.15      0.00
    6   -5   16     -0.73      0.00
    7   -5   16     -0.32      0.00
    8   -5   16      0.40      0.00
  -11   -4   16     -1.37      0.00
  -10   -4   16     -0.36      0.00
   -9   -4   16      0.72      0.00
   -8   -4   16      1.36      0.00
   -7   -4   16      0.36      0.00
   -6   -4   16     -0.71      0.00
   -5   -4   16     -0.26      0.00
   -4   -4   16     -0.05      0.00
   -3   -4   16     -0.11      0.00
   -2   -4   16      0.28      0.00
   -1   -4   16      0.05      0.00
    0   -4   16     -0.19      0.00
    1   -4   16     -0.03      0.00
    2   -4   16     -0.20      0.00
    3   -4   16      0.19      0.00
    4   -4   16      0.71      0.00
    5   -4   16     -0.10      0.00
    6   -4   16     -0.90      0.00
    7   -4   16     -0.41      0.00
    8   -4   16      0.47      0.00
  -12   -3   16     -0.68      0.00
  -11   -3   16     -1.23      0.00
  -10   -3   16     -0.30      0.00
   -9   -3   16      0.49      0.00
   -8   -3   16      0.54      0.00
   -7   -3   16      0.13      0.00
   -6   -3   16     -0.08      0.00
   -5   -3   16      0.39      0.00
   -4   -3   16      0.51      0.00
   -3   -3   16      0.16      0.00
   -2   -3   16      0.23      0.00
   -1   -3   16     -0.02      0.00
    0   -3   16     -0.67      0.00
    1   -3   16     -0.47      0.00
    2   -3   16     -0.16      0.00
    3   -3   16      0.01      0.00
    4   -3   16      0.56      0.00
    5   -3   16      0.36      0.00
    6   -3   16     -0.30      0.00
    7   -3   16     -0.45      0.00
    8   -3   16     -0.08      0.00
  -12   -2   16     -0.22      0.00
  -11   -2   16     -0.37      0.00
  -10   -2   16      0.26      0.00
   -9   -2   16      0.80      0.00
   -8   -2   16      0.21      0.00
   -7   -2   16     -0.60      0.00
   -6   -2   16     -0.37      0.00
   -5   -2   16      0.66      0.00
   -4   -2   16      1.08      0.00
   -3   -2   16      0.65      0.00
   -2   -2   16      0.12      0.00
   -1   -2   16     -0.38      0.00
    0   -2   16     -0.79      0.00
    1   -2   16     -0.36      0.00
    2   -2   16      0.32      0.00
    3   -2   16      0.22      0.00
    4   -2   16      0.31      0.00
    5   -2   16      0.57      0.00
    6   -2   16      0.43      0.00
    7   -2   16     -0.02      0.00
    8   -2   16     -0.57      0.00
    9   -2   16     -0.29      0.00
  -12   -1   16     -0.11      0.00
  -11   -1   16      0.29      0.00
  -10   -1   16      0.42      0.00
   -9   -1   16      0.65      0.00
   -8   -1   16      0.38      0.00
   -7   -1   16     -0.61      0.00
   -6   -1   16     -1.09      0.00
   -5   -1   16     -0.03      0.00
   -4   -1   16      1.39      0.00
   -3   -1   16      1.51      0.00
   -2   -1   16      0.37      0.00
   -1   -1   16     -0.60      0.00
    0   -1   16     -0.52      0.00
    1   -1   16      0.29      0.00
    2   -1   16      0.78      0.00
    3   -1   16      0.30      0.00
    4   -1   16      0.03      0.00
    5   -1   16      0.40      0.00
    6   -1   16      0.46      0.00
    7   -1   16      0.23      0.00
    8   -1   16     -0.30      0.00
    9   -1   16     -0.45      0.00
  -12    0   16      0.11      0.00
  -11    0   16      0.62      0.00
  -10    0   16      0.37      0.00
   -9    0   16     -0.04      0.00
   -8    0   16      0.16      0.00
   -7    0   16      0.03      0.00
   -6    0   16     -0.77      0.00
   -5    0   16     -0.80      0.00
   -4    0   16      0.75      0.00
   -3    0   16      1.89      0.00
   -2    0   16      0.93      0.00
   -1    0   16     -0.37      0.00
    0    0   16     -0.25      0.00
    1    0   16      0.57      0.00
    2    0   16      0.78      0.00
    3    0   16      0.10      0.00
    4    0   16     -0.19      0.00
    5    0   16      0.29      0.00
    6    0   16      0.21      0.00
    7    0   16     -0.09      0.00
    9    0   16      0.05      0.00
  -12    1   16      0.31      0.00
  -11    1   16      0.55      0.00
  -10    1   16      0.48      0.00
   -9    1   16     -0.13      0.00
   -8    1   16     -0.31      0.00
   -7    1   16     -0.02      0.00
   -6    1   16     -0.07      0.00
   -5    1   16     -0.43      0.00
   -4    1   16      0.02      0.00
   -3    1   16      1.13      0.00
   -2    1   16      0.87      0.00
   -1    1   16     -0.13      0.00
    0    1   16     -0.05      0.00
    1    1   16      0.37      0.00
    2    1   16      0.39      0.00
    3    1   16      0.08      0.00
    4    1   16     -0.04      0.00
    5    1   16      0.34      0.00
    6    1   16      0.20      0.00
    7    1   16     -0.21      0.00
    8    1   16      0.12      0.00
  -12    2   16      0.31      0.00
  -11    2   16      0.07      0.00
  -10    2   16      0.23      0.00
   -9    2   16      0.41      0.00
   -8    2   16     -0.10      0.00
   -7    2   16     -0.59      0.00
   -6    2   16     -0.35      0.00
   -5    2   16      0.22      0.00
   -4    2   16      0.25      0.00
   -3    2   16      0.19      0.00
   -2    2   16     -0.01      0.00
   -1    2   16     -0.37      0.00
    0    2   16      0.15      0.00
    1    2   16      0.50      0.00
    2    2   16      0.21      0.00
    3    2   16      0.25      0.00
    4    2   16      0.43      0.00
    5    2   16      0.41      0.00
    6    2   16      0.09      0.00
    7    2   16     -0.01      0.00
    8    2   16      0.40      0.00
  -12    3   16      0.36      0.00
  -11    3   16     -0.15      0.00
  -10    3   16     -0.40      0.00
   -9    3   16      0.40      0.00
   -8    3   16      0.49      0.00
   -7    3   16     -0.54      0.00
   -6    3   16     -0.94      0.00
   -5    3   16      0.04      0.00
   -4    3   16      0.66      0.00
   -3    3   16      0.01      0.00
   -2    3   16     -0.55      0.00
   -1    3   16     -0.55      0.00
    0    3   16      0.23      0.00
    1    3   16      0.89      0.00
    2    3   16      0.39      0.00
    3    3   16      0.11      0.00
    4    3   16      0.42      0.00
    5    3   16      0.35      0.00
    6    3   16     -0.13      0.00
    7    3   16     -0.07      0.00
    8    3   16      0.57      0.00
  -12    4   16      0.41      0.00
  -11    4   16      0.17      0.00
  -10    4   16     -0.55      0.00
   -9    4   16     -0.28      0.00
   -8    4   16      0.52      0.00
   -7    4   16      0.12      0.00
   -6    4   16     -0.70      0.00
   -5    4   16     -0.48      0.00
   -4    4   16      0.22      0.00
   -3    4   16      0.07      0.00
   -2    4   16     -0.23      0.00
   -1    4   16     -0.07      0.00
    0    4   16      0.19      0.00
    1    4   16      0.53      0.00
    2    4   16      0.26      0.00
    3    4   16     -0.27      0.00
    4    4   16     -0.20      0.00
    5    4   16     -0.04      0.00
    6    4   16     -0.18      0.00
    7    4   16     -0.21      0.00
    8    4   16      0.20      0.00
  -11    5   16      0.31      0.00
  -10    5   16     -0.19      0.00
   -9    5   16     -0.62      0.00
   -8    5   16      0.01      0.00
   -7    5   16      0.48      0.00
   -6    5   16     -0.02      0.00
   -5    5   16     -0.52      0.00
   -4    5   16     -0.49      0.00
   -3    5   16     -0.23      0.00
   -2    5   16      0.09      0.00
   -1    5   16      0.29      0.00
    0    5   16     -0.02      0.00
    1    5   16     -0.37      0.00
    2    5   16     -0.39      0.00
    3    5   16     -0.44      0.00
    4    5   16     -0.40      0.00
    5    5   16     -0.27      0.00
    6    5   16     -0.19      0.00
    7    5   16     -0.21      0.00
  -10    6   16     -0.11      0.00
   -9    6   16     -0.26      0.00
   -8    6   16     -0.20      0.00
   -7    6   16      0.12      0.00
   -6    6   16      0.02      0.00
   -5    6   16     -0.31      0.00
   -4    6   16     -0.54      0.00
   -3    6   16     -0.42      0.00
   -2    6   16     -0.01      0.00
   -1    6   16     -0.13      0.00
    0    6   16     -0.61      0.00
    1    6   16     -0.76      0.00
    2    6   16     -0.59      0.00
    3    6   16     -0.32      0.00
    4    6   16     -0.05      0.00
    5    6   16      0.07      0.00
    6    6   16     -0.05      0.00
    7    6   16     -0.28      0.00
  -10    7   16     -0.49      0.00
   -9    7   16      0.02      0.00
   -8    7   16      0.25      0.00
   -7    7   16     -0.26      0.00
   -6    7   16     -0.57      0.00
   -5    7   16     -0.39      0.00
   -4    7   16     -0.22      0.00
   -3    7   16     -0.23      0.00
   -2    7   16     -0.02      0.00
   -1    7   16     -0.33      0.00
    0    7   16     -0.91      0.00
    1    7   16     -0.47      0.00
    2    7   16      0.02      0.00
    3    7   16     -0.07      0.00
    4    7   16      0.02      0.00
    5    7   16      0.31      0.00
    6    7   16      0.26      0.00
   -9    8   16     -0.35      0.00
   -8    8   16      0.55      0.00
   -7    8   16      0.04      0.00
   -6    8   16     -0.72      0.00
   -5    8   16     -0.50      0.00
   -4    8   16     -0.18      0.00
   -3    8   16     -0.21      0.00
   -2    8   16      0.03      0.00
   -1    8   16      0.20      0.00
    0    8   16     -0.21      0.00
    1    8   16      0.02      0.00
    2    8   16      0.44      0.00
    3    8   16     -0.03      0.00
    4    8   16     -0.29      0.00
    5    8   16      0.01      0.00
   -8    9   16      0.14      0.00
   -7    9   16      0.38      0.00
   -6    9   16     -0.19      0.00
   -5    9   16     -0.23      0.00
   -4    9   16     -0.29      0.00
   -3    9   16     -0.48      0.00
   -2    9   16     -0.12      0.00
   -1    9   16      0.46      0.00
    0    9   16      0.49      0.00
    1    9   16      0.29      0.00
    2    9   16      0.23      0.00
    3    9   16     -0.22      0.00
    4    9   16     -0.48      0.00
   -7   10   16      0.25      0.00
   -6   10   16      0.20      0.00
   -5   10   16      0.08      0.00
   -4   10   16     -0.29      0.00
   -3   10   16     -0.64      0.00
   -2   10   16     -0.22      0.00
   -1   10   16      0.21      0.00
    0   10   16      0.23      0.00
    1   10   16      0.10      0.00
    2   10   16     -0.03      0.00
    3   10   16     -0.20      0.00
   -4   11   16     -0.09      0.00
   -3   11   16     -0.53      0.00
   -2   11   16     -0.21      0.00
   -1   11   16      0.12      0.00
    0   11   16     -0.13      0.00
   -4  -11   17      0.75      0.00
   -3  -11   17      0.74      0.00
   -1  -11   17      0.35      0.00
    0  -11   17      0.17      0.00
   -6  -10   17     -0.32      0.00
   -5  -10   17      0.38      0.00
   -4  -10   17      1.02      0.00
   -3  -10   17      0.88      0.00
   -2  -10   17      0.69      0.00
   -1  -10   17      0.21      0.00
    0  -10   17      0.09      0.00
    1  -10   17      0.76      0.00
    2  -10   17      0.92      0.00
   -7   -9   17      0.50      0.00
   -6   -9   17      0.07      0.00
   -5   -9   17      0.09      0.00
   -4   -9   17      0.81      0.00
   -3   -9   17      1.08      0.00
   -2   -9   17      0.72      0.00
   -1   -9   17     -0.18      0.00
    0   -9   17     -0.39      0.00
    1   -9   17      0.54      0.00
    2   -9   17      0.86      0.00
    3   -9   17      0.31      0.00
    4   -9   17      0.36      0.00
   -9   -8   17     -0.05      0.00
   -8   -8   17     -0.42      0.00
   -7   -8   17      0.18      0.00
   -6   -8   17      0.04      0.00
   -5   -8   17     -0.32      0.00
   -4   -8   17      0.44      0.00
   -3   -8   17      1.05      0.00
   -2   -8   17      0.77      0.00
   -1   -8   17     -0.25      0.00
    0   -8   17     -0.72      0.00
    1   -8   17      0.15      0.00
    2   -8   17      0.58      0.00
    3   -8   17      0.13      0.00
    4   -8   17      0.22      0.00
    5   -8   17      0.70      0.00
   -9   -7   17      0.97      0.00
   -8   -7   17     -0.08      0.00
   -7   -7   17     -0.43      0.00
   -6   -7   17     -0.63      0.00
   -5   -7   17     -1.06      0.00
   -4   -7   17     -0.06      0.00
   -3   -7   17      0.89      0.00
   -2   -7   17      0.52      0.00
   -1   -7   17     -0.12      0.00
    0   -7   17     -0.38      0.00
    1   -7   17      0.09      0.00
    2   -7   17      0.44      0.00
    3   -7   17      0.22      0.00
    4   -7   17      0.17      0.00
    5   -7   17      0.18      0.00
    6   -7   17     -0.14      0.00
  -10   -6   17      1.39      0.00
   -9   -6   17      1.66      0.00
   -8   -6   17      0.80      0.00
   -7   -6   17     -0.64      0.00
   -6   -6   17     -1.01      0.00
   -5   -6   17     -1.14      0.00
   -4   -6   17     -0.46      0.00
   -3   -6   17      0.59      0.00
   -2   -6   17      0.29      0.00
   -1   -6   17     -0.07      0.00
    0   -6   17      0.21      0.00
    1   -6   17      0.33      0.00
    2   -6   17      0.37      0.00
    3   -6   17      0.50      0.00
    4   -6   17      0.30      0.00
    5   -6   17     -0.43      0.00
    6   -6   17     -0.81      0.00
    7   -6   17     -0.32      0.00
  -10   -5   17      0.48      0.00
   -9   -5   17      1.31      0.00
   -8   -5   17      1.10      0.00
   -7   -5   17     -0.54      0.00
   -6   -5   17     -0.89      0.00
   -5   -5   17     -0.26      0.00
   -4   -5   17     -0.14      0.00
   -3   -5   17      0.26      0.00
   -2   -5   17      0.32      0.00
   -1   -5   17      0.06      0.00
    0   -5   17      0.39      0.00
    1   -5   17      0.39      0.00
    2   -5   17      0.13      0.00
    3   -5   17      0.53      0.00
    4   -5   17      0.50      0.00
    5   -5   17     -0.66      0.00
    6   -5   17     -1.19      0.00
    7   -5   17     -0.28      0.00
  -11   -4   17     -0.90      0.00
  -10   -4   17     -0.04      0.00
   -9   -4   17      0.67      0.00
   -8   -4   17      0.65      0.00
   -7   -4   17     -0.34      0.00
   -6   -4   17     -0.50      0.00
   -5   -4   17      0.48      0.00
   -4   -4   17      0.54      0.00
   -3   -4   17      0.19      0.00
   -2   -4   17      0.30      0.00
   -1   -4   17      0.14      0.00
    0   -4   17      0.10      0.00
    1   -4   17      0.18      0.00
    2   -4   17     -0.04      0.00
    3   -4   17      0.33      0.00
    4   -4   17      0.62      0.00
    5   -4   17     -0.27      0.00
    6   -4   17     -0.98      0.00
    7   -4   17     -0.39      0.00
  -11   -3   17     -0.50      0.00
  -10   -3   17      0.19      0.00
   -9   -3   17      0.53      0.00
   -8   -3   17      0.05      0.00
   -7   -3   17     -0.49      0.00
   -6   -3   17     -0.17      0.00
   -5   -3   17      0.75      0.00
   -4   -3   17      0.97      0.00
   -3   -3   17      0.48      0.00
   -2   -3   17      0.12      0.00
   -1   -3   17     -0.18      0.00
    0   -3   17     -0.26      0.00
    1   -3   17      0.16      0.00
    2   -3   17      0.25      0.00
    3   -3   17      0.24      0.00
    4   -3   17      0.56      0.00
    5   -3   17      0.38      0.00
    6   -3   17     -0.14      0.00
    7   -3   17     -0.44      0.00
    8   -3   17     -0.23      0.00
  -12   -2   17      0.03      0.00
  -11   -2   17      0.11      0.00
  -10   -2   17      0.41      0.00
   -9   -2   17      0.59      0.00
   -8   -2   17     -0.07      0.00
   -7   -2   17     -0.83      0.00
   -6   -2   17     -0.49      0.00
   -5   -2   17      0.63      0.00
   -4   -2   17      1.29      0.00
   -3   -2   17      1.07      0.00
   -2   -2   17      0.16      0.00
   -1   -2   17     -0.58      0.00
    0   -2   17     -0.37      0.00
    1   -2   17      0.52      0.00
    2   -2   17      0.77      0.00
    3   -2   17      0.29      0.00
    4   -2   17      0.27      0.00
    5   -2   17      0.53      0.00
    6   -2   17      0.56      0.00
    7   -2   17     -0.02      0.00
  -12   -1   17      0.20      0.00
  -11   -1   17      0.46      0.00
  -10   -1   17      0.16      0.00
   -9   -1   17      0.07      0.00
   -8   -1   17      0.00      0.00
   -7   -1   17     -0.52      0.00
   -6   -1   17     -0.83      0.00
   -5   -1   17     -0.04      0.00
   -4   -1   17      1.23      0.00
   -3   -1   17      1.53      0.00
   -2   -1   17      0.51      0.00
   -1   -1   17     -0.50      0.00
    0   -1   17     -0.19      0.00
    1   -1   17      0.81      0.00
    2   -1   17      0.93      0.00
    3   -1   17      0.18      0.00
    4   -1   17     -0.02      0.00
    5   -1   17      0.23      0.00
    6   -1   17      0.35      0.00
    7   -1   17      0.29      0.00
    8   -1   17     -0.27      0.00
  -12    0   17      0.40      0.00
  -11    0   17      0.60      0.00
  -10    0   17      0.05      0.00
   -9    0   17     -0.56      0.00
   -8    0   17     -0.44      0.00
   -7    0   17     -0.08      0.00
   -6    0   17     -0.30      0.00
   -5    0   17     -0.41      0.00
   -4    0   17      0.55      0.00
   -3    0   17      1.26      0.00
   -2    0   17      0.54      0.00
   -1    0   17     -0.19      0.00
    0    0   17      0.10      0.00
    1    0   17      0.67      0.00
    2    0   17      0.61      0.00
    3    0   17     -0.01      0.00
    4    0   17     -0.05      0.00
    5    0   17      0.19      0.00
    6    0   17     -0.08      0.00
    7    0   17      0.02      0.00
    8    0   17      0.27      0.00
  -11    1   17      0.27      0.00
  -10    1   17      0.18      0.00
   -9    1   17     -0.28      0.00
   -8    1   17     -0.76      0.00
   -7    1   17     -0.53      0.00
   -6    1   17      0.07      0.00
   -5    1   17      0.10      0.00
   -4    1   17      0.09      0.00
   -3    1   17      0.36      0.00
   -2    1   17     -0.09      0.00
   -1    1   17     -0.28      0.00
    0    1   17      0.36      0.00
    1    1   17      0.50      0.00
    2    1   17      0.28      0.00
    3    1   17      0.10      0.00
    4    1   17      0.16      0.00
    5    1   17      0.31      0.00
    6    1   17     -0.03      0.00
    7    1   17     -0.08      0.00
    8    1   17      0.42      0.00
  -12    2   17      0.26      0.00
  -11    2   17     -0.32      0.00
  -10    2   17     -0.17      0.00
   -9    2   17      0.33      0.00
   -8    2   17     -0.22      0.00
   -7    2   17     -1.01      0.00
   -6    2   17     -0.55      0.00
   -5    2   17      0.40      0.00
   -4    2   17      0.31      0.00
   -3    2   17     -0.26      0.00
   -2    2   17     -0.77      0.00
   -1    2   17     -0.60      0.00
    0    2   17      0.54      0.00
    1    2   17      0.80      0.00
    2    2   17      0.26      0.00
    3    2   17      0.28      0.00
    4    2   17      0.36      0.00
    5    2   17      0.18      0.00
    6    2   17     -0.05      0.00
    7    2   17      0.17      0.00
    8    2   17      0.55      0.00
  -12    3   17      0.44      0.00
  -11    3   17     -0.20      0.00
  -10    3   17     -0.68      0.00
   -9    3   17      0.08      0.00
   -8    3   17      0.35      0.00
   -7    3   17     -0.56      0.00
   -6    3   17     -0.99      0.00
   -5    3   17     -0.13      0.00
   -4    3   17      0.34      0.00
   -3    3   17     -0.26      0.00
   -2    3   17     -0.70      0.00
   -1    3   17     -0.48      0.00
    0    3   17      0.49      0.00
    1    3   17      0.98      0.00
    2    3   17      0.31      0.00
    3    3   17      0.03      0.00
    4    3   17      0.15      0.00
    5    3   17     -0.08      0.00
    6    3   17     -0.32      0.00
    7    3   17      0.06      0.00
  -11    4   17      0.40      0.00
  -10    4   17     -0.47      0.00
   -9    4   17     -0.57      0.00
   -8    4   17      0.15      0.00
   -7    4   17      0.13      0.00
   -6    4   17     -0.50      0.00
   -5    4   17     -0.63      0.00
   -4    4   17     -0.29      0.00
   -3    4   17     -0.22      0.00
   -2    4   17     -0.13      0.00
   -1    4   17      0.06      0.00
    0    4   17      0.15      0.00
    1    4   17      0.29      0.00
    2    4   17      0.00      0.00
    3    4   17     -0.31      0.00
    4    4   17     -0.27      0.00
    5    4   17     -0.28      0.00
    6    4   17     -0.36      0.00
    7    4   17     -0.25      0.00
  -10    5   17      0.02      0.00
   -9    5   17     -0.57      0.00
   -8    5   17     -0.30      0.00
   -7    5   17      0.13      0.00
   -6    5   17      0.00      0.00
   -5    5   17     -0.43      0.00
   -4    5   17     -0.68      0.00
   -3    5   17     -0.39      0.00
   -2    5   17      0.07      0.00
   -1    5   17      0.11      0.00
    0    5   17     -0.31      0.00
    1    5   17     -0.61      0.00
    2    5   17     -0.49      0.00
    3    5   17     -0.23      0.00
    4    5   17     -0.12      0.00
    5    5   17     -0.22      0.00
    6    5   17     -0.28      0.00
    7    5   17     -0.34      0.00
  -10    6   17     -0.05      0.00
   -9    6   17      0.02      0.00
   -8    6   17     -0.20      0.00
   -7    6   17     -0.38      0.00
   -6    6   17     -0.33      0.00
   -5    6   17     -0.13      0.00
   -4    6   17     -0.26      0.00
   -3    6   17     -0.27      0.00
   -2    6   17     -0.04      0.00
   -1    6   17     -0.38      0.00
    0    6   17     -0.69      0.00
    1    6   17     -0.61      0.00
    2    6   17     -0.48      0.00
    3    6   17     -0.06      0.00
    4    6   17      0.34      0.00
    5    6   17      0.18      0.00
    6    6   17     -0.19      0.00
   -9    7   17      0.32      0.00
   -8    7   17      0.44      0.00
   -7    7   17     -0.49      0.00
   -6    7   17     -0.86      0.00
   -5    7   17     -0.25      0.00
   -4    7   17      0.16      0.00
   -3    7   17      0.07      0.00
   -2    7   17      0.14      0.00
   -1    7   17     -0.28      0.00
    0    7   17     -0.57      0.00
    1    7   17      0.03      0.00
    2    7   17      0.04      0.00
    3    7   17     -0.22      0.00
    4    7   17      0.18      0.00
    5    7   17      0.37      0.00
   -8    8   17      0.73      0.00
   -7    8   17      0.02      0.00
   -6    8   17     -0.67      0.00
   -5    8   17     -0.36      0.00
   -4    8   17     -0.03      0.00
   -3    8   17      0.00      0.00
   -2    8   17      0.29      0.00
   -1    8   17      0.39      0.00
    0    8   17      0.07      0.00
    1    8   17      0.38      0.00
    2    8   17      0.31      0.00
    3    8   17     -0.50      0.00
    4    8   17     -0.44      0.00
   -7    9   17      0.37      0.00
   -6    9   17     -0.03      0.00
   -5    9   17     -0.14      0.00
   -4    9   17     -0.37      0.00
   -3    9   17     -0.35      0.00
   -2    9   17      0.13      0.00
   -1    9   17      0.44      0.00
    0    9   17      0.28      0.00
    1    9   17      0.20      0.00
    2    9   17      0.15      0.00
    3    9   17     -0.44      0.00
   -5   10   17      0.06      0.00
   -4   10   17     -0.46      0.00
   -3   10   17     -0.49      0.00
   -2   10   17      0.08      0.00
   -1   10   17      0.04      0.00
    0   10   17     -0.22      0.00
    1   10   17     -0.11      0.00
    2   10   17      0.06      0.00
   -1  -11   18      0.02      0.00
   -5  -10   18      0.54      0.00
   -4  -10   18      0.99      0.00
   -3  -10   18      0.72      0.00
   -2  -10   18      0.19      0.00
   -1  -10   18     -0.34      0.00
    0  -10   18     -0.02      0.00
    1  -10   18      0.69      0.00
   -7   -9   18      0.48      0.00
   -6   -9   18      0.11      0.00
   -5   -9   18      0.25      0.00
   -4   -9   18      0.88      0.00
   -3   -9   18      1.07      0.00
   -2   -9   18      0.42      0.00
   -1   -9   18     -0.66      0.00
    0   -9   18     -0.52      0.00
    1   -9   18      0.43      0.00
    2   -9   18      0.38      0.00
    3   -9   18     -0.07      0.00
    4   -9   18      0.19      0.00
   -8   -8   18     -0.37      0.00
   -7   -8   18      0.11      0.00
   -6   -8   18     -0.15      0.00
   -5   -8   18     -0.20      0.00
   -4   -8   18      0.64      0.00
   -3   -8   18      1.02      0.00
   -2   -8   18      0.61      0.00
   -1   -8   18     -0.41      0.00
    0   -8   18     -0.64      0.00
    1   -8   18      0.15      0.00
    2   -8   18      0.17      0.00
    3   -8   18     -0.30      0.00
    4   -8   18     -0.08      0.00
    5   -8   18      0.26      0.00
   -9   -7   18      1.06      0.00
   -8   -7   18     -0.01      0.00
   -7   -7   18     -0.45      0.00
   -6   -7   18     -0.68      0.00
   -5   -7   18     -0.70      0.00
   -4   -7   18      0.41      0.00
   -3   -7   18      0.81      0.00
   -2   -7   18      0.28      0.00
   -1   -7   18     -0.04      0.00
    0   -7   18     -0.08      0.00
    1   -7   18      0.19      0.00
    2   -7   18      0.16      0.00
    3   -7   18     -0.14      0.00
    4   -7   18     -0.32      0.00
    5   -7   18     -0.48      0.00
  -10   -6   18      0.89      0.00
   -9   -6   18      1.40      0.00
   -8   -6   18      0.45      0.00
   -7   -6   18     -0.73      0.00
   -6   -6   18     -0.65      0.00
   -5   -6   18     -0.43      0.00
   -4   -6   18      0.25      0.00
   -3   -6   18      0.66      0.00
   -2   -6   18      0.03      0.00
   -1   -6   18      0.01      0.00
    0   -6   18      0.47      0.00
    1   -6   18      0.37      0.00
    2   -6   18      0.15      0.00
    3   -6   18      0.19      0.00
    4   -6   18     -0.20      0.00
    5   -6   18     -1.06      0.00
    6   -6   18     -1.01      0.00
  -10   -5   18      0.27      0.00
   -9   -5   18      0.87      0.00
   -8   -5   18      0.36      0.00
   -7   -5   18     -0.81      0.00
   -6   -5   18     -0.38      0.00
   -5   -5   18      0.42      0.00
   -4   -5   18      0.40      0.00
   -3   -5   18      0.44      0.00
   -2   -5   18      0.19      0.00
   -1   -5   18      0.05      0.00
    0   -5   18      0.46      0.00
    1   -5   18      0.36      0.00
    2   -5   18      0.04      0.00
    3   -5   18      0.29      0.00
    4   -5   18      0.08      0.00
    5   -5   18     -0.97      0.00
    6   -5   18     -1.11      0.00
  -11   -4   18     -0.45      0.00
  -10   -4   18      0.16      0.00
   -9   -4   18      0.42      0.00
   -8   -4   18     -0.01      0.00
   -7   -4   18     -0.67      0.00
   -6   -4   18     -0.19      0.00
   -5   -4   18      0.81      0.00
   -4   -4   18      0.71      0.00
   -3   -4   18      0.27      0.00
   -2   -4   18      0.14      0.00
   -1   -4   18      0.03      0.00
    0   -4   18      0.18      0.00
    1   -4   18      0.29      0.00
    2   -4   18      0.09      0.00
    3   -4   18      0.27      0.00
    4   -4   18      0.34      0.00
    5   -4   18     -0.28      0.00
    6   -4   18     -0.65      0.00
    7   -4   18     -0.17      0.00
  -11   -3   18     -0.05      0.00
  -10   -3   18      0.34      0.00
   -9   -3   18      0.37      0.00
   -8   -3   18     -0.26      0.00
   -7   -3   18     -0.65      0.00
   -6   -3   18     -0.13      0.00
   -5   -3   18      0.69      0.00
   -4   -3   18      0.97      0.00
   -3   -3   18      0.56      0.00
   -2   -3   18     -0.10      0.00
   -1   -3   18     -0.40      0.00
    0   -3   18     -0.02      0.00
    1   -3   18      0.49      0.00
    2   -3   18      0.41      0.00
    3   -3   18      0.24      0.00
    4   -3   18      0.38      0.00
    5   -3   18      0.43      0.00
    6   -3   18      0.18      0.00
    7   -3   18     -0.30      0.00
  -11   -2   18      0.21      0.00
  -10   -2   18      0.18      0.00
   -9   -2   18      0.20      0.00
   -8   -2   18     -0.19      0.00
   -7   -2   18     -0.66      0.00
   -6   -2   18     -0.43      0.00
   -5   -2   18      0.35      0.00
   -4   -2   18      1.06      0.00
   -3   -2   18      1.10      0.00
   -2   -2   18      0.09      0.00
   -1   -2   18     -0.69      0.00
    0   -2   18     -0.12      0.00
    1   -2   18      0.76      0.00
    2   -2   18      0.65      0.00
    3   -2   18      0.11      0.00
    4   -2   18      0.08      0.00
    5   -2   18      0.39      0.00
    6   -2   18      0.64      0.00
    7   -2   18      0.05      0.00
    8   -2   18     -0.61      0.00
  -11   -1   18      0.24      0.00
  -10   -1   18     -0.28      0.00
   -9   -1   18     -0.47      0.00
   -8   -1   18     -0.27      0.00
   -7   -1   18     -0.24      0.00
   -6   -1   18     -0.46      0.00
   -5   -1   18     -0.13      0.00
   -4   -1   18      0.74      0.00
   -3   -1   18      1.09      0.00
   -2   -1   18      0.39      0.00
   -1   -1   18     -0.34      0.00
    0   -1   18     -0.03      0.00
    1   -1   18      0.65      0.00
    2   -1   18      0.48      0.00
    3   -1   18     -0.07      0.00
    4   -1   18     -0.13      0.00
    5   -1   18     -0.10      0.00
    6   -1   18      0.16      0.00
    7   -1   18      0.36      0.00
  -11    0   18      0.15      0.00
  -10    0   18     -0.34      0.00
   -9    0   18     -0.85      0.00
   -8    0   18     -0.81      0.00
   -7    0   18     -0.10      0.00
   -6    0   18      0.12      0.00
   -5    0   18     -0.12      0.00
   -4    0   18      0.22      0.00
   -3    0   18      0.40      0.00
   -2    0   18     -0.03      0.00
   -1    0   18     -0.04      0.00
    1    0   18      0.33      0.00
    2    0   18      0.15      0.00
    3    0   18     -0.10      0.00
    4    0   18     -0.01      0.00
    5    0   18     -0.15      0.00
    6    0   18     -0.40      0.00
    7    0   18      0.15      0.00
  -11    1   18     -0.30      0.00
  -10    1   18     -0.20      0.00
   -9    1   18     -0.28      0.00
   -8    1   18     -0.87      0.00
   -7    1   18     -0.70      0.00
   -6    1   18      0.20      0.00
   -5    1   18      0.37      0.00
   -4    1   18      0.05      0.00
   -3    1   18     -0.28      0.00
   -2    1   18     -0.76      0.00
   -1    1   18     -0.24      0.00
    0    1   18      0.61      0.00
    1    1   18      0.39      0.00
    2    1   18      0.12      0.00
    3    1   18      0.13      0.00
    4    1   18      0.11      0.00
    5    1   18     -0.04      0.00
    6    1   18     -0.28      0.00
    7    1   18      0.07      0.00
  -11    2   18     -0.65      0.00
  -10    2   18     -0.51      0.00
   -9    2   18      0.21      0.00
   -8    2   18     -0.12      0.00
   -7    2   18     -0.86      0.00
   -6    2   18     -0.44      0.00
   -5    2   18      0.37      0.00
   -4    2   18      0.16      0.00
   -3    2   18     -0.47      0.00
   -2    2   18     -0.92      0.00
   -1    2   18     -0.39      0.00
    0    2   18      0.86      0.00
    1    2   18      0.85      0.00
    2    2   18      0.30      0.00
    3    2   18      0.28      0.00
    4    2   18      0.02      0.00
    5    2   18     -0.31      0.00
    6    2   18     -0.22      0.00
    7    2   18      0.26      0.00
  -11    3   18     -0.11      0.00
  -10    3   18     -0.70      0.00
   -9    3   18     -0.18      0.00
   -8    3   18      0.27      0.00
   -7    3   18     -0.19      0.00
   -6    3   18     -0.60      0.00
   -5    3   18     -0.23      0.00
   -4    3   18     -0.02      0.00
   -3    3   18     -0.32      0.00
   -2    3   18     -0.39      0.00
   -1    3   18     -0.07      0.00
    0    3   18      0.72      0.00
    1    3   18      0.91      0.00
    2    3   18      0.30      0.00
    3    3   18      0.06      0.00
    4    3   18     -0.14      0.00
    5    3   18     -0.52      0.00
    6    3   18     -0.47      0.00
    7    3   18      0.06      0.00
  -10    4   18     -0.21      0.00
   -9    4   18     -0.59      0.00
   -8    4   18     -0.11      0.00
   -7    4   18      0.18      0.00
   -6    4   18     -0.10      0.00
   -5    4   18     -0.48      0.00
   -4    4   18     -0.46      0.00
   -3    4   18     -0.19      0.00
   -2    4   18      0.15      0.00
   -1    4   18      0.27      0.00
    0    4   18      0.20      0.00
    1    4   18      0.18      0.00
    2    4   18      0.04      0.00
    3    4   18     -0.05      0.00
    4    4   18     -0.15      0.00
    5    4   18     -0.38      0.00
    6    4   18     -0.44      0.00
    7    4   18     -0.33      0.00
  -10    5   18      0.22      0.00
   -9    5   18     -0.28      0.00
   -8    5   18     -0.40      0.00
   -7    5   18     -0.23      0.00
   -6    5   18      0.03      0.00
   -5    5   18     -0.06      0.00
   -4    5   18     -0.37      0.00
   -3    5   18     -0.13      0.00
   -2    5   18      0.21      0.00
   -1    5   18      0.10      0.00
    0    5   18     -0.21      0.00
    1    5   18     -0.43      0.00
    2    5   18     -0.21      0.00
    3    5   18      0.25      0.00
    4    5   18      0.27      0.00
    5    5   18     -0.12      0.00
    6    5   18     -0.28      0.00
  -10    6   18      0.03      0.00
   -9    6   18      0.36      0.00
   -8    6   18     -0.10      0.00
   -7    6   18     -0.76      0.00
   -6    6   18     -0.52      0.00
   -5    6   18      0.28      0.00
   -4    6   18      0.33      0.00
   -3    6   18      0.18      0.00
   -2    6   18      0.18      0.00
   -1    6   18     -0.21      0.00
    0    6   18     -0.19      0.00
    1    6   18     -0.08      0.00
    2    6   18     -0.20      0.00
    3    6   18      0.30      0.00
    4    6   18      0.68      0.00
    5    6   18      0.17      0.00
    6    6   18     -0.29      0.00
   -9    7   18      0.59      0.00
   -8    7   18      0.50      0.00
   -7    7   18     -0.65      0.00
   -6    7   18     -0.89      0.00
   -5    7   18      0.08      0.00
   -4    7   18      0.64      0.00
   -3    7   18      0.51      0.00
   -2    7   18      0.49      0.00
   -1    7   18      0.10      0.00
    0    7   18      0.13      0.00
    1    7   18      0.59      0.00
    2    7   18     -0.01      0.00
    3    7   18     -0.31      0.00
    4    7   18      0.34      0.00
    5    7   18      0.31      0.00
   -8    8   18      0.68      0.00
   -7    8   18     -0.05      0.00
   -6    8   18     -0.48      0.00
   -5    8   18     -0.15      0.00
   -4    8   18      0.18      0.00
   -3    8   18      0.35      0.00
   -2    8   18      0.64      0.00
   -1    8   18      0.58      0.00
    0    8   18      0.32      0.00
    1    8   18      0.60      0.00
    2    8   18      0.13      0.00
    3    8   18     -0.76      0.00
    4    8   18     -0.38      0.00
   -6    9   18      0.08      0.00
   -5    9   18     -0.12      0.00
   -4    9   18     -0.33      0.00
   -3    9   18      0.03      0.00
   -2    9   18      0.44      0.00
   -1    9   18      0.29      0.00
    0    9   18     -0.04      0.00
    1    9   18      0.06      0.00
    2    9   18      0.10      0.00
    3    9   18     -0.45      0.00
   -4   10   18     -0.50      0.00
   -3   10   18     -0.06      0.00
   -2   10   18      0.38      0.00
   -1   10   18     -0.22      0.00
    0   10   18     -0.57      0.00
    1   10   18     -0.22      0.00
   -4  -10   19      0.77      0.00
   -3  -10   19      0.44      0.00
   -2  -10   19     -0.27      0.00
   -1  -10   19     -0.67      0.00
    0  -10   19     -0.10      0.00
   -6   -9   19      0.06      0.00
   -5   -9   19      0.27      0.00
   -4   -9   19      0.74      0.00
   -3   -9   19      0.83      0.00
   -2   -9   19      0.09      0.00
   -1   -9   19     -0.85      0.00
    0   -9   19     -0.45      0.00
    1   -9   19      0.19      0.00
    2   -9   19     -0.19      0.00
    3   -9   19     -0.39      0.00
   -7   -8   19     -0.08      0.00
   -6   -8   19     -0.33      0.00
   -5   -8   19     -0.03      0.00
   -4   -8   19      0.66      0.00
   -3   -8   19      0.68      0.00
   -2   -8   19      0.28      0.00
   -1   -8   19     -0.43      0.00
    0   -8   19     -0.37      0.00
    1   -8   19      0.12      0.00
    2   -8   19     -0.32      0.00
    3   -8   19     -0.73      0.00
    4   -8   19     -0.41      0.00
   -8   -7   19     -0.14      0.00
   -7   -7   19     -0.52      0.00
   -6   -7   19     -0.58      0.00
   -5   -7   19     -0.20      0.00
   -4   -7   19      0.68      0.00
   -3   -7   19      0.40      0.00
   -2   -7   19     -0.15      0.00
   -1   -7   19     -0.03      0.00
    0   -7   19      0.18      0.00
    1   -7   19      0.23      0.00
    2   -7   19     -0.17      0.00
    3   -7   19     -0.58      0.00
    4   -7   19     -0.81      0.00
    5   -7   19     -0.86      0.00
   -9   -6   19      0.80      0.00
   -8   -6   19     -0.12      0.00
   -7   -6   19     -0.77      0.00
   -6   -6   19     -0.25      0.00
   -5   -6   19      0.17      0.00
   -4   -6   19      0.64      0.00
   -3   -6   19      0.40      0.00
   -2   -6   19     -0.40      0.00
   -1   -6   19     -0.11      0.00
    0   -6   19      0.50      0.00
    1   -6   19      0.33      0.00
    2   -6   19     -0.08      0.00
    3   -6   19     -0.23      0.00
    4   -6   19     -0.68      0.00
    5   -6   19     -1.27      0.00
    6   -6   19     -0.77      0.00
  -10   -5   19      0.10      0.00
   -9   -5   19      0.29      0.00
   -8   -5   19     -0.34      0.00
   -7   -5   19     -0.85      0.00
   -6   -5   19      0.00      0.00
   -5   -5   19      0.64      0.00
   -4   -5   19      0.50      0.00
   -3   -5   19      0.31      0.00
   -2   -5   19     -0.14      0.00
   -1   -5   19     -0.17      0.00
    0   -5   19      0.32      0.00
    1   -5   19      0.31      0.00
    2   -5   19     -0.02      0.00
    3   -5   19     -0.05      0.00
    4   -5   19     -0.30      0.00
    5   -5   19     -0.89      0.00
  -10   -4   19      0.23      0.00
   -9   -4   19      0.15      0.00
   -8   -4   19     -0.38      0.00
   -7   -4   19     -0.62      0.00
   -6   -4   19     -0.01      0.00
   -5   -4   19      0.62      0.00
   -4   -4   19      0.50      0.00
   -3   -4   19      0.12      0.00
   -2   -4   19     -0.17      0.00
   -1   -4   19     -0.21      0.00
    0   -4   19      0.11      0.00
    1   -4   19      0.29      0.00
    2   -4   19      0.15      0.00
    3   -4   19      0.08      0.00
    4   -4   19      0.07      0.00
    5   -4   19     -0.09      0.00
    6   -4   19     -0.19      0.00
  -10   -3   19      0.26      0.00
   -9   -3   19      0.22      0.00
   -8   -3   19     -0.24      0.00
   -7   -3   19     -0.43      0.00
   -6   -3   19     -0.10      0.00
   -5   -3   19      0.33      0.00
   -4   -3   19      0.69      0.00
   -3   -3   19      0.46      0.00
   -2   -3   19     -0.34      0.00
   -1   -3   19     -0.53      0.00
    0   -3   19      0.05      0.00
    1   -3   19      0.41      0.00
    2   -3   19      0.23      0.00
    3   -3   19      0.05      0.00
    4   -3   19      0.15      0.00
    5   -3   19      0.46      0.00
    6   -3   19      0.39      0.00
  -11   -2   19      0.02      0.00
  -10   -2   19     -0.12      0.00
   -9   -2   19     -0.06      0.00
   -8   -2   19     -0.07      0.00
   -7   -2   19     -0.28      0.00
   -6   -2   19     -0.30      0.00
   -5   -2   19      0.03      0.00
   -4   -2   19      0.69      0.00
   -3   -2   19      0.93      0.00
   -2   -2   19      0.05      0.00
   -1   -2   19     -0.58      0.00
    0   -2   19     -0.06      0.00
    1   -2   19      0.39      0.00
    2   -2   19      0.09      0.00
    3   -2   19     -0.18      0.00
    4   -2   19     -0.17      0.00
    5   -2   19      0.12      0.00
    6   -2   19      0.53      0.00
    7   -2   19      0.03      0.00
  -11   -1   19     -0.17      0.00
  -10   -1   19     -0.52      0.00
   -9   -1   19     -0.69      0.00
   -8   -1   19     -0.28      0.00
   -7   -1   19      0.11      0.00
   -6   -1   19     -0.09      0.00
   -5   -1   19     -0.12      0.00
   -4   -1   19      0.33      0.00
   -3   -1   19      0.57      0.00
   -2   -1   19      0.28      0.00
   -1   -1   19     -0.07      0.00
    0   -1   19     -0.06      0.00
    1   -1   19      0.04      0.00
    2   -1   19     -0.14      0.00
    3   -1   19     -0.26      0.00
    4   -1   19     -0.32      0.00
    5   -1   19     -0.57      0.00
    6   -1   19     -0.15      0.00
    7   -1   19      0.33      0.00
  -11    0   19     -0.40      0.00
  -10    0   19     -0.46      0.00
   -9    0   19     -0.74      0.00
   -8    0   19     -0.78      0.00
   -7    0   19      0.07      0.00
   -6    0   19      0.46      0.00
   -5    0   19      0.16      0.00
   -4    0   19      0.08      0.00
   -3    0   19     -0.18      0.00
   -2    0   19     -0.30      0.00
   -1    0   19      0.22      0.00
    0    0   19      0.23      0.00
    1    0   19     -0.17      0.00
    2    0   19     -0.18      0.00
    3    0   19     -0.08      0.00
    4    0   19     -0.16      0.00
    5    0   19     -0.66      0.00
    6    0   19     -0.69      0.00
    7    0   19      0.19      0.00
  -11    1   19     -0.75      0.00
  -10    1   19     -0.34      0.00
   -9    1   19     -0.03      0.00
   -8    1   19     -0.53      0.00
   -7    1   19     -0.39      0.00
   -6    1   19      0.41      0.00
   -5    1   19      0.49      0.00
   -4    1   19      0.11      0.00
   -3    1   19     -0.41      0.00
   -2    1   19     -0.79      0.00
   -1    1   19      0.06      0.00
    0    1   19      0.70      0.00
    1    1   19      0.21      0.00
    2    1   19      0.11      0.00
    3    1   19      0.14      0.00
    4    1   19     -0.23      0.00
    5    1   19     -0.54      0.00
    6    1   19     -0.47      0.00
    7    1   19      0.10      0.00
  -11    2   19     -0.67      0.00
  -10    2   19     -0.54      0.00
   -9    2   19      0.23      0.00
   -8    2   19      0.26      0.00
   -7    2   19     -0.19      0.00
   -6    2   19     -0.05      0.00
   -5    2   19      0.26      0.00
   -4    2   19      0.05      0.00
   -3    2   19     -0.27      0.00
   -2    2   19     -0.48      0.00
   -1    2   19      0.10      0.00
    0    2   19      1.01      0.00
    1    2   19      0.78      0.00
    2    2   19      0.39      0.00
    3    2   19      0.21      0.00
    4    2   19     -0.46      0.00
    5    2   19     -0.76      0.00
    6    2   19     -0.33      0.00
  -10    3   19     -0.41      0.00
   -9    3   19     -0.21      0.00
   -8    3   19      0.32      0.00
   -7    3   19      0.36      0.00
   -6    3   19     -0.03      0.00
   -5    3   19     -0.20      0.00
   -4    3   19     -0.18      0.00
   -3    3   19     -0.10      0.00
   -2    3   19      0.10      0.00
   -1    3   19      0.34      0.00
    0    3   19      0.79      0.00
    1    3   19      0.78      0.00
    2    3   19      0.37      0.00
    3    3   19      0.13      0.00
    4    3   19     -0.36      0.00
    5    3   19     -0.74      0.00
    6    3   19     -0.51      0.00
  -10    4   19      0.13      0.00
   -9    4   19     -0.33      0.00
   -8    4   19     -0.20      0.00
   -7    4   19      0.18      0.00
   -6    4   19      0.23      0.00
   -5    4   19     -0.19      0.00
   -4    4   19     -0.29      0.00
   -3    4   19      0.07      0.00
   -2    4   19      0.37      0.00
   -1    4   19      0.36      0.00
    0    4   19      0.25      0.00
    1    4   19      0.22      0.00
    2    4   19      0.24      0.00
    3    4   19      0.27      0.00
    4    4   19      0.04      0.00
    5    4   19     -0.29      0.00
    6    4   19     -0.41      0.00
  -10    5   19      0.33      0.00
   -9    5   19      0.11      0.00
   -8    5   19     -0.38      0.00
   -7    5   19     -0.58      0.00
   -6    5   19      0.03      0.00
   -5    5   19      0.35      0.00
   -4    5   19      0.09      0.00
   -3    5   19      0.23      0.00
   -2    5   19      0.31      0.00
   -1    5   19      0.14      0.00
    0    5   19      0.09      0.00
    1    5   19     -0.05      0.00
    2    5   19      0.15      0.00
    3    5   19      0.66      0.00
    4    5   19      0.53      0.00
    5    5   19     -0.03      0.00
    6    5   19     -0.21      0.00
   -9    6   19      0.55      0.00
   -8    6   19     -0.11      0.00
   -7    6   19     -1.03      0.00
   -6    6   19     -0.53      0.00
   -5    6   19      0.68      0.00
   -4    6   19      0.76      0.00
   -3    6   19      0.50      0.00
   -2    6   19      0.36      0.00
   -1    6   19      0.10      0.00
    0    6   19      0.44      0.00
    1    6   19      0.39      0.00
    2    6   19     -0.03      0.00
    3    6   19      0.53      0.00
    4    6   19      0.80      0.00
    5    6   19      0.05      0.00
   -8    7   19      0.27      0.00
   -7    7   19     -0.76      0.00
   -6    7   19     -0.70      0.00
   -5    7   19      0.38      0.00
   -4    7   19      0.85      0.00
   -3    7   19      0.71      0.00
   -2    7   19      0.70      0.00
   -1    7   19      0.42      0.00
    0    7   19      0.66      0.00
    1    7   19      0.84      0.00
    2    7   19     -0.18      0.00
    3    7   19     -0.31      0.00
    4    7   19      0.44      0.00
   -7    8   19     -0.16      0.00
   -6    8   19     -0.27      0.00
   -5    8   19     -0.03      0.00
   -4    8   19      0.26      0.00
   -3    8   19      0.58      0.00
   -2    8   19      0.80      0.00
   -1    8   19      0.53      0.00
    0    8   19      0.29      0.00
    1    8   19      0.56      0.00
    2    8   19     -0.06      0.00
    3    8   19     -0.74      0.00
   -5    9   19     -0.18      0.00
   -4    9   19     -0.21      0.00
   -3    9   19      0.43      0.00
   -2    9   19      0.57      0.00
   -1    9   19      0.00      0.00
    0    9   19     -0.38      0.00
    1    9   19     -0.11      0.00
    2    9   19      0.10      0.00
   -5   -9   20      0.16      0.00
   -4   -9   20      0.41      0.00
   -3   -9   20      0.43      0.00
   -2   -9   20     -0.17      0.00
   -1   -9   20     -0.69      0.00
    0   -9   20     -0.13      0.00
    1   -9   20      0.01      0.00
   -6   -8   20     -0.47      0.00
   -5   -8   20      0.11      0.00
   -4   -8   20      0.43      0.00
   -3   -8   20      0.11      0.00
   -2   -8   20     -0.11      0.00
   -1   -8   20     -0.30      0.00
    0   -8   20      0.08      0.00
    1   -8   20      0.19      0.00
    2   -8   20     -0.62      0.00
    3   -8   20     -0.94      0.00
   -8   -7   20     -0.45      0.00
   -7   -7   20     -0.59      0.00
   -6   -7   20     -0.41      0.00
   -5   -7   20      0.20      0.00
   -4   -7   20      0.64      0.00
   -3   -7   20     -0.19      0.00
   -2   -7   20     -0.61      0.00
   -1   -7   20     -0.06      0.00
    0   -7   20      0.44      0.00
    1   -7   20      0.37      0.00
    2   -7   20     -0.33      0.00
    3   -7   20     -0.85      0.00
   -8   -6   20     -0.69      0.00
   -7   -6   20     -0.70      0.00
   -6   -6   20      0.03      0.00
   -5   -6   20      0.42      0.00
   -4   -6   20      0.63      0.00
   -3   -6   20     -0.02      0.00
   -2   -6   20     -0.78      0.00
   -1   -6   20     -0.25      0.00
    0   -6   20      0.50      0.00
    1   -6   20      0.43      0.00
    2   -6   20     -0.13      0.00
    3   -6   20     -0.50      0.00
    4   -6   20     -0.85      0.00
    5   -6   20     -1.01      0.00
   -9   -5   20     -0.22      0.00
   -8   -5   20     -0.73      0.00
   -7   -5   20     -0.68      0.00
   -6   -5   20      0.13      0.00
   -5   -5   20      0.43      0.00
   -4   -5   20      0.29      0.00
   -3   -5   20      0.05      0.00
   -2   -5   20     -0.40      0.00
   -1   -5   20     -0.31      0.00
    0   -5   20      0.23      0.00
    1   -5   20      0.39      0.00
    2   -5   20      0.05      0.00
    3   -5   20     -0.25      0.00
    4   -5   20     -0.40      0.00
    5   -5   20     -0.51      0.00
  -10   -4   20      0.22      0.00
   -9   -4   20     -0.01      0.00
   -8   -4   20     -0.37      0.00
   -7   -4   20     -0.32      0.00
   -6   -4   20      0.01      0.00
   -5   -4   20      0.20      0.00
   -4   -4   20      0.21      0.00
   -3   -4   20     -0.03      0.00
   -2   -4   20     -0.33      0.00
   -1   -4   20     -0.23      0.00
    0   -4   20      0.09      0.00
    1   -4   20      0.24      0.00
    2   -4   20      0.15      0.00
    3   -4   20     -0.04      0.00
    4   -4   20      0.00      0.00
    5   -4   20      0.17      0.00
    6   -4   20      0.08      0.00
  -10   -3   20      0.12      0.00
   -9   -3   20      0.16      0.00
   -8   -3   20     -0.03      0.00
   -7   -3   20     -0.11      0.00
   -6   -3   20     -0.09      0.00
   -5   -3   20      0.05      0.00
   -4   -3   20      0.51      0.00
   -3   -3   20      0.41      0.00
   -2   -3   20     -0.31      0.00
   -1   -3   20     -0.33      0.00
    0   -3   20      0.08      0.00
    1   -3   20      0.04      0.00
    2   -3   20     -0.11      0.00
    3   -3   20     -0.08      0.00
    4   -3   20      0.03      0.00
    5   -3   20      0.40      0.00
    6   -3   20      0.32      0.00
  -10   -2   20     -0.24      0.00
   -9   -2   20     -0.13      0.00
   -8   -2   20      0.12      0.00
   -7   -2   20      0.03      0.00
   -6   -2   20     -0.16      0.00
   -5   -2   20     -0.05      0.00
   -4   -2   20      0.50      0.00
   -3   -2   20      0.78      0.00
   -2   -2   20      0.22      0.00
   -1   -2   20     -0.20      0.00
    0   -2   20     -0.10      0.00
    1   -2   20     -0.24      0.00
    2   -2   20     -0.43      0.00
    3   -2   20     -0.29      0.00
    4   -2   20     -0.35      0.00
    5   -2   20     -0.26      0.00
    6   -2   20      0.18      0.00
  -11   -1   20     -0.41      0.00
  -10   -1   20     -0.43      0.00
   -9   -1   20     -0.61      0.00
   -8   -1   20     -0.17      0.00
   -7   -1   20      0.35      0.00
   -6   -1   20      0.18      0.00
   -5   -1   20      0.07      0.00
   -4   -1   20      0.19      0.00
   -3   -1   20      0.24      0.00
   -2   -1   20      0.37      0.00
   -1   -1   20      0.28      0.00
    0   -1   20     -0.23      0.00
    1   -1   20     -0.54      0.00
    2   -1   20     -0.42      0.00
    3   -1   20     -0.19      0.00
    4   -1   20     -0.52      0.00
    5   -1   20     -1.07      0.00
    6   -1   20     -0.47      0.00
  -11    0   20     -0.66      0.00
  -10    0   20     -0.25      0.00
   -9    0   20     -0.40      0.00
   -8    0   20     -0.50      0.00
   -7    0   20      0.30      0.00
   -6    0   20      0.65      0.00
   -5    0   20      0.40      0.00
   -4    0   20      0.19      0.00
   -3    0   20     -0.30      0.00
   -2    0   20     -0.19      0.00
   -1    0   20      0.47      0.00
    0    0   20      0.05      0.00
    1    0   20     -0.48      0.00
    2    0   20     -0.11      0.00
    3    0   20      0.05      0.00
    4    0   20     -0.44      0.00
    5    0   20     -1.12      0.00
    6    0   20     -0.84      0.00
  -11    1   20     -0.79      0.00
  -10    1   20     -0.19      0.00
   -9    1   20      0.29      0.00
   -8    1   20      0.03      0.00
   -7    1   20      0.14      0.00
   -6    1   20      0.53      0.00
   -5    1   20      0.42      0.00
   -4    1   20      0.23      0.00
   -3    1   20     -0.13      0.00
   -2    1   20     -0.36      0.00
   -1    1   20      0.37      0.00
    0    1   20      0.58      0.00
    1    1   20      0.11      0.00
    2    1   20      0.27      0.00
    3    1   20      0.07      0.00
    4    1   20     -0.67      0.00
    5    1   20     -0.91      0.00
    6    1   20     -0.53      0.00
  -10    2   20     -0.29      0.00
   -9    2   20      0.31      0.00
   -8    2   20      0.68      0.00
   -7    2   20      0.52      0.00
   -6    2   20      0.23      0.00
   -5    2   20      0.04      0.00
   -4    2   20     -0.02      0.00
   -3    2   20      0.09      0.00
   -2    2   20      0.06      0.00
   -1    2   20      0.41      0.00
    0    2   20      0.87      0.00
    1    2   20      0.63      0.00
    2    2   20      0.44      0.00
    3    2   20      0.02      0.00
    4    2   20     -0.86      0.00
    5    2   20     -0.95      0.00
    6    2   20     -0.35      0.00
  -10    3   20      0.03      0.00
   -9    3   20     -0.08      0.00
   -8    3   20      0.35      0.00
   -7    3   20      0.67      0.00
   -6    3   20      0.25      0.00
   -5    3   20     -0.22      0.00
   -4    3   20     -0.17      0.00
   -3    3   20      0.13      0.00
   -2    3   20      0.29      0.00
   -1    3   20      0.36      0.00
    0    3   20      0.60      0.00
    1    3   20      0.56      0.00
    2    3   20      0.33      0.00
    3    3   20      0.09      0.00
    4    3   20     -0.43      0.00
    5    3   20     -0.68      0.00
    6    3   20     -0.45      0.00
   -9    4   20      0.03      0.00
   -8    4   20     -0.28      0.00
   -7    4   20     -0.04      0.00
   -6    4   20      0.25      0.00
   -5    4   20     -0.05      0.00
   -4    4   20     -0.05      0.00
   -3    4   20      0.25      0.00
   -2    4   20      0.20      0.00
   -1    4   20      0.11      0.00
    0    4   20      0.17      0.00
    1    4   20      0.20      0.00
    2    4   20      0.27      0.00
    3    4   20      0.37      0.00
    4    4   20      0.18      0.00
    5    4   20     -0.13      0.00
   -9    5   20      0.35      0.00
   -8    5   20     -0.41      0.00
   -7    5   20     -0.87      0.00
   -6    5   20     -0.04      0.00
   -5    5   20      0.49      0.00
   -4    5   20      0.28      0.00
   -3    5   20      0.32      0.00
   -2    5   20      0.12      0.00
   -1    5   20      0.02      0.00
    0    5   20      0.27      0.00
    1    5   20      0.12      0.00
    2    5   20      0.24      0.00
    3    5   20      0.73      0.00
    4    5   20      0.52      0.00
    5    5   20     -0.01      0.00
   -8    6   20     -0.31      0.00
   -7    6   20     -1.13      0.00
   -6    6   20     -0.40      0.00
   -5    6   20      0.79      0.00
   -4    6   20      0.67      0.00
   -3    6   20      0.39      0.00
   -2    6   20      0.26      0.00
   -1    6   20      0.21      0.00
    0    6   20      0.75      0.00
    1    6   20      0.44      0.00
    2    6   20     -0.12      0.00
    3    6   20      0.52      0.00
    4    6   20      0.65      0.00
   -7    7   20     -0.78      0.00
   -6    7   20     -0.43      0.00
   -5    7   20      0.41      0.00
   -4    7   20      0.61      0.00
   -3    7   20      0.52      0.00
   -2    7   20      0.59      0.00
   -1    7   20      0.40      0.00
    0    7   20      0.73      0.00
    1    7   20      0.66      0.00
    2    7   20     -0.42      0.00
    3    7   20     -0.26      0.00
   -6    8   20     -0.11      0.00
   -5    8   20     -0.09      0.00
   -4    8   20      0.16      0.00
   -3    8   20      0.56      0.00
   -2    8   20      0.67      0.00
   -1    8   20      0.21      0.00
    0    8   20      0.01      0.00
    1    8   20      0.33      0.00
    2    8   20     -0.15      0.00
   -3    9   20      0.63      0.00
   -2    9   20      0.46      0.00
   -1    9   20     -0.26      0.00
    0    9   20     -0.58      0.00
   -3   -9   21      0.01      0.00
   -2   -9   21     -0.30      0.00
   -1   -9   21     -0.31      0.00
    0   -9   21      0.28      0.00
   -5   -8   21      0.22      0.00
   -4   -8   21      0.09      0.00
   -3   -8   21     -0.42      0.00
   -2   -8   21     -0.39      0.00
   -1   -8   21     -0.09      0.00
    0   -8   21      0.55      0.00
    1   -8   21      0.34      0.00
    2   -8   21     -0.69      0.00
   -7   -7   21     -0.47      0.00
   -6   -7   21     -0.14      0.00
   -5   -7   21      0.42      0.00
   -4   -7   21      0.39      0.00
   -3   -7   21     -0.65      0.00
   -2   -7   21     -0.83      0.00
   -1   -7   21     -0.05      0.00
    0   -7   21      0.67      0.00
    1   -7   21      0.59      0.00
    2   -7   21     -0.30      0.00
    3   -7   21     -0.82      0.00
   -8   -6   21     -0.95      0.00
   -7   -6   21     -0.44      0.00
   -6   -6   21      0.20      0.00
   -5   -6   21      0.40      0.00
   -4   -6   21      0.42      0.00
   -3   -6   21     -0.31      0.00
   -2   -6   21     -0.82      0.00
   -1   -6   21     -0.23      0.00
    0   -6   21      0.55      0.00
    1   -6   21      0.62      0.00
    2   -6   21     -0.01      0.00
    3   -6   21     -0.49      0.00
   -8   -5   21     -0.69      0.00
   -7   -5   21     -0.32      0.00
   -6   -5   21      0.12      0.00
   -5   -5   21      0.10      0.00
   -4   -5   21      0.07      0.00
   -3   -5   21     -0.10      0.00
   -2   -5   21     -0.34      0.00
   -1   -5   21     -0.16      0.00
    0   -5   21      0.27      0.00
    1   -5   21      0.49      0.00
    2   -5   21      0.20      0.00
    3   -5   21     -0.20      0.00
    4   -5   21     -0.18      0.00
   -9   -4   21     -0.03      0.00
   -8   -4   21     -0.14      0.00
   -7   -4   21      0.02      0.00
   -6   -4   21      0.02      0.00
   -5   -4   21     -0.03      0.00
   -4   -4   21      0.11      0.00
   -3   -4   21     -0.04      0.00
   -2   -4   21     -0.17      0.00
   -1   -4   21      0.08      0.00
    0   -4   21      0.12      0.00
    1   -4   21      0.05      0.00
    2   -4   21      0.13      0.00
    3   -4   21      0.07      0.00
    4   -4   21      0.16      0.00
    5   -4   21      0.33      0.00
  -10   -3   21      0.01      0.00
   -9   -3   21      0.13      0.00
   -8   -3   21      0.12      0.00
   -7   -3   21      0.05      0.00
   -6   -3   21     -0.02      0.00
   -5   -3   21      0.08      0.00
   -4   -3   21      0.52      0.00
   -3   -3   21      0.44      0.00
   -2   -3   21     -0.01      0.00
   -1   -3   21      0.11      0.00
    0   -3   21      0.04      0.00
    1   -3   21     -0.45      0.00
    2   -3   21     -0.33      0.00
    3   -3   21      0.04      0.00
    4   -3   21      0.07      0.00
    5   -3   21      0.20      0.00
  -10   -2   21     -0.21      0.00
   -9   -2   21     -0.18      0.00
   -8   -2   21      0.12      0.00
   -7   -2   21      0.04      0.00
   -6   -2   21     -0.06      0.00
   -5   -2   21      0.15      0.00
   -4   -2   21      0.45      0.00
   -3   -2   21      0.62      0.00
   -2   -2   21      0.47      0.00
   -1   -2   21      0.19      0.00
    0   -2   21     -0.25      0.00
    1   -2   21     -0.70      0.00
    2   -2   21     -0.51      0.00
    3   -2   21     -0.08      0.00
    4   -2   21     -0.42      0.00
    5   -2   21     -0.63      0.00
  -10   -1   21     -0.18      0.00
   -9   -1   21     -0.52      0.00
   -8   -1   21     -0.16      0.00
   -7   -1   21      0.33      0.00
   -6   -1   21      0.26      0.00
   -5   -1   21      0.31      0.00
   -4   -1   21      0.19      0.00
   -3   -1   21      0.02      0.00
   -2   -1   21      0.46      0.00
   -1   -1   21      0.42      0.00
    0   -1   21     -0.48      0.00
    1   -1   21     -0.72      0.00
    2   -1   21     -0.12      0.00
    3   -1   21      0.13      0.00
    4   -1   21     -0.65      0.00
    5   -1   21     -1.37      0.00
  -10    0   21      0.04      0.00
   -9    0   21     -0.14      0.00
   -8    0   21     -0.23      0.00
   -7    0   21      0.40      0.00
   -6    0   21      0.55      0.00
   -5    0   21      0.43      0.00
   -4    0   21      0.31      0.00
   -3    0   21     -0.21      0.00
   -2    0   21     -0.01      0.00
   -1    0   21      0.45      0.00
    0    0   21     -0.24      0.00
    1    0   21     -0.43      0.00
    2    0   21      0.32      0.00
    3    0   21      0.23      0.00
    4    0   21     -0.68      0.00
    5    0   21     -1.28      0.00
  -10    1   21      0.02      0.00
   -9    1   21      0.46      0.00
   -8    1   21      0.46      0.00
   -7    1   21      0.48      0.00
   -6    1   21      0.35      0.00
   -5    1   21      0.11      0.00
   -4    1   21      0.25      0.00
   -3    1   21      0.19      0.00
   -2    1   21     -0.01      0.00
   -1    1   21      0.36      0.00
    0    1   21      0.29      0.00
    1    1   21      0.13      0.00
    2    1   21      0.48      0.00
    3    1   21     -0.07      0.00
    4    1   21     -0.96      0.00
    5    1   21     -0.94      0.00
    6    1   21     -0.42      0.00
   -9    2   21      0.30      0.00
   -8    2   21      0.84      0.00
   -7    2   21      0.79      0.00
   -6    2   21      0.12      0.00
   -5    2   21     -0.29      0.00
   -4    2   21     -0.08      0.00
   -3    2   21      0.26      0.00
   -2    2   21      0.19      0.00
   -1    2   21      0.27      0.00
    0    2   21      0.51      0.00
    1    2   21      0.43      0.00
    2    2   21      0.36      0.00
    3    2   21     -0.22      0.00
    4    2   21     -0.98      0.00
    5    2   21     -0.80      0.00
   -9    3   21      0.03      0.00
   -8    3   21      0.19      0.00
   -7    3   21      0.51      0.00
   -6    3   21      0.06      0.00
   -5    3   21     -0.35      0.00
   -4    3   21     -0.05      0.00
   -3    3   21      0.14      0.00
   -2    3   21     -0.04      0.00
   -1    3   21     -0.05      0.00
    0    3   21      0.23      0.00
    1    3   21      0.25      0.00
    2    3   21      0.10      0.00
    3    3   21     -0.06      0.00
    4    3   21     -0.35      0.00
    5    3   21     -0.44      0.00
   -9    4   21      0.28      0.00
   -8    4   21     -0.40      0.00
   -7    4   21     -0.38      0.00
   -6    4   21     -0.02      0.00
   -5    4   21     -0.12      0.00
   -4    4   21      0.11      0.00
   -3    4   21      0.21      0.00
   -2    4   21     -0.32      0.00
   -1    4   21     -0.36      0.00
    0    4   21     -0.02      0.00
    1    4   21      0.01      0.00
    2    4   21      0.03      0.00
    3    4   21      0.22      0.00
    4    4   21      0.20      0.00
    5    4   21      0.00      0.00
   -9    5   21      0.34      0.00
   -8    5   21     -0.49      0.00
   -7    5   21     -0.96      0.00
   -6    5   21     -0.07      0.00
   -5    5   21      0.35      0.00
   -4    5   21      0.11      0.00
   -3    5   21      0.11      0.00
   -2    5   21     -0.28      0.00
   -1    5   21     -0.23      0.00
    0    5   21      0.24      0.00
    1    5   21     -0.02      0.00
    2    5   21     -0.01      0.00
    3    5   21      0.47      0.00
    4    5   21      0.29      0.00
   -7    6   21     -0.96      0.00
   -6    6   21     -0.14      0.00
   -5    6   21      0.58      0.00
   -4    6   21      0.17      0.00
   -3    6   21     -0.01      0.00
   -2    6   21     -0.04      0.00
   -1    6   21      0.08      0.00
    0    6   21      0.64      0.00
    1    6   21      0.11      0.00
    2    6   21     -0.39      0.00
    3    6   21      0.33      0.00
   -6    7   21     -0.17      0.00
   -5    7   21      0.18      0.00
   -4    7   21      0.11      0.00
   -3    7   21      0.15      0.00
   -2    7   21      0.27      0.00
   -1    7   21      0.10      0.00
    0    7   21      0.43      0.00
    1    7   21      0.25      0.00
    2    7   21     -0.58      0.00
   -4    8   21     -0.04      0.00
   -3    8   21      0.39      0.00
   -2    8   21      0.39      0.00
   -1    8   21     -0.14      0.00
    0    8   21     -0.29      0.00
    1    8   21      0.12      0.00
   -4   -8   22     -0.14      0.00
   -3   -8   22     -0.65      0.00
   -2   -8   22     -0.47      0.00
   -1   -8   22      0.08      0.00
    0   -8   22      0.82      0.00
   -5   -7   22      0.51      0.00
   -4   -7   22      0.17      0.00
   -3   -7   22     -0.72      0.00
   -2   -7   22     -0.70      0.00
   -1   -7   22     -0.01      0.00
    0   -7   22      0.75      0.00
    1   -7   22      0.71      0.00
   -7   -6   22      0.01      0.00
   -6   -6   22      0.34      0.00
   -5   -6   22      0.29      0.00
   -4   -6   22      0.21      0.00
   -3   -6   22     -0.30      0.00
   -2   -6   22     -0.48      0.00
   -1   -6   22     -0.06      0.00
    0   -6   22      0.52      0.00
    1   -6   22      0.70      0.00
    2   -6   22      0.14      0.00
   -8   -5   22     -0.34      0.00
   -7   -5   22      0.11      0.00
   -6   -5   22      0.16      0.00
   -5   -5   22     -0.04      0.00
   -4   -5   22     -0.03      0.00
   -3   -5   22     -0.07      0.00
   -2   -5   22      0.02      0.00
   -1   -5   22      0.16      0.00
    0   -5   22      0.20      0.00
    1   -5   22      0.40      0.00
    2   -5   22      0.31      0.00
    3   -5   22      0.06      0.00
   -9   -4   22     -0.01      0.00
   -8   -4   22      0.06      0.00
   -7   -4   22      0.25      0.00
   -6   -4   22      0.16      0.00
   -5   -4   22      0.08      0.00
   -4   -4   22      0.16      0.00
   -3   -4   22      0.00      0.00
   -2   -4   22      0.17      0.00
   -1   -4   22      0.45      0.00
    0   -4   22     -0.03      0.00
    1   -4   22     -0.31      0.00
    2   -4   22      0.12      0.00
    3   -4   22      0.36      0.00
    4   -4   22      0.41      0.00
   -9   -3   22      0.02      0.00
   -8   -3   22      0.00      0.00
   -7   -3   22     -0.05      0.00
   -6   -3   22      0.14      0.00
   -5   -3   22      0.35      0.00
   -4   -3   22      0.50      0.00
   -3   -3   22      0.32      0.00
   -2   -3   22      0.25      0.00
   -1   -3   22      0.41      0.00
    0   -3   22     -0.19      0.00
    1   -3   22     -0.84      0.00
    2   -3   22     -0.27      0.00
    3   -3   22      0.36      0.00
    4   -3   22      0.17      0.00
   -9   -2   22     -0.32      0.00
   -8   -2   22     -0.12      0.00
   -7   -2   22     -0.22      0.00
   -6   -2   22      0.03      0.00
   -5   -2   22      0.39      0.00
   -4   -2   22      0.25      0.00
   -3   -2   22      0.22      0.00
   -2   -2   22      0.46      0.00
   -1   -2   22      0.22      0.00
    0   -2   22     -0.51      0.00
    1   -2   22     -0.75      0.00
    2   -2   22     -0.08      0.00
    3   -2   22      0.34      0.00
    4   -2   22     -0.39      0.00
    5   -2   22     -0.81      0.00
  -10   -1   22     -0.06      0.00
   -9   -1   22     -0.58      0.00
   -8   -1   22     -0.27      0.00
   -7   -1   22      0.10      0.00
   -6   -1   22      0.17      0.00
   -5   -1   22      0.41      0.00
   -4   -1   22      0.02      0.00
   -3   -1   22     -0.34      0.00
   -2   -1   22      0.24      0.00
   -1   -1   22      0.12      0.00
    0   -1   22     -0.77      0.00
    1   -1   22     -0.40      0.00
    2   -1   22      0.60      0.00
    3   -1   22      0.51      0.00
    4   -1   22     -0.65      0.00
    5   -1   22     -1.26      0.00
  -10    0   22      0.15      0.00
   -9    0   22     -0.12      0.00
   -8    0   22     -0.10      0.00
   -7    0   22      0.29      0.00
   -6    0   22      0.20      0.00
   -5    0   22      0.22      0.00
   -4    0   22      0.23      0.00
   -3    0   22     -0.25      0.00
   -2    0   22     -0.12      0.00
   -1    0   22      0.06      0.00
    0    0   22     -0.50      0.00
    1    0   22     -0.05      0.00
    2    0   22      0.86      0.00
    3    0   22      0.34      0.00
    4    0   22     -0.72      0.00
    5    0   22     -1.01      0.00
   -9    1   22      0.40      0.00
   -8    1   22      0.61      0.00
   -7    1   22      0.44      0.00
   -6    1   22     -0.09      0.00
   -5    1   22     -0.29      0.00
   -4    1   22      0.14      0.00
   -3    1   22      0.22      0.00
   -2    1   22     -0.06      0.00
   -1    1   22      0.03      0.00
    0    1   22      0.02      0.00
    1    1   22      0.29      0.00
    2    1   22      0.61      0.00
    3    1   22     -0.19      0.00
    4    1   22     -0.92      0.00
    5    1   22     -0.63      0.00
   -9    2   22      0.17      0.00
   -8    2   22      0.71      0.00
   -7    2   22      0.54      0.00
   -6    2   22     -0.30      0.00
   -5    2   22     -0.49      0.00
   -4    2   22     -0.04      0.00
   -3    2   22      0.15      0.00
   -2    2   22     -0.14      0.00
   -1    2   22     -0.12      0.00
    0    2   22      0.18      0.00
    1    2   22      0.27      0.00
    2    2   22      0.18      0.00
    3    2   22     -0.37      0.00
    4    2   22     -0.77      0.00
   -9    3   22      0.06      0.00
   -8    3   22     -0.06      0.00
   -7    3   22      0.06      0.00
   -6    3   22     -0.36      0.00
   -5    3   22     -0.33      0.00
   -4    3   22      0.26      0.00
   -3    3   22      0.02      0.00
   -2    3   22     -0.61      0.00
   -1    3   22     -0.48      0.00
    0    3   22     -0.02      0.00
    1    3   22     -0.04      0.00
    2    3   22     -0.21      0.00
    3    3   22     -0.17      0.00
    4    3   22     -0.16      0.00
   -8    4   22     -0.46      0.00
   -7    4   22     -0.56      0.00
   -6    4   22     -0.24      0.00
   -5    4   22     -0.18      0.00
   -4    4   22      0.30      0.00
   -3    4   22      0.11      0.00
   -2    4   22     -0.80      0.00
   -1    4   22     -0.63      0.00
    0    4   22     -0.09      0.00
    1    4   22     -0.24      0.00
    2    4   22     -0.31      0.00
    3    4   22      0.00      0.00
    4    4   22      0.15      0.00
   -7    5   22     -0.66      0.00
   -6    5   22      0.09      0.00
   -5    5   22      0.14      0.00
   -4    5   22     -0.12      0.00
   -3    5   22     -0.10      0.00
   -2    5   22     -0.56      0.00
   -1    5   22     -0.33      0.00
    0    5   22      0.16      0.00
    1    5   22     -0.30      0.00
    2    5   22     -0.32      0.00
    3    5   22      0.14      0.00
   -6    6   22      0.18      0.00
   -5    6   22      0.29      0.00
   -4    6   22     -0.31      0.00
   -3    6   22     -0.31      0.00
   -2    6   22     -0.26      0.00
   -1    6   22     -0.07      0.00
    0    6   22      0.36      0.00
    1    6   22     -0.28      0.00
    2    6   22     -0.55      0.00
   -5    7   22     -0.10      0.00
   -4    7   22     -0.26      0.00
   -3    7   22     -0.08      0.00
   -2    7   22      0.02      0.00
   -1    7   22     -0.18      0.00
    0    7   22      0.10      0.00
    1    7   22     -0.06      0.00
   -4   -7   23      0.04      0.00
   -3   -7   23     -0.41      0.00
   -2   -7   23     -0.33      0.00
   -1   -7   23     -0.05      0.00
    0   -7   23      0.57      0.00
   -6   -6   23      0.43      0.00
   -5   -6   23      0.18      0.00
   -4   -6   23      0.06      0.00
   -3   -6   23     -0.07      0.00
   -2   -6   23      0.03      0.00
   -1   -6   23      0.04      0.00
    0   -6   23      0.27      0.00
    1   -6   23      0.55      0.00
   -7   -5   23      0.44      0.00
   -6   -5   23      0.29      0.00
   -5   -5   23      0.03      0.00
   -4   -5   23     -0.06      0.00
   -3   -5   23     -0.01      0.00
   -2   -5   23      0.41      0.00
   -1   -5   23      0.33      0.00
    0   -5   23     -0.13      0.00
    1   -5   23      0.07      0.00
    2   -5   23      0.34      0.00
   -8   -4   23      0.06      0.00
   -7   -4   23      0.33      0.00
   -6   -4   23      0.43      0.00
   -5   -4   23      0.34      0.00
   -4   -4   23      0.13      0.00
   -3   -4   23     -0.09      0.00
   -2   -4   23      0.37      0.00
   -1   -4   23      0.53      0.00
    0   -4   23     -0.44      0.00
    1   -4   23     -0.71      0.00
    2   -4   23      0.17      0.00
    3   -4   23      0.65      0.00
   -8   -3   23     -0.34      0.00
   -7   -3   23     -0.25      0.00
   -6   -3   23      0.40      0.00
   -5   -3   23      0.57      0.00
   -4   -3   23      0.18      0.00
   -3   -3   23     -0.09      0.00
   -2   -3   23      0.18      0.00
   -1   -3   23      0.28      0.00
    0   -3   23     -0.55      0.00
    1   -3   23     -0.94      0.00
    2   -3   23      0.04      0.00
    3   -3   23      0.67      0.00
   -8   -2   23     -0.42      0.00
   -7   -2   23     -0.46      0.00
   -6   -2   23      0.16      0.00
   -5   -2   23      0.45      0.00
   -4   -2   23     -0.28      0.00
   -3   -2   23     -0.47      0.00
   -2   -2   23      0.02      0.00
   -1   -2   23     -0.22      0.00
    0   -2   23     -0.75      0.00
    1   -2   23     -0.34      0.00
    2   -2   23      0.60      0.00
    3   -2   23      0.67      0.00
    4   -2   23     -0.32      0.00
   -9   -1   23     -0.67      0.00
   -8   -1   23     -0.32      0.00
   -7   -1   23     -0.07      0.00
   -6   -1   23      0.08      0.00
   -5   -1   23      0.30      0.00
   -4   -1   23     -0.38      0.00
   -3   -1   23     -0.87      0.00
   -2   -1   23     -0.30      0.00
   -1   -1   23     -0.49      0.00
    0   -1   23     -0.90      0.00
    1   -1   23      0.25      0.00
    3   -1   23      0.70      0.00
    4   -1   23     -0.52      0.00
   -8    0   23      0.00      0.00
   -7    0   23      0.15      0.00
   -6    0   23     -0.12      0.00
   -5    0   23     -0.06      0.00
   -4    0   23     -0.02      0.00
   -3    0   23     -0.47      0.00
   -2    0   23     -0.47      0.00
   -1    0   23     -0.43      0.00
    0    0   23     -0.54      0.00
    1    0   23      0.49      0.00
    2    0   23      1.22      0.00
    3    0   23      0.32      0.00
    4    0   23     -0.56      0.00
   -8    1   23      0.57      0.00
   -7    1   23      0.19      0.00
   -6    1   23     -0.45      0.00
   -5    1   23     -0.45      0.00
   -4    1   23      0.03      0.00
   -3    1   23      0.02      0.00
   -2    1   23     -0.34      0.00
   -1    1   23     -0.28      0.00
    0    1   23      0.02      0.00
    1    1   23      0.53      0.00
    2    1   23      0.62      0.00
    3    1   23     -0.23      0.00
    4    1   23     -0.62      0.00
   -8    2   23      0.45      0.00
   -7    2   23      0.08      0.00
   -6    2   23     -0.59      0.00
   -5    2   23     -0.25      0.00
   -4    2   23      0.23      0.00
   -3    2   23     -0.07      0.00
   -2    2   23     -0.51      0.00
   -1    2   23     -0.30      0.00
    0    2   23      0.17      0.00
    1    2   23      0.26      0.00
    2    2   23      0.05      0.00
    3    2   23     -0.32      0.00
    4    2   23     -0.38      0.00
   -8    3   23     -0.20      0.00
   -7    3   23     -0.27      0.00
   -6    3   23     -0.55      0.00
   -5    3   23      0.04      0.00
   -4    3   23      0.78      0.00
   -3    3   23     -0.04      0.00
   -2    3   23     -0.90      0.00
   -1    3   23     -0.45      0.00
    0    3   23      0.06      0.00
    1    3   23     -0.16      0.00
    2    3   23     -0.36      0.00
    3    3   23     -0.15      0.00
   -7    4   23     -0.35      0.00
   -6    4   23     -0.15      0.00
   -5    4   23      0.01      0.00
   -4    4   23      0.62      0.00
   -3    4   23      0.16      0.00
   -2    4   23     -0.84      0.00
   -1    4   23     -0.40      0.00
    0    4   23      0.07      0.00
    1    4   23     -0.36      0.00
    2    4   23     -0.48      0.00
   -6    5   23      0.43      0.00
   -5    5   23      0.10      0.00
   -4    5   23     -0.13      0.00
   -3    5   23     -0.08      0.00
   -2    5   23     -0.49      0.00
   -1    5   23     -0.13      0.00
    0    5   23      0.17      0.00
    1    5   23     -0.46      0.00
   -5    6   23      0.12      0.00
   -4    6   23     -0.42      0.00
   -3    6   23     -0.29      0.00
   -2    6   23     -0.26      0.00
   -1    6   23     -0.08      0.00
    0    6   23      0.16      0.00
   -2    7   23     -0.05      0.00
   -5   -6   24      0.05      0.00
   -4   -6   24     -0.07      0.00
   -3   -6   24      0.17      0.00
   -2   -6   24      0.43      0.00
   -1   -6   24     -0.03      0.00
   -6   -5   24      0.43      0.00
   -5   -5   24      0.14      0.00
   -4   -5   24     -0.14      0.00
   -3   -5   24     -0.01      0.00
   -2   -5   24      0.60      0.00
   -1   -5   24      0.24      0.00
    0   -5   24     -0.59      0.00
    1   -5   24     -0.28      0.00
   -7   -4   24      0.34      0.00
   -6   -4   24      0.71      0.00
   -5   -4   24      0.48      0.00
   -4   -4   24     -0.10      0.00
   -3   -4   24     -0.32      0.00
   -2   -4   24      0.31      0.00
   -1   -4   24      0.29      0.00
    0   -4   24     -0.84      0.00
    2   -4   24      0.24      0.00
   -7   -3   24     -0.28      0.00
   -6   -3   24      0.67      0.00
   -5   -3   24      0.50      0.00
   -4   -3   24     -0.43      0.00
   -3   -3   24     -0.64      0.00
   -2   -3   24     -0.17      0.00
   -1   -3   24     -0.15      0.00
    0   -3   24     -0.75      0.00
    1   -3   24     -0.65      0.00
    2   -3   24      0.38      0.00
   -7   -2   24     -0.39      0.00
   -6   -2   24      0.36      0.00
   -5   -2   24      0.27      0.00
   -4   -2   24     -0.97      0.00
   -3   -2   24     -1.15      0.00
   -2   -2   24     -0.58      0.00
   -1   -2   24     -0.80      0.00
    0   -2   24     -0.74      0.00
    1   -2   24      0.32      0.00
    2   -2   24      1.08      0.00
    3   -2   24      0.68      0.00
   -8   -1   24     -0.12      0.00
   -7   -1   24      0.03      0.00
   -6   -1   24      0.11      0.00
   -5   -1   24      0.09      0.00
   -4   -1   24     -0.80      0.00
   -3   -1   24     -1.28      0.00
   -2   -1   24     -0.83      0.00
   -1   -1   24     -0.99      0.00
    0   -1   24     -0.74      0.00
    1   -1   24      0.90      0.00
    3   -1   24      0.56      0.00
   -8    0   24      0.20      0.00
   -7    0   24      0.15      0.00
   -6    0   24     -0.20      0.00
   -5    0   24     -0.21      0.00
   -4    0   24     -0.24      0.00
   -3    0   24     -0.65      0.00
   -2    0   24     -0.74      0.00
   -1    0   24     -0.64      0.00
    0    0   24     -0.25      0.00
    1    0   24      0.92      0.00
    2    0   24      1.20      0.00
    3    0   24      0.16      0.00
   -8    1   24      0.51      0.00
   -7    1   24     -0.03      0.00
   -6    1   24     -0.44      0.00
   -5    1   24     -0.22      0.00
   -4    1   24      0.05      0.00
   -3    1   24     -0.17      0.00
   -2    1   24     -0.50      0.00
   -1    1   24     -0.25      0.00
    0    1   24      0.31      0.00
    1    1   24      0.74      0.00
    2    1   24      0.52      0.00
    3    1   24     -0.19      0.00
   -7    2   24     -0.25      0.00
   -6    2   24     -0.49      0.00
   -5    2   24      0.37      0.00
   -4    2   24      0.61      0.00
   -3    2   24     -0.17      0.00
   -2    2   24     -0.54      0.00
   -1    2   24     -0.06      0.00
    0    2   24      0.43      0.00
    1    2   24      0.34      0.00
    2    2   24      0.02      0.00
   -7    3   24     -0.29      0.00
   -6    3   24     -0.37      0.00
   -5    3   24      0.65      0.00
   -4    3   24      1.28      0.00
   -3    3   24      0.05      0.00
   -2    3   24     -0.66      0.00
   -1    3   24      0.05      0.00
    0    3   24      0.35      0.00
    1    3   24     -0.11      0.00
    2    3   24     -0.30      0.00
   -7    4   24      0.11      0.00
   -6    4   24      0.19      0.00
   -5    4   24      0.34      0.00
   -4    4   24      0.91      0.00
   -3    4   24      0.30      0.00
   -2    4   24     -0.45      0.00
   -1    4   24      0.18      0.00
    0    4   24      0.33      0.00
    1    4   24     -0.32      0.00
   -5    5   24      0.21      0.00
   -4    5   24      0.03      0.00
   -3    5   24      0.07      0.00
   -2    5   24     -0.20      0.00
   -1    5   24      0.20      0.00
    0    5   24      0.22      0.00
   -3    6   24     -0.10      0.00
   -3   -5   25     -0.06      0.00
   -2   -5   25      0.59      0.00
   -5   -4   25      0.35      0.00
   -4   -4   25     -0.40      0.00
   -3   -4   25     -0.50      0.00
   -2   -4   25      0.13      0.00
   -1   -4   25      0.01      0.00
   -6   -3   25      0.81      0.00
   -5   -3   25      0.15      0.00
   -4   -3   25     -0.98      0.00
   -3   -3   25     -0.98      0.00
   -2   -3   25     -0.52      0.00
   -1   -3   25     -0.49      0.00
    0   -3   25     -0.58      0.00
   -6   -2   25      0.54      0.00
   -5   -2   25     -0.05      0.00
   -4   -2   25     -1.40      0.00
   -3   -2   25     -1.43      0.00
   -2   -2   25     -0.95      0.00
   -1   -2   25     -1.11      0.00
    0   -2   25     -0.44      0.00
    1   -2   25      0.85      0.00
   -6   -1   25      0.24      0.00
   -5   -1   25     -0.09      0.00
   -4   -1   25     -0.96      0.00
   -3   -1   25     -1.30      0.00
   -2   -1   25     -0.99      0.00
   -1   -1   25     -1.06      0.00
    0   -1   25     -0.34      0.00
    1   -1   25      1.22      0.00
    2   -1   25      1.25      0.00
   -7    0   25      0.26      0.00
   -6    0   25     -0.06      0.00
   -5    0   25     -0.19      0.00
   -4    0   25     -0.29      0.00
   -3    0   25     -0.61      0.00
   -2    0   25     -0.71      0.00
   -1    0   25     -0.46      0.00
    0    0   25      0.18      0.00
    1    0   25      1.04      0.00
    2    0   25      0.83      0.00
   -7    1   25     -0.14      0.00
   -6    1   25     -0.15      0.00
   -5    1   25      0.17      0.00
   -4    1   25      0.10      0.00
   -3    1   25     -0.22      0.00
   -2    1   25     -0.39      0.00
   -1    1   25      0.05      0.00
    0    1   25      0.66      0.00
    1    1   25      0.77      0.00
   -6    2   25     -0.14      0.00
   -5    2   25      0.96      0.00
   -4    2   25      0.81      0.00
   -3    2   25     -0.16      0.00
   -2    2   25     -0.24      0.00
   -1    2   25      0.35      0.00
    0    2   25      0.66      0.00
   -6    3   25     -0.04      0.00
   -5    3   25      1.04      0.00
   -3    3   25      0.12      0.00
   -2    3   25     -0.14      0.00
   -1    3   25      0.60      0.00
    0    3   25      0.52      0.00
   -5    4   25      0.49      0.00
   -4    4   25      0.88      0.00
   -3    4   25      0.32      0.00
   -2    4   25      0.00      0.00
   -1    4   25      0.63      0.00
   -4   -2   26     -1.34      0.00
   -3   -2   26     -1.16      0.00
   -2   -2   26     -0.90      0.00
   -1   -2   26     -1.00      0.00
   -5   -1   26     -0.19      0.00
   -4   -1   26     -0.77      0.00
   -3   -1   26     -0.93      0.00
   -2   -1   26     -0.77      0.00
   -1   -1   26     -0.74      0.00
   -4    0   26     -0.22      0.00
   -3    0   26     -0.41      0.00
   -2    0   26     -0.49      0.00
   -1    0   26     -0.10      0.00
    0    0   26      0.49      0.00
   -4    1   26      0.05      0.00
   -3    1   26     -0.18      0.00
   -2    1   26     -0.19      0.00
   -1    1   26      0.29      0.00
   -4    2   26      0.60      0.00
   -3    2   26     -0.13      0.00
   -2    2   26      0.10      0.00
    1    0    0     12.96      0.00
    2    0    0     -3.72      0.00
    3    0    0     -4.33      0.00
    7    0    0     -0.28      0.00
   12    0    0      0.05      0.00
   13    0    0     -0.22      0.00
  -13    1    0     -0.03      0.00
   -5    1    0      1.34      0.00
   -4    1    0      1.11      0.00
   -3    1    0     -1.96      0.00
   -2    1    0     -3.24      0.00
    0    1    0     18.08      0.00
    2    1    0      0.20      0.00
    3    1    0     -2.95      0.00
    5    1    0     -0.45      0.00
   11    1    0      0.06      0.00
   12    1    0      0.65      0.00
   13    1    0      0.13      0.00
   -6    2    0      0.04      0.00
   -3    2    0     -0.29      0.00
   -1    2    0      2.12      0.00
    0    2    0      5.27      0.00
    2    2    0      2.28      0.00
   10    2    0     -1.04      0.00
   11    2    0     -0.46      0.00
   12    2    0      0.60      0.00
   13    2    0      0.57      0.00
   -4    3    0     -0.75      0.00
   -2    3    0      0.75      0.00
   -1    3    0      2.53      0.00
    0    3    0      0.89      0.00
    1    3    0     -1.09      0.00
    2    3    0      0.22      0.00
   10    3    0     -0.56      0.00
   11    3    0     -0.94      0.00
   12    3    0     -0.05      0.00
   13    3    0      0.56      0.00
  -13    4    0     -0.33      0.00
   -3    4    0     -1.33      0.00
   -2    4    0      0.67      0.00
   -1    4    0      2.67      0.00
    0    4    0      1.65      0.00
    1    4    0     -1.45      0.00
   11    4    0     -0.42      0.00
   12    4    0     -0.25      0.00
   13    4    0      0.48      0.00
  -13    5    0     -0.27      0.00
   -1    5    0      2.85      0.00
    0    5    0      2.05      0.00
   11    5    0      0.23      0.00
   12    5    0      0.11      0.00
   -3    6    0     -0.22      0.00
   -1    6    0      2.29      0.00
   12    6    0      0.29      0.00
  -12    7    0     -0.24      0.00
   -2    7    0      0.90      0.00
   12    7    0      0.12      0.00
  -11    9    0      0.14      0.00
  -10   10    0     -0.10      0.00
   10   10    0      0.52      0.00
    9   11    0     -0.23      0.00
   -8   12    0      0.14      0.00
    2   12    0     -0.04      0.00
    8   12    0      0.03      0.00
   -7   13    0      0.21      0.00
   -6   13    0     -0.18      0.00
    6   13    0     -0.09      0.00
   -5   14    0     -0.05      0.00
   -4   14    0      0.08      0.00
    4   14    0      0.37      0.00
    0   15    0     -0.04      0.00
    0  -15    1      0.18      0.00
   -4  -14    1      0.87      0.00
    4  -14    1     -0.17      0.00
    5  -14    1     -0.19      0.00
    6  -13    1     -0.33      0.00
   -8  -12    1      0.16      0.00
    8  -12    1     -0.09      0.00
   -9  -11    1     -0.31      0.00
    9  -11    1     -0.15      0.00
  -10  -10    1      0.55      0.00
   10  -10    1      0.05      0.00
  -11   -9    1      0.23      0.00
   11   -9    1      0.18      0.00
    1   -8    1      1.00      0.00
  -12   -7    1      0.20      0.00
   -2   -7    1     -0.33      0.00
    0   -7    1      1.83      0.00
   12   -7    1     -0.36      0.00
  -12   -6    1      0.27      0.00
    0   -6    1      2.98      0.00
  -13   -5    1      0.10      0.00
  -12   -5    1     -0.30      0.00
   -3   -5    1     -0.98      0.00
    0   -5    1      2.38      0.00
  -13   -4    1      0.19      0.00
  -12   -4    1     -0.86      0.00
  -11   -4    1     -0.46      0.00
   -2   -4    1     -0.86      0.00
    4   -4    1     -0.85      0.00
   13   -4    1     -0.23      0.00
  -13   -3    1      0.53      0.00
  -12   -3    1     -0.39      0.00
  -11   -3    1     -1.05      0.00
   -5   -3    1      0.56      0.00
   -3   -3    1      2.52      0.00
   -2   -3    1      1.86      0.00
    3   -3    1     -0.04      0.00
    5   -3    1      0.18      0.00
   13   -3    1      0.05      0.00
  -13   -2    1      0.47      0.00
  -12   -2    1      0.35      0.00
  -11   -2    1     -0.58      0.00
  -10   -2    1     -0.92      0.00
   -4   -2    1     -0.59      0.00
   -3   -2    1     -0.84      0.00
    2   -2    1     -2.44      0.00
  -13   -1    1      0.01      0.00
  -12   -1    1      0.18      0.00
  -11   -1    1     -0.36      0.00
   -6   -1    1      0.19      0.00
   -4   -1    1     -2.25      0.00
   -3   -1    1     -5.39      0.00
   -1   -1    1     17.77      0.00
    0   -1    1     18.24      0.00
    1   -1    1      2.36      0.00
    2   -1    1     -4.97      0.00
    3   -1    1     -2.05      0.00
   13   -1    1     -0.23      0.00
  -13    0    1     -0.19      0.00
  -12    0    1     -0.35      0.00
   -5    0    1      0.36      0.00
   -3    0    1     -5.36      0.00
   -1    0    1     13.75      0.00
    0    0    1     21.60      0.00
    3    0    1     -2.96      0.00
   12    0    1      0.26      0.00
   13    0    1     -0.46      0.00
   -6    1    1     -0.25      0.00
   -4    1    1     -0.44      0.00
   -2    1    1     -1.33      0.00
    0    1    1     10.88      0.00
    1    1    1      6.03      0.00
    2    1    1     -0.67      0.00
    6    1    1      0.64      0.00
   10    1    1     -0.58      0.00
   11    1    1      0.47      0.00
   12    1    1      0.82      0.00
   13    1    1      0.04      0.00
   -4    2    1     -1.19      0.00
    1    2    1     -0.67      0.00
    2    2    1      0.57      0.00
    4    2    1      0.58      0.00
    6    2    1      0.40      0.00
    9    2    1     -1.07      0.00
   10    2    1     -0.86      0.00
   11    2    1     -0.26      0.00
   12    2    1      0.61      0.00
   13    2    1      0.40      0.00
   -7    3    1      0.24      0.00
   -2    3    1      1.79      0.00
   -1    3    1      3.20      0.00
    0    3    1     -0.83      0.00
    1    3    1     -3.77      0.00
    2    3    1     -1.33      0.00
    6    3    1     -0.11      0.00
   10    3    1     -0.45      0.00
   11    3    1     -0.64      0.00
   12    3    1      0.24      0.00
   13    3    1      0.38      0.00
  -13    4    1     -0.27      0.00
    0    4    1      0.69      0.00
    1    4    1     -2.37      0.00
    3    4    1     -0.93      0.00
   10    4    1      0.01      0.00
   11    4    1     -0.28      0.00
   12    4    1      0.34      0.00
   13    4    1      0.58      0.00
  -13    5    1     -0.19      0.00
   -3    5    1      0.08      0.00
   -1    5    1      2.63      0.00
    1    5    1     -1.39      0.00
    4    5    1     -0.78      0.00
    5    5    1      1.26      0.00
   11    5    1      0.07      0.00
   12    5    1      0.45      0.00
    1    6    1     -1.11      0.00
   11    6    1      0.14      0.00
   12    6    1      0.24      0.00
  -12    7    1      0.01      0.00
   -3    7    1      0.47      0.00
   -1    7    1      1.00      0.00
    3    7    1     -0.27      0.00
  -11    9    1     -0.01      0.00
  -10   10    1     -0.26      0.00
   10   10    1      0.31      0.00
    9   11    1     -0.18      0.00
   -8   12    1      0.43      0.00
    8   12    1     -0.01      0.00
   -7   13    1      0.36      0.00
    6   13    1     -0.23      0.00
   -5   14    1      0.13      0.00
   -4   14    1      0.47      0.00
    4   14    1     -0.10      0.00
   -4  -14    2      1.11      0.00
    4  -14    2     -0.26      0.00
    6  -13    2     -0.44      0.00
   -8  -12    2      0.32      0.00
    8  -12    2     -0.22      0.00
   -9  -11    2     -0.33      0.00
    9  -11    2     -0.16      0.00
  -10  -10    2      0.48      0.00
   10  -10    2      0.12      0.00
  -11   -9    2     -0.08      0.00
   -2   -8    2      0.62      0.00
    0   -8    2      1.05      0.00
   11   -8    2     -0.11      0.00
  -12   -7    2      0.29      0.00
   12   -7    2     -0.24      0.00
   -2   -6    2     -1.18      0.00
   -1   -6    2      1.81      0.00
    4   -6    2      0.91      0.00
    6   -6    2      0.13      0.00
  -13   -5    2     -0.46      0.00
  -12   -5    2     -0.63      0.00
    1   -5    2      0.46      0.00
    3   -5    2     -1.48      0.00
  -13   -4    2     -0.23      0.00
  -12   -4    2     -1.30      0.00
   -5   -4    2      3.47      0.00
   -4   -4    2      3.87      0.00
   -3   -4    2      1.80      0.00
   -1   -4    2     -0.61      0.00
    3   -4    2     -0.55      0.00
    5   -4    2      0.83      0.00
   13   -4    2     -0.09      0.00
  -13   -3    2      0.26      0.00
  -12   -3    2     -0.69      0.00
  -11   -3    2     -1.02      0.00
   -6   -3    2     -0.53      0.00
   -1   -3    2      2.62      0.00
    1   -3    2     -3.22      0.00
    2   -3    2     -2.29      0.00
    5   -3    2      0.14      0.00
    7   -3    2      1.06      0.00
   13   -3    2      0.13      0.00
  -13   -2    2      0.06      0.00
  -12   -2    2     -0.03      0.00
  -11   -2    2     -0.60      0.00
   -4   -2    2     -2.54      0.00
   -2   -2    2      4.78      0.00
   -1   -2    2     11.19      0.00
    3   -2    2     -0.64      0.00
  -13   -1    2     -0.39      0.00
  -12   -1    2     -0.40      0.00
  -11   -1    2     -0.66      0.00
   -4   -1    2     -3.88      0.00
   -1   -1    2     15.74      0.00
    3   -1    2     -2.31      0.00
    5   -1    2      1.35      0.00
    6   -1    2      0.24      0.00
   13   -1    2     -0.51      0.00
  -13    0    2     -0.42      0.00
   -6    0    2     -0.31      0.00
   -4    0    2     -2.83      0.00
   -3    0    2     -5.19      0.00
   -1    0    2      9.15      0.00
    0    0    2     10.77      0.00
    1    0    2      0.41      0.00
    2    0    2     -3.44      0.00
   12    0    2      0.28      0.00
   13    0    2     -0.65      0.00
   -4    1    2     -2.47      0.00
   -2    1    2      0.15      0.00
   -1    1    2      1.20      0.00
    2    1    2     -0.55      0.00
    4    1    2     -0.77      0.00
    6    1    2      0.44      0.00
   10    1    2     -0.18      0.00
   11    1    2      0.69      0.00
   12    1    2      0.70      0.00
   13    1    2     -0.05      0.00
   -7    2    2      0.11      0.00
    9    2    2     -0.42      0.00
   10    2    2     -0.53      0.00
   11    2    2     -0.05      0.00
   12    2    2      0.43      0.00
   13    2    2      0.20      0.00
   -3    3    2     -1.14      0.00
    1    3    2     -4.83      0.00
    2    3    2     -2.03      0.00
    3    3    2      0.73      0.00
    4    3    2      1.09      0.00
    9    3    2     -0.32      0.00
   10    3    2     -0.32      0.00
   11    3    2     -0.23      0.00
   12    3    2      0.42      0.00
   13    3    2      0.16      0.00
  -13    4    2     -0.04      0.00
   -2    4    2      2.58      0.00
   -1    4    2      1.69      0.00
    2    4    2     -2.68      0.00
   10    4    2     -0.20      0.00
   11    4    2     -0.05      0.00
   12    4    2      0.74      0.00
  -13    5    2     -0.02      0.00
   -4    5    2     -0.90      0.00
   -3    5    2      1.46      0.00
    1    5    2     -1.82      0.00
    3    5    2     -2.23      0.00
   10    5    2     -0.17      0.00
   11    5    2      0.02      0.00
   12    5    2      0.58      0.00
   11    6    2      0.17      0.00
   12    6    2      0.08      0.00
   -4    7    2     -1.67      0.00
    1    7    2     -0.89      0.00
    2    7    2     -0.20      0.00
   11    7    2      0.40      0.00
   11    8    2      0.58      0.00
  -11    9    2     -0.24      0.00
  -10   10    2     -0.33      0.00
   -9   11    2      0.23      0.00
   -8   12    2      0.71      0.00
   -7   13    2      0.42      0.00
    6   13    2     -0.34      0.00
   -5   14    2      0.37      0.00
   -4   14    2      0.80      0.00
    4   14    2     -0.31      0.00
   -4  -14    3      0.99      0.00
    4  -14    3     -0.28      0.00
    6  -13    3     -0.40      0.00
   -8  -12    3      0.36      0.00
    8  -12    3     -0.29      0.00
   -9  -11    3     -0.29      0.00
    9  -11    3     -0.19      0.00
  -10  -10    3      0.37      0.00
   10  -10    3      0.11      0.00
  -11   -9    3     -0.37      0.00
   11   -8    3     -0.09      0.00
  -12   -7    3      0.39      0.00
    1   -6    3      0.36      0.00
    2   -6    3     -1.27      0.00
   12   -6    3      0.18      0.00
  -13   -5    3     -0.91      0.00
  -13   -4    3     -0.59      0.00
  -12   -4    3     -1.45      0.00
   -5   -4    3      1.96      0.00
   -2   -4    3      0.90      0.00
   -1   -4    3     -0.89      0.00
    0   -4    3     -2.99      0.00
    1   -4    3     -3.40      0.00
    3   -4    3      0.30      0.00
  -13   -3    3     -0.10      0.00
  -12   -3    3     -0.80      0.00
   -1   -3    3      2.52      0.00
    1   -3    3     -4.86      0.00
   13   -3    3      0.07      0.00
  -13   -2    3     -0.42      0.00
  -12   -2    3     -0.34      0.00
  -11   -2    3     -0.56      0.00
   -8   -2    3      1.13      0.00
   -6   -2    3     -1.53      0.00
   -4   -2    3     -4.11      0.00
   -2   -2    3      5.01      0.00
   -1   -2    3      8.83      0.00
    0   -2    3      0.90      0.00
    5   -2    3      0.69      0.00
   13   -2    3     -0.04      0.00
  -13   -1    3     -0.78      0.00
  -11   -1    3     -0.76      0.00
   -6   -1    3     -0.99      0.00
   -1   -1    3      9.59      0.00
    0   -1    3      3.77      0.00
    2   -1    3     -3.44      0.00
    4   -1    3     -0.61      0.00
    5   -1    3      0.85      0.00
   13   -1    3     -0.61      0.00
  -14    0    3     -0.51      0.00
  -13    0    3     -0.66      0.00
   -4    0    3     -3.57      0.00
   -2    0    3     -0.81      0.00
    1    0    3     -3.44      0.00
    2    0    3     -0.83      0.00
    6    0    3      0.30      0.00
   11    0    3      1.04      0.00
   12    0    3      0.21      0.00
   13    0    3     -0.57      0.00
   -5    1    3     -2.07      0.00
   -3    1    3     -0.47      0.00
   -1    1    3     -2.91      0.00
    1    1    3     -5.05      0.00
    2    1    3      0.70      0.00
    3    1    3      2.48      0.00
    5    1    3     -0.47      0.00
   10    1    3      0.04      0.00
   11    1    3      0.60      0.00
   12    1    3      0.44      0.00
   13    1    3      0.05      0.00
   -3    2    3     -0.56      0.00
   -1    2    3     -1.03      0.00
    0    2    3     -7.11      0.00
    1    2    3     -5.82      0.00
    3    2    3      2.27      0.00
    4    2    3      1.07      0.00
    7    2    3     -1.00      0.00
    8    2    3     -0.43      0.00
    9    2    3      0.09      0.00
   10    2    3     -0.29      0.00
   11    2    3      0.06      0.00
   12    2    3      0.15      0.00
   13    2    3      0.11      0.00
   -6    3    3     -0.54      0.00
   -3    3    3      0.39      0.00
   -1    3    3      0.63      0.00
    2    3    3     -1.71      0.00
    3    3    3      0.09      0.00
    9    3    3     -0.17      0.00
   10    3    3     -0.29      0.00
   11    3    3      0.14      0.00
   12    3    3      0.43      0.00
   13    3    3     -0.02      0.00
  -13    4    3      0.27      0.00
   -5    4    3     -1.73      0.00
   -3    4    3      2.67      0.00
    0    4    3     -1.78      0.00
    3    4    3     -1.58      0.00
   10    4    3     -0.42      0.00
   11    4    3      0.14      0.00
   12    4    3      0.85      0.00
  -13    5    3      0.10      0.00
    0    5    3     -2.39      0.00
    2    5    3     -0.98      0.00
   10    5    3     -0.23      0.00
   11    5    3     -0.03      0.00
   12    5    3      0.47      0.00
   -4    6    3     -1.49      0.00
    1    6    3     -1.46      0.00
   11    6    3      0.15      0.00
   12    6    3     -0.14      0.00
   -1    7    3     -0.31      0.00
    0    7    3     -1.31      0.00
   11    7    3      0.44      0.00
   11    8    3      0.58      0.00
  -11    9    3     -0.41      0.00
   10    9    3      0.47      0.00
  -10   10    3     -0.22      0.00
   -9   11    3      0.52      0.00
    7   12    3     -0.18      0.00
   -7   13    3      0.35      0.00
    6   13    3     -0.30      0.00
   -5   14    3      0.55      0.00
   -4   14    3      0.81      0.00
    4   14    3     -0.25      0.00
   -4  -14    4      0.66      0.00
    4  -14    4     -0.27      0.00
    6  -13    4     -0.22      0.00
   -8  -12    4      0.17      0.00
   -9  -11    4     -0.27      0.00
  -10  -10    4      0.25      0.00
  -11   -9    4     -0.57      0.00
    1   -8    4     -0.64      0.00
   11   -8    4     -0.06      0.00
  -12   -7    4      0.44      0.00
   -3   -7    4     -2.19      0.00
    0   -6    4      0.78      0.00
    2   -6    4     -0.70      0.00
   12   -6    4      0.35      0.00
  -13   -5    4     -1.03      0.00
   -2   -5    4      0.09      0.00
    1   -5    4     -1.53      0.00
  -13   -4    4     -0.67      0.00
   -1   -4    4     -0.66      0.00
    0   -4    4     -3.48      0.00
    1   -4    4     -3.48      0.00
    4   -4    4      0.27      0.00
  -13   -3    4     -0.25      0.00
  -12   -3    4     -0.62      0.00
   -6   -3    4     -3.33      0.00
   -3   -3    4      0.77      0.00
   -2   -3    4      4.51      0.00
   -1   -3    4      2.15      0.00
    0   -3    4     -2.64      0.00
    1   -3    4     -3.92      0.00
    2   -3    4     -2.18      0.00
  -13   -2    4     -0.63      0.00
  -12   -2    4     -0.37      0.00
   -3   -2    4     -1.78      0.00
   -1   -2    4      5.16      0.00
    0   -2    4     -1.06      0.00
    4   -2    4      0.59      0.00
    6   -2    4     -0.84      0.00
   13   -2    4     -0.08      0.00
  -14   -1    4     -0.63      0.00
  -13   -1    4     -0.85      0.00
  -12   -1    4     -0.83      0.00
   -5   -1    4     -3.30      0.00
   -2   -1    4      1.72      0.00
    1   -1    4     -2.41      0.00
    3   -1    4     -1.39      0.00
   12   -1    4     -0.38      0.00
   13   -1    4     -0.43      0.00
  -14    0    4     -0.66      0.00
   -5    0    4     -2.94      0.00
   -3    0    4      0.29      0.00
   -1    0    4     -3.40      0.00
    0    0    4     -6.28      0.00
    1    0    4     -3.23      0.00
    2    0    4      2.26      0.00
    4    0    4     -0.94      0.00
   11    0    4      0.80      0.00
   12    0    4      0.18      0.00
   13    0    4     -0.22      0.00
  -14    1    4     -0.76      0.00
    1    1    4     -4.49      0.00
    2    1    4      2.01      0.00
    3    1    4      3.09      0.00
    7    1    4     -0.37      0.00
    9    1    4      0.08      0.00
   10    1    4     -0.05      0.00
   11    1    4      0.26      0.00
   12    1    4      0.15      0.00
   13    1    4      0.25      0.00
   -6    2    4     -0.22      0.00
   -5    2    4     -1.30      0.00
   -2    2    4      2.57      0.00
   -1    2    4     -1.69      0.00
    0    2    4     -5.64      0.00
    1    2    4     -3.70      0.00
    9    2    4      0.05      0.00
   10    2    4     -0.26      0.00
   11    2    4      0.05      0.00
   12    2    4     -0.15      0.00
   13    2    4      0.08      0.00
   -7    3    4     -0.54      0.00
   -2    3    4      1.69      0.00
    0    3    4     -1.94      0.00
    4    3    4      1.58      0.00
    6    3    4      0.33      0.00
    9    3    4     -0.45      0.00
   10    3    4     -0.39      0.00
   11    3    4      0.33      0.00
   12    3    4      0.28      0.00
  -13    4    4      0.53      0.00
   -6    4    4     -1.76      0.00
   -4    4    4      0.66      0.00
    2    4    4     -0.60      0.00
    9    4    4     -0.60      0.00
   10    4    4     -0.61      0.00
   11    4    4      0.15      0.00
   12    4    4      0.67      0.00
  -13    5    4      0.10      0.00
   -3    5    4      2.82      0.00
   -1    5    4     -1.03      0.00
    4    5    4     -0.63      0.00
   10    5    4     -0.27      0.00
   11    5    4     -0.18      0.00
   12    5    4      0.20      0.00
   -2    6    4      1.17      0.00
    0    6    4     -1.72      0.00
   10    6    4      0.41      0.00
   11    6    4      0.01      0.00
   -3    7    4      0.33      0.00
    3    7    4      0.10      0.00
   11    7    4      0.31      0.00
  -11    9    4     -0.38      0.00
   10    9    4      0.27      0.00
  -10   10    4      0.02      0.00
    9   10    4     -0.41      0.00
   -9   11    4      0.69      0.00
    7   12    4     -0.21      0.00
   -7   13    4      0.17      0.00
   -4   14    4      0.42      0.00
    3   14    4     -0.05      0.00
   -4  -14    5      0.32      0.00
   -3  -14    5      0.23      0.00
    3  -14    5     -0.03      0.00
    4  -14    5     -0.23      0.00
    6  -13    5     -0.02      0.00
   -8  -12    5     -0.19      0.00
   -9  -11    5     -0.27      0.00
  -10  -10    5      0.07      0.00
  -11   -9    5     -0.69      0.00
   10   -9    5     -0.13      0.00
   -2   -8    5      0.89      0.00
  -12   -7    5      0.31      0.00
   -1   -7    5      1.12      0.00
   11   -7    5      0.22      0.00
   -2   -6    5      0.02      0.00
   -1   -6    5      0.04      0.00
    4   -6    5      0.47      0.00
  -13   -5    5     -0.79      0.00
   -3   -5    5      1.64      0.00
   12   -5    5      0.14      0.00
  -13   -4    5     -0.42      0.00
   -5   -4    5     -1.68      0.00
   -3   -4    5      2.69      0.00
   -2   -4    5      3.14      0.00
    2   -4    5      0.40      0.00
    3   -4    5      1.89      0.00
    4   -4    5      0.56      0.00
  -13   -3    5     -0.07      0.00
    7   -3    5     -0.79      0.00
  -13   -2    5     -0.42      0.00
   -5   -2    5     -3.38      0.00
   -3   -2    5      0.95      0.00
   -1   -2    5      1.77      0.00
    1   -2    5      0.49      0.00
    2   -2    5     -0.34      0.00
    3   -2    5     -1.18      0.00
  -14   -1    5     -0.38      0.00
  -13   -1    5     -0.53      0.00
   -3   -1    5      1.51      0.00
    0   -1    5     -3.76      0.00
    1   -1    5      0.70      0.00
    2   -1    5      2.60      0.00
    5   -1    5     -0.41      0.00
   12   -1    5     -0.13      0.00
   13   -1    5     -0.10      0.00
  -14    0    5     -0.51      0.00
   -6    0    5      0.16      0.00
   -5    0    5     -2.62      0.00
   -4    0    5     -0.72      0.00
    0    0    5     -7.13      0.00
    1    0    5     -1.15      0.00
    2    0    5      3.90      0.00
    3    0    5      2.22      0.00
    7    0    5      0.40      0.00
   11    0    5      0.38      0.00
   12    0    5      0.22      0.00
   13    0    5      0.13      0.00
  -14    1    5     -0.67      0.00
   -2    1    5      1.90      0.00
   10    1    5     -0.26      0.00
   11    1    5     -0.13      0.00
   12    1    5     -0.09      0.00
   -8    2    5     -0.32      0.00
   -6    2    5     -0.78      0.00
   -3    2    5      2.17      0.00
   -2    2    5      1.32      0.00
   -1    2    5     -1.53      0.00
    0    2    5     -2.51      0.00
    2    2    5     -0.05      0.00
    4    2    5      2.21      0.00
    5    2    5      1.35      0.00
    9    2    5     -0.39      0.00
   10    2    5     -0.29      0.00
   11    2    5     -0.03      0.00
   12    2    5     -0.43      0.00
   -6    3    5     -2.02      0.00
    4    3    5      1.44      0.00
    5    3    5      1.35      0.00
    9    3    5     -0.91      0.00
   10    3    5     -0.49      0.00
   11    3    5      0.32      0.00
   12    3    5      0.02      0.00
  -13    4    5      0.65      0.00
   -3    4    5      4.50      0.00
   -2    4    5      1.49      0.00
    0    4    5     -1.56      0.00
    6    4    5      0.51      0.00
    9    4    5     -0.87      0.00
   10    4    5     -0.73      0.00
   11    4    5     -0.02      0.00
   12    4    5      0.35      0.00
  -13    5    5      0.03      0.00
    1    5    5      0.09      0.00
    3    5    5      0.12      0.00
   10    5    5     -0.32      0.00
   11    5    5     -0.42      0.00
   12    5    5     -0.04      0.00
   -3    6    5      0.02      0.00
   10    6    5      0.28      0.00
   11    6    5     -0.23      0.00
   -1    7    5     -1.03      0.00
    1    7    5     -0.32      0.00
   11    7    5      0.07      0.00
  -11    9    5     -0.18      0.00
   10    9    5      0.16      0.00
  -10   10    5      0.23      0.00
    9   10    5     -0.22      0.00
   -9   11    5      0.59      0.00
    8   11    5      0.03      0.00
   -8   12    5      0.31      0.00
    7   12    5     -0.26      0.00
    5   13    5     -0.60      0.00
   -4   14    5     -0.05      0.00
   -3   14    5     -0.83      0.00
    3   14    5      0.21      0.00
   -4  -14    6      0.09      0.00
   -3  -14    6      0.23      0.00
    3  -14    6      0.07      0.00
   -6  -13    6      0.85      0.00
   -8  -12    6     -0.52      0.00
    7  -12    6     -0.25      0.00
   -9  -11    6     -0.22      0.00
    8  -11    6     -0.54      0.00
  -10  -10    6     -0.13      0.00
    9  -10    6     -0.27      0.00
  -11   -9    6     -0.77      0.00
   10   -9    6     -0.13      0.00
    2   -8    6     -0.52      0.00
  -12   -7    6     -0.08      0.00
   -2   -7    6      0.04      0.00
   11   -7    6      0.17      0.00
    0   -6    6     -1.60      0.00
    2   -6    6      1.05      0.00
    3   -6    6      0.89      0.00
  -13   -5    6     -0.34      0.00
   -3   -5    6      2.78      0.00
   -2   -5    6      2.10      0.00
   -1   -5    6     -0.26      0.00
    2   -5    6      1.68      0.00
    4   -5    6      0.32      0.00
   12   -5    6     -0.12      0.00
  -13   -4    6     -0.01      0.00
   -1   -4    6      1.18      0.00
    2   -4    6      0.75      0.00
    3   -4    6      1.82      0.00
   12   -4    6     -0.08      0.00
  -13   -3    6      0.25      0.00
   -6   -3    6     -3.62      0.00
   -5   -3    6     -2.56      0.00
   -3   -3    6      3.08      0.00
    0   -3    6      1.29      0.00
    2   -3    6     -0.36      0.00
    3   -3    6      0.31      0.00
  -13   -2    6     -0.06      0.00
   -2   -2    6      2.06      0.00
   -1   -2    6     -0.94      0.00
    0   -2    6      0.22      0.00
    1   -2    6      3.03      0.00
    2   -2    6      0.91      0.00
    5   -2    6     -0.54      0.00
  -14   -1    6      0.04      0.00
  -12   -1    6     -0.33      0.00
   -6   -1    6     -1.16      0.00
    1   -1    6      2.57      0.00
   12   -1    6      0.23      0.00
  -14    0    6     -0.18      0.00
   -4    0    6      1.08      0.00
   -2    0    6      0.06      0.00
    0    0    6     -5.27      0.00
    2    0    6      3.14      0.00
    3    0    6      2.03      0.00
    4    0    6      0.25      0.00
   11    0    6      0.02      0.00
   12    0    6      0.27      0.00
  -14    1    6     -0.37      0.00
    0    1    6     -3.13      0.00
    3    1    6      1.75      0.00
   10    1    6     -0.26      0.00
   11    1    6     -0.37      0.00
   12    1    6     -0.28      0.00
  -12    2    6      0.65      0.00
   -4    2    6      3.17      0.00
   -3    2    6      2.12      0.00
   -2    2    6     -0.70      0.00
    0    2    6     -0.21      0.00
    4    2    6      1.72      0.00
    9    2    6     -0.72      0.00
   10    2    6     -0.15      0.00
   11    2    6     -0.05      0.00
   12    2    6     -0.60      0.00
    1    3    6      0.92      0.00
    9    3    6     -1.07      0.00
   10    3    6     -0.43      0.00
   11    3    6      0.22      0.00
   12    3    6     -0.18      0.00
  -13    4    6      0.52      0.00
   -5    4    6     -1.56      0.00
   -3    4    6      3.36      0.00
   -1    4    6     -2.61      0.00
    1    4    6      1.04      0.00
    2    4    6      0.87      0.00
    3    4    6     -0.02      0.00
    9    4    6     -0.86      0.00
   10    4    6     -0.70      0.00
   11    4    6     -0.22      0.00
   12    4    6      0.10      0.00
  -13    5    6     -0.06      0.00
   10    5    6     -0.41      0.00
   11    5    6     -0.61      0.00
    1    6    6      0.46      0.00
    3    6    6      0.38      0.00
   10    6    6     -0.02      0.00
   11    6    6     -0.45      0.00
  -12    7    6     -0.13      0.00
   11    7    6     -0.18      0.00
  -11    9    6      0.02      0.00
  -10   10    6      0.22      0.00
    9   10    6      0.03      0.00
   -9   11    6      0.28      0.00
    8   11    6      0.02      0.00
   -8   12    6     -0.09      0.00
    6   12    6      0.39      0.00
   -6   13    6      0.08      0.00
    4   13    6     -0.09      0.00
    5   13    6     -0.08      0.00
   -4   14    6     -0.23      0.00
   -3   14    6     -0.71      0.00
   -1   14    6      0.20      0.00
    2   14    6      0.09      0.00
   -4  -14    7     -0.09      0.00
   -3  -14    7      0.13      0.00
   -2  -14    7     -0.24      0.00
   -1  -14    7     -0.27      0.00
    0  -14    7      0.02      0.00
    1  -14    7      0.03      0.00
    3  -14    7      0.11      0.00
   -6  -13    7      0.97      0.00
    5  -13    7     -0.25      0.00
   -8  -12    7     -0.64      0.00
    6  -12    7     -0.42      0.00
    7  -12    7     -0.27      0.00
   -9  -11    7     -0.03      0.00
    8  -11    7     -0.38      0.00
  -10  -10    7     -0.29      0.00
    9  -10    7     -0.09      0.00
  -11   -9    7     -0.78      0.00
  -12   -7    7     -0.67      0.00
   -4   -7    7      0.99      0.00
    2   -7    7      0.51      0.00
   11   -7    7      0.10      0.00
    1   -6    7     -0.34      0.00
   11   -6    7      0.11      0.00
  -13   -5    7      0.04      0.00
   -5   -5    7     -0.75      0.00
   -1   -5    7     -0.13      0.00
   -6   -4    7     -3.13      0.00
   -5   -4    7     -1.55      0.00
   -2   -4    7      2.44      0.00
    0   -4    7      0.41      0.00
   12   -4    7     -0.09      0.00
  -13   -3    7      0.35      0.00
   -1   -3    7      0.21      0.00
    0   -3    7      2.04      0.00
   -4   -2    7      1.65      0.00
   -3   -2    7      2.29      0.00
   -2   -2    7     -0.84      0.00
   -1   -2    7     -2.99      0.00
    4   -2    7     -0.95      0.00
  -14   -1    7      0.29      0.00
  -12   -1    7     -0.30      0.00
   -2   -1    7     -1.94      0.00
    0   -1    7     -2.63      0.00
   11   -1    7      0.31      0.00
   12   -1    7      0.51      0.00
  -14    0    7      0.04      0.00
   -3    0    7      2.09      0.00
   -1    0    7     -4.20      0.00
    3    0    7      1.20      0.00
   11    0    7     -0.18      0.00
   12    0    7      0.25      0.00
  -14    1    7     -0.12      0.00
   -5    1    7      1.98      0.00
   -4    1    7      2.44      0.00
   -2    1    7     -1.45      0.00
    1    1    7     -1.58      0.00
    4    1    7      1.22      0.00
   10    1    7      0.05      0.00
   11    1    7     -0.40      0.00
   12    1    7     -0.39      0.00
   -5    2    7      2.07      0.00
   -4    2    7      4.24      0.00
   -3    2    7      1.03      0.00
   -1    2    7     -1.68      0.00
    1    2    7     -0.35      0.00
    3    2    7     -0.36      0.00
    9    2    7     -0.54      0.00
   10    2    7      0.20      0.00
   11    2    7      0.04      0.00
   12    2    7     -0.59      0.00
   -5    3    7      0.42      0.00
   -3    3    7      2.51      0.00
    9    3    7     -0.70      0.00
   10    3    7     -0.20      0.00
   11    3    7      0.19      0.00
   12    3    7     -0.20      0.00
  -13    4    7      0.09      0.00
   -1    4    7     -1.60      0.00
    0    4    7      0.00      0.00
    1    4    7      1.18      0.00
    2    4    7      1.00      0.00
   10    4    7     -0.54      0.00
   11    4    7     -0.28      0.00
   12    4    7      0.05      0.00
  -13    5    7     -0.19      0.00
   10    5    7     -0.46      0.00
   11    5    7     -0.60      0.00
    0    6    7      1.06      0.00
   10    6    7     -0.32      0.00
   11    6    7     -0.50      0.00
  -12    7    7      0.01      0.00
   10    8    7     -0.09      0.00
  -11    9    7      0.06      0.00
  -10   10    7      0.01      0.00
   -9   11    7     -0.05      0.00
    7   11    7     -0.15      0.00
   -8   12    7     -0.30      0.00
    6   12    7      0.24      0.00
   -6   13    7     -0.02      0.00
    4   13    7      0.26      0.00
   -4   14    7      0.01      0.00
   -3   14    7     -0.26      0.00
   -2   14    7     -0.03      0.00
   -1   14    7      0.29      0.00
    1   14    7      0.16      0.00
    2   14    7      0.04      0.00
   -3  -14    8     -0.13      0.00
   -2  -14    8     -0.52      0.00
   -1  -14    8     -0.29      0.00
    0  -14    8      0.12      0.00
    1  -14    8      0.16      0.00
    2  -14    8      0.24      0.00
   -6  -13    8      0.82      0.00
    5  -13    8     -0.35      0.00
   -8  -12    8     -0.52      0.00
    6  -12    8     -0.40      0.00
   -9  -11    8      0.27      0.00
  -10  -10    8     -0.31      0.00
  -11   -9    8     -0.68      0.00
   10   -8    8     -0.14      0.00
  -12   -7    8     -1.27      0.00
   -5   -6    8      0.62      0.00
   11   -6    8     -0.10      0.00
  -13   -5    8      0.16      0.00
   -4   -5    8      1.60      0.00
   -2   -5    8      1.04      0.00
   -1   -5    8     -0.44      0.00
    2   -4    8     -0.37      0.00
   -4   -3    8      0.68      0.00
   -2   -3    8     -1.73      0.00
    3   -3    8     -0.86      0.00
   12   -3    8      0.36      0.00
   -5   -2    8     -0.46      0.00
   -2   -2    8     -3.44      0.00
    1   -2    8      1.94      0.00
    2   -2    8      0.56      0.00
    3   -2    8     -0.41      0.00
   12   -2    8      0.57      0.00
   -4   -1    8      1.40      0.00
    1   -1    8      0.28      0.00
    4   -1    8     -0.82      0.00
   12   -1    8      0.57      0.00
   -5    0    8      1.84      0.00
   -1    0    8     -2.59      0.00
    1    0    8     -1.94      0.00
    7    0    8      0.32      0.00
   11    0    8     -0.27      0.00
   12    0    8      0.15      0.00
   -5    1    8      3.31      0.00
   -3    1    8     -1.30      0.00
    3    1    8     -0.38      0.00
   10    1    8      0.47      0.00
   11    1    8     -0.26      0.00
   12    1    8     -0.38      0.00
    0    2    8     -0.01      0.00
    1    2    8     -0.55      0.00
    2    2    8     -1.13      0.00
    5    2    8      0.92      0.00
   10    2    8      0.57      0.00
   11    2    8      0.25      0.00
   12    2    8     -0.38      0.00
   -6    3    8     -0.40      0.00
    1    3    8      0.55      0.00
   10    3    8      0.08      0.00
   11    3    8      0.31      0.00
   12    3    8     -0.03      0.00
  -13    4    8     -0.56      0.00
   -4    4    8      0.11      0.00
   -2    4    8     -0.55      0.00
   -1    4    8     -0.01      0.00
    0    4    8      0.88      0.00
    4    4    8     -1.48      0.00
   10    4    8     -0.29      0.00
   11    4    8     -0.09      0.00
  -13    5    8     -0.33      0.00
   10    5    8     -0.38      0.00
   11    5    8     -0.34      0.00
   -5    6    8      1.22      0.00
   -3    6    8     -0.87      0.00
    4    6    8     -0.14      0.00
   10    6    8     -0.41      0.00
   11    6    8     -0.36      0.00
  -12    7    8      0.17      0.00
  -11    9    8     -0.09      0.00
    9    9    8      0.13      0.00
  -10   10    8     -0.18      0.00
    8   10    8      0.05      0.00
   -9   11    8     -0.16      0.00
    7   11    8     -0.24      0.00
   -8   12    8     -0.25      0.00
    6   12    8      0.01      0.00
   -6   13    8     -0.02      0.00
    4   13    8      0.47      0.00
   -3   14    8      0.09      0.00
   -2   14    8      0.10      0.00
   -1   14    8      0.34      0.00
    0   14    8      0.33      0.00
    1   14    8      0.21      0.00
   -3  -14    9     -0.35      0.00
   -2  -14    9     -0.68      0.00
   -1  -14    9     -0.23      0.00
    0  -14    9      0.20      0.00
    1  -14    9      0.27      0.00
   -6  -13    9      0.56      0.00
    4  -13    9     -0.32      0.00
   -7  -12    9     -0.68      0.00
    6  -12    9     -0.15      0.00
   -9  -11    9      0.49      0.00
    7  -11    9     -0.13      0.00
  -10  -10    9     -0.19      0.00
    8  -10    9      0.09      0.00
    9   -9    9     -0.19      0.00
  -11   -8    9     -0.31      0.00
  -12   -7    9     -1.63      0.00
   -4   -6    9      1.83      0.00
  -13   -5    9      0.05      0.00
   -4   -5    9      1.02      0.00
   -2   -5    9     -0.27      0.00
  -13   -4    9     -0.25      0.00
   -5   -3    9     -0.43      0.00
   -3   -3    9     -1.80      0.00
    2   -3    9     -0.06      0.00
    4   -3    9     -1.00      0.00
   -4   -2    9     -0.12      0.00
   -3   -2    9     -2.23      0.00
   -1   -2    9     -3.22      0.00
    2   -2    9      0.61      0.00
   -5   -1    9      1.29      0.00
   -3   -1    9     -2.29      0.00
   -1   -1    9     -2.59      0.00
    1   -1    9     -0.92      0.00
    3   -1    9      0.73      0.00
   12   -1    9      0.43      0.00
    0    0    9     -0.88      0.00
    5    0    9     -0.33      0.00
   11    0    9     -0.33      0.00
   12    0    9      0.04      0.00
  -12    1    9     -0.04      0.00
   -6    1    9      0.60      0.00
   -1    1    9     -0.72      0.00
    1    1    9     -1.49      0.00
   10    1    9      0.72      0.00
   11    1    9     -0.08      0.00
   12    1    9     -0.26      0.00
   -2    2    9     -2.42      0.00
    2    2    9     -0.37      0.00
    4    2    9     -0.06      0.00
   10    2    9      0.76      0.00
   11    2    9      0.49      0.00
   -2    3    9     -0.75      0.00
    0    3    9      0.21      0.00
   10    3    9      0.31      0.00
   11    3    9      0.53      0.00
  -13    4    9     -1.20      0.00
   -5    4    9      1.43      0.00
   -3    4    9     -1.46      0.00
    2    4    9      0.24      0.00
    3    4    9     -0.73      0.00
    4    4    9     -0.90      0.00
   10    4    9      0.04      0.00
   11    4    9      0.24      0.00
  -13    5    9     -0.44      0.00
   10    5    9     -0.10      0.00
   11    5    9      0.03      0.00
    1    6    9      0.59      0.00
   10    6    9     -0.19      0.00
  -12    7    9      0.28      0.00
   10    7    9     -0.12      0.00
  -11    9    9     -0.26      0.00
  -10   10    9     -0.17      0.00
    8   10    9     -0.22      0.00
   -9   11    9     -0.02      0.00
    7   11    9     -0.28      0.00
   -7   12    9     -0.33      0.00
    5   12    9      0.25      0.00
   -6   13    9      0.06      0.00
    3   13    9      0.44      0.00
   -2   14    9      0.05      0.00
   -1   14    9      0.33      0.00
    0   14    9      0.32      0.00
   -2  -14   10     -0.57      0.00
   -1  -14   10     -0.09      0.00
    0  -14   10      0.23      0.00
   -5  -13   10     -0.06      0.00
    4  -13   10     -0.23      0.00
   -7  -12   10     -0.65      0.00
    7  -11   10      0.06      0.00
    8  -10   10      0.05      0.00
  -11   -8   10     -0.26      0.00
    9   -8   10     -0.61      0.00
  -12   -7   10     -1.63      0.00
   10   -7   10     -0.34      0.00
  -12   -6   10     -1.33      0.00
    1   -5   10     -0.14      0.00
   11   -5   10     -0.17      0.00
  -13   -4   10     -0.55      0.00
   -1   -3   10     -1.08      0.00
   -5   -2   10      0.61      0.00
   -3   -2   10     -3.18      0.00
   -2   -2   10     -3.13      0.00
    1   -2   10      0.41      0.00
   -2   -1   10     -2.32      0.00
    5   -1   10     -0.23      0.00
   -1    0   10      0.33      0.00
   11    0   10     -0.36      0.00
   -4    1   10      1.19      0.00
   -2    1   10     -1.62      0.00
   11    1   10      0.09      0.00
    1    2   10      0.30      0.00
    3    2   10     -0.60      0.00
   10    2   10      0.74      0.00
   11    2   10      0.69      0.00
   -4    3   10     -1.04      0.00
   -3    3   10     -0.67      0.00
    2    3   10     -0.03      0.00
   10    3   10      0.46      0.00
   11    3   10      0.71      0.00
  -13    4   10     -1.53      0.00
   -1    4   10      1.67      0.00
    0    4   10      1.06      0.00
    1    4   10     -0.03      0.00
    2    4   10     -0.46      0.00
   10    4   10      0.40      0.00
   11    4   10      0.51      0.00
  -13    5   10     -0.40      0.00
   -5    5   10      1.41      0.00
   -3    5   10     -1.53      0.00
    2    5   10     -0.32      0.00
   10    5   10      0.31      0.00
   -2    6   10     -0.55      0.00
   10    6   10      0.20      0.00
  -12    7   10      0.35      0.00
    9    8   10      0.19      0.00
    8    9   10      0.20      0.00
    6   11   10     -0.05      0.00
   -7   12   10     -0.31      0.00
    5   12   10     -0.01      0.00
   -5   13   10      0.36      0.00
    2   13   10      0.07      0.00
    3   13   10      0.32      0.00
   -5  -13   11     -0.06      0.00
    2  -13   11      0.03      0.00
    3  -13   11     -0.02      0.00
   -7  -12   11     -0.43      0.00
    5  -12   11      0.24      0.00
   -8  -11   11      0.08      0.00
    7  -10   11      0.01      0.00
  -11   -8   11     -0.31      0.00
    9   -8   11     -0.63      0.00
  -12   -6   11     -0.85      0.00
    0   -6   11      0.16      0.00
    2   -6   11      0.22      0.00
   10   -6   11     -0.08      0.00
    0   -5   11      0.65      0.00
  -13   -4   11     -0.58      0.00
   -1   -4   11      0.53      0.00
   11   -4   11      0.06      0.00
   -2   -3   11     -1.57      0.00
    3   -3   11      0.17      0.00
    4   -3   11     -0.37      0.00
   11   -3   11      0.24      0.00
   -3   -2   11     -2.76      0.00
   11   -2   11      0.26      0.00
   -5   -1   11      2.04      0.00
   -4   -1   11     -0.92      0.00
   -3   -1   11     -2.51      0.00
   -2   -1   11     -0.72      0.00
    2   -1   11     -0.39      0.00
    4   -1   11      0.78      0.00
   -2    0   11     -0.66      0.00
   11    0   11     -0.33      0.00
   -5    1   11      1.06      0.00
    2    1   11      0.00      0.00
    3    1   11     -0.11      0.00
   11    1   11      0.20      0.00
   -1    2   11      0.62      0.00
   10    2   11      0.65      0.00
   11    2   11      0.73      0.00
   -5    3   11     -0.45      0.00
    3    3   11     -0.80      0.00
   10    3   11      0.58      0.00
   11    3   11      0.70      0.00
  -13    4   11     -1.38      0.00
   -2    4   11      0.06      0.00
   10    4   11      0.70      0.00
   10    5   11      0.64      0.00
   10    6   11      0.50      0.00
  -11    8   11      0.29      0.00
    8    9   11      0.24      0.00
    7   10   11     -0.58      0.00
   -8   11   11     -0.25      0.00
    6   11   11      0.09      0.00
   -7   12   11     -0.31      0.00
   -6   12   11      0.01      0.00
    4   12   11     -0.25      0.00
   -5   13   11      0.09      0.00
   -4   13   11     -0.50      0.00
   -3   13   11     -0.55      0.00
    0   13   11      0.06      0.00
    2   13   11      0.09      0.00
   -4  -13   12     -0.18      0.00
    0  -13   12     -0.26      0.00
    1  -13   12     -0.46      0.00
    2  -13   12     -0.55      0.00
   -6  -12   12     -0.53      0.00
    4  -12   12      0.23      0.00
   -8  -11   12      0.01      0.00
    6  -11   12     -0.05      0.00
   -9  -10   12     -0.66      0.00
    7  -10   12     -0.18      0.00
  -10   -9   12     -0.36      0.00
    8   -9   12     -0.52      0.00
  -11   -8   12     -0.38      0.00
    9   -7   12     -0.12      0.00
  -12   -6   12     -0.35      0.00
   -4   -5   12     -0.80      0.00
    4   -5   12     -0.39      0.00
   10   -5   12      0.10      0.00
  -13   -4   12     -0.39      0.00
   -6   -3   12      1.77      0.00
    0   -3   12      1.37      0.00
    2   -3   12      1.45      0.00
   -2   -2   12      0.52      0.00
   11   -2   12      0.24      0.00
   -5   -1   12      1.47      0.00
   11   -1   12     -0.08      0.00
   -5    0   12      0.65      0.00
   11    0   12     -0.24      0.00
  -12    1   12      0.56      0.00
   -1    1   12      0.07      0.00
    0    1   12     -0.05      0.00
    1    1   12      0.51      0.00
   11    1   12      0.21      0.00
  -13    3   12     -2.12      0.00
   -2    3   12      1.32      0.00
   -1    3   12      1.41      0.00
   10    3   12      0.63      0.00
  -13    4   12     -0.83      0.00
   -1    4   12      0.37      0.00
   10    4   12      0.79      0.00
   -4    5   12      0.34      0.00
   10    5   12      0.70      0.00
  -12    6   12      0.83      0.00
    9    7   12      0.56      0.00
  -11    8   12      0.34      0.00
    8    8   12      0.39      0.00
  -10    9   12      0.64      0.00
    6    9   12     -0.53      0.00
    7    9   12     -0.12      0.00
   -9   10   12      0.21      0.00
   -8   11   12     -0.47      0.00
    5   11   12     -0.02      0.00
   -6   12   12      0.02      0.00
    4   12   12     -0.44      0.00
   -4   13   12     -0.72      0.00
   -3   13   12     -0.47      0.00
   -2   13   12     -0.03      0.00
   -1   13   12     -0.14      0.00
    0   13   12     -0.16      0.00
    1   13   12     -0.02      0.00
   -4  -13   13     -0.20      0.00
   -3  -13   13      0.09      0.00
   -2  -13   13     -0.29      0.00
   -1  -13   13     -0.71      0.00
    0  -13   13     -0.68      0.00
    1  -13   13     -0.97      0.00
   -6  -12   13     -0.52      0.00
    2  -12   13     -1.61      0.00
    3  -12   13     -0.54      0.00
    4  -12   13      0.17      0.00
   -8  -11   13      0.16      0.00
   -7  -11   13      0.84      0.00
    5  -11   13      0.01      0.00
   -9  -10   13     -0.60      0.00
  -10   -9   13     -0.32      0.00
    8   -8   13     -0.31      0.00
  -11   -7   13      0.50      0.00
    9   -7   13      0.18      0.00
  -12   -6   13     -0.04      0.00
    9   -6   13      0.16      0.00
   -4   -4   13     -1.38      0.00
    2   -4   13      0.27      0.00
   10   -4   13      0.29      0.00
  -13   -3   13      0.63      0.00
   -1   -3   13      1.71      0.00
    1   -3   13      0.23      0.00
  -13   -2   13      0.85      0.00
   -5   -2   13      0.60      0.00
    0   -2   13      0.50      0.00
   -1   -1   13      1.24      0.00
   -1    0   13     -0.11      0.00
    1    0   13     -0.06      0.00
   -4    1   13     -1.05      0.00
   -2    1   13      1.60      0.00
   -1    1   13     -0.04      0.00
  -13    2   13     -1.12      0.00
  -13    3   13     -1.34      0.00
   -4    3   13     -1.59      0.00
   -2    4   13     -0.37      0.00
   10    4   13      0.65      0.00
    9    6   13      0.58      0.00
    8    8   13      0.24      0.00
  -10    9   13      0.33      0.00
    7    9   13      0.07      0.00
   -9   10   13     -0.27      0.00
    6   10   13     -0.03      0.00
   -7   11   13     -0.35      0.00
    5   11   13      0.07      0.00
   -6   12   13      0.03      0.00
   -5   12   13     -0.41      0.00
    3   12   13     -0.68      0.00
   -2   13   13     -0.04      0.00
   -1   13   13     -0.32      0.00
   -2  -13   14     -0.37      0.00
   -1  -13   14     -0.76      0.00
   -6  -12   14     -0.43      0.00
   -5  -12   14     -0.45      0.00
    2  -12   14     -1.30      0.00
    3  -12   14     -0.27      0.00
   -7  -11   14      0.89      0.00
    5  -11   14     -0.21      0.00
   -8  -10   14      0.24      0.00
    6  -10   14     -0.17      0.00
    7   -9   14     -0.11      0.00
    8   -8   14     -0.11      0.00
  -11   -7   14      1.19      0.00
    9   -6   14      0.44      0.00
   -1   -5   14      0.45      0.00
    9   -5   14      0.31      0.00
   -2   -3   14      0.78      0.00
   10   -3   14      0.52      0.00
  -13   -2   14      0.75      0.00
   -1   -2   14      1.04      0.00
   10   -2   14      0.22      0.00
  -13   -1   14      0.52      0.00
   -4   -1   14      0.48      0.00
   10   -1   14     -0.21      0.00
  -13    0   14      0.58      0.00
   -2    0   14      0.59      0.00
   10    0   14     -0.03      0.00
  -13    1   14      0.18      0.00
    0    1   14     -0.72      0.00
   10    1   14      0.40      0.00
  -13    2   14     -0.61      0.00
   -2    2   14      1.69      0.00
   10    2   14      0.45      0.00
    1    3   14     -0.31      0.00
   10    3   14      0.39      0.00
    9    5   14      0.45      0.00
  -11    7   14      0.39      0.00
    8    7   14     -0.14      0.00
    7    8   14      0.48      0.00
    6    9   14     -0.15      0.00
   -8   10   14     -0.76      0.00
    5   10   14      0.07      0.00
   -7   11   14     -0.12      0.00
    4   11   14     -0.27      0.00
   -5   12   14     -0.29      0.00
    0   12   14      0.09      0.00
    1   12   14     -0.04      0.00
    2   12   14     -0.34      0.00
   -5  -12   15     -0.10      0.00
   -4  -12   15      0.07      0.00
   -3  -12   15      0.43      0.00
    0  -12   15     -0.86      0.00
    1  -12   15     -0.86      0.00
    2  -12   15     -0.54      0.00
   -7  -11   15      0.59      0.00
    3  -11   15      0.24      0.00
    4  -11   15      0.25      0.00
   -8  -10   15      0.55      0.00
    5  -10   15      0.16      0.00
  -10   -8   15      0.08      0.00
    8   -7   15     -0.04      0.00
  -12   -5   15     -0.94      0.00
    9   -5   15      0.56      0.00
   -2   -2   15      0.13      0.00
  -13   -1   15      0.06      0.00
  -13    0   15      0.19      0.00
    2    0   15      0.48      0.00
  -13    1   15      0.10      0.00
    9    4   15      0.53      0.00
  -12    5   15      0.47      0.00
    8    6   15     -0.25      0.00
  -11    7   15     -0.01      0.00
  -10    8   15     -0.53      0.00
    7    8   15      0.26      0.00
   -9    9   15     -0.87      0.00
    6    9   15     -0.09      0.00
   -8   10   15     -0.50      0.00
    5   10   15     -0.09      0.00
   -6   11   15      0.12      0.00
    3   11   15     -0.27      0.00
   -4   12   15      0.16      0.00
   -3   12   15     -0.06      0.00
   -2   12   15     -0.35      0.00
   -1   12   15     -0.03      0.00
    0   12   15      0.10      0.00
    1   12   15     -0.04      0.00
   -4  -12   16      0.28      0.00
   -3  -12   16      0.72      0.00
   -2  -12   16      0.63      0.00
   -1  -12   16     -0.14      0.00
    0  -12   16     -0.27      0.00
    1  -12   16     -0.11      0.00
   -6  -11   16     -0.25      0.00
    2  -11   16      0.41      0.00
    3  -11   16      0.58      0.00
   -8  -10   16      0.55      0.00
   -7  -10   16      0.39      0.00
    4  -10   16      0.41      0.00
    5  -10   16      0.32      0.00
   -9   -9   16      0.19      0.00
    6   -9   16      0.49      0.00
  -10   -8   16      0.41      0.00
    7   -8   16     -0.11      0.00
  -11   -6   16      1.58      0.00
    8   -6   16      0.14      0.00
  -12   -4   16     -1.25      0.00
    9   -4   16      0.55      0.00
    9   -3   16      0.31      0.00
    8    0   16      0.04      0.00
    9    1   16      0.42      0.00
    9    2   16      0.49      0.00
    9    3   16      0.48      0.00
    8    5   16     -0.26      0.00
  -11    6   16     -0.01      0.00
    7    7   16     -0.21      0.00
  -10    8   16     -0.72      0.00
    6    8   16      0.23      0.00
   -9    9   16     -0.63      0.00
    5    9   16     -0.24      0.00
    4   10   16     -0.32      0.00
   -6   11   16      0.12      0.00
   -5   11   16      0.18      0.00
    1   11   16     -0.12      0.00
    2   11   16      0.02      0.00
   -5  -11   17      0.58      0.00
   -2  -11   17      0.88      0.00
    1  -11   17      0.59      0.00
    2  -11   17      0.73      0.00
   -7  -10   17      0.10      0.00
    3  -10   17      0.51      0.00
    4  -10   17      0.35      0.00
   -8   -9   17      0.11      0.00
    5   -9   17      0.70      0.00
    6   -8   17      0.33      0.00
  -10   -7   17      1.49      0.00
    7   -7   17     -0.29      0.00
  -11   -6   17      1.05      0.00
  -11   -5   17     -0.27      0.00
    8   -5   17      0.51      0.00
    8   -4   17      0.40      0.00
  -12   -3   17     -0.27      0.00
    8   -2   17     -0.68      0.00
    9   -1   17     -0.40      0.00
    9    0   17      0.04      0.00
  -12    1   17      0.34      0.00
    8    3   17      0.51      0.00
    8    4   17      0.02      0.00
  -11    5   17      0.35      0.00
    7    6   17     -0.36      0.00
  -10    7   17     -0.49      0.00
    6    7   17      0.01      0.00
   -9    8   17     -0.01      0.00
    5    8   17      0.06      0.00
   -8    9   17      0.34      0.00
    4    9   17     -0.62      0.00
   -7   10   17      0.22      0.00
   -6   10   17      0.23      0.00
    3   10   17     -0.07      0.00
   -5   11   17      0.14      0.00
   -4   11   17     -0.24      0.00
   -3   11   17     -0.42      0.00
   -2   11   17      0.11      0.00
   -1   11   17      0.03      0.00
    0   11   17     -0.41      0.00
    1   11   17     -0.08      0.00
   -4  -11   18      0.65      0.00
   -3  -11   18      0.48      0.00
   -2  -11   18      0.39      0.00
    0  -11   18      0.21      0.00
    1  -11   18      0.65      0.00
   -6  -10   18     -0.14      0.00
    2  -10   18      0.60      0.00
    3  -10   18      0.20      0.00
   -8   -9   18      0.02      0.00
   -9   -8   18     -0.03      0.00
  -10   -7   18      1.24      0.00
    6   -7   18     -0.47      0.00
    7   -6   18     -0.06      0.00
  -11   -5   18     -0.34      0.00
    7   -5   18     -0.02      0.00
    8   -3   18     -0.29      0.00
  -12   -2   18      0.23      0.00
  -12   -1   18      0.36      0.00
    8   -1   18     -0.17      0.00
  -12    0   18      0.41      0.00
    0    0   18      0.26      0.00
    8    0   18      0.38      0.00
  -12    1   18      0.12      0.00
    8    1   18      0.48      0.00
  -12    2   18      0.08      0.00
    8    2   18      0.42      0.00
    8    3   18      0.24      0.00
  -11    4   18      0.57      0.00
  -11    5   18      0.29      0.00
    7    5   18     -0.37      0.00
    6    7   18     -0.20      0.00
   -9    8   18      0.29      0.00
    5    8   18      0.12      0.00
   -7    9   18      0.27      0.00
    4    9   18     -0.52      0.00
   -6   10   18      0.20      0.00
   -5   10   18     -0.08      0.00
    2   10   18      0.11      0.00
   -3   11   18     -0.12      0.00
   -2   11   18      0.36      0.00
   -1   11   18     -0.15      0.00
   -2  -11   19     -0.15      0.00
   -6  -10   19      0.01      0.00
   -5  -10   19      0.52      0.00
    1  -10   19      0.39      0.00
    2  -10   19      0.15      0.00
   -7   -9   19      0.36      0.00
   -8   -8   19     -0.31      0.00
    5   -8   19     -0.08      0.00
   -9   -7   19      0.88      0.00
  -10   -6   19      0.37      0.00
    6   -5   19     -0.66      0.00
  -11   -4   19     -0.17      0.00
    7   -4   19      0.00      0.00
  -11   -3   19      0.05      0.00
    7   -3   19     -0.21      0.00
    7    2   19      0.17      0.00
  -11    3   19      0.15      0.00
    7    3   19     -0.07      0.00
  -11    4   19      0.62      0.00
    7    4   19     -0.38      0.00
  -10    6   19      0.09      0.00
    6    6   19     -0.28      0.00
   -9    7   19      0.63      0.00
    5    7   19      0.17      0.00
   -8    8   19      0.37      0.00
    4    8   19     -0.19      0.00
   -7    9   19      0.16      0.00
   -6    9   19      0.12      0.00
    3    9   19     -0.29      0.00
   -5   10   19     -0.21      0.00
   -4   10   19     -0.33      0.00
   -3   10   19      0.41      0.00
   -2   10   19      0.47      0.00
   -1   10   19     -0.45      0.00
    0   10   19     -0.66      0.00
    1   10   19     -0.23      0.00
   -4  -10   20      0.43      0.00
   -3  -10   20      0.15      0.00
   -2  -10   20     -0.50      0.00
   -1  -10   20     -0.63      0.00
    0  -10   20     -0.04      0.00
   -6   -9   20     -0.10      0.00
    2   -9   20     -0.56      0.00
   -8   -8   20     -0.39      0.00
   -7   -8   20     -0.38      0.00
    4   -8   20     -0.54      0.00
   -9   -7   20      0.40      0.00
    4   -7   20     -1.00      0.00
    5   -7   20     -0.83      0.00
   -9   -6   20      0.04      0.00
  -10   -5   20      0.00      0.00
    6   -5   20     -0.21      0.00
  -11   -3   20     -0.01      0.00
    7   -3   20     -0.23      0.00
  -11   -2   20     -0.16      0.00
    7   -2   20     -0.07      0.00
    7   -1   20      0.20      0.00
    7    0   20      0.15      0.00
    7    1   20      0.02      0.00
  -11    2   20     -0.34      0.00
    7    2   20     -0.03      0.00
  -11    3   20      0.45      0.00
  -10    4   20      0.41      0.00
    6    4   20     -0.31      0.00
  -10    5   20      0.30      0.00
   -9    6   20      0.45      0.00
    5    6   20     -0.12      0.00
   -8    7   20     -0.15      0.00
    4    7   20      0.42      0.00
   -7    8   20     -0.21      0.00
    3    8   20     -0.54      0.00
   -6    9   20      0.11      0.00
   -5    9   20     -0.25      0.00
   -4    9   20     -0.06      0.00
    1    9   20     -0.21      0.00
   -2   10   20      0.34      0.00
   -5   -9   21      0.03      0.00
   -4   -9   21      0.02      0.00
    1   -9   21     -0.06      0.00
   -7   -8   21     -0.56      0.00
   -6   -8   21     -0.43      0.00
    3   -8   21     -0.87      0.00
   -8   -7   21     -0.68      0.00
    4   -7   21     -0.83      0.00
   -9   -6   21     -0.59      0.00
    4   -6   21     -0.63      0.00
   -9   -5   21     -0.48      0.00
    5   -5   21     -0.08      0.00
  -10   -4   21      0.14      0.00
    6   -4   21      0.07      0.00
    6   -3   21      0.04      0.00
    6   -2   21     -0.19      0.00
    6   -1   21     -0.62      0.00
    6    0   21     -0.73      0.00
  -10    2   21      0.00      0.00
    6    2   21     -0.28      0.00
  -10    3   21      0.37      0.00
    6    3   21     -0.34      0.00
  -10    4   21      0.48      0.00
    5    5   21     -0.05      0.00
   -8    6   21     -0.56      0.00
    4    6   21      0.33      0.00
   -8    7   21     -0.50      0.00
   -7    7   21     -0.60      0.00
    3    7   21     -0.18      0.00
   -6    8   21     -0.02      0.00
   -5    8   21     -0.25      0.00
    2    8   21     -0.10      0.00
   -4    9   21      0.06      0.00
   -3    9   21      0.58      0.00
   -2    9   21      0.24      0.00
   -1    9   21     -0.33      0.00
    0    9   21     -0.54      0.00
   -3   -9   22     -0.25      0.00
   -2   -9   22     -0.30      0.00
   -1   -9   22      0.07      0.00
   -6   -8   22     -0.15      0.00
   -5   -8   22      0.32      0.00
    1   -8   22      0.41      0.00
   -7   -7   22     -0.06      0.00
   -6   -7   22      0.21      0.00
    2   -7   22     -0.16      0.00
    3   -7   22     -0.57      0.00
   -8   -6   22     -0.76      0.00
    3   -6   22     -0.27      0.00
    4   -6   22     -0.23      0.00
   -9   -5   22     -0.44      0.00
    4   -5   22      0.17      0.00
    5   -4   22      0.32      0.00
  -10   -3   22     -0.10      0.00
    5   -3   22     -0.04      0.00
  -10   -2   22     -0.18      0.00
  -10    1   22      0.09      0.00
  -10    2   22      0.13      0.00
    5    2   22     -0.45      0.00
    5    3   22     -0.20      0.00
   -9    4   22      0.34      0.00
   -8    5   22     -0.46      0.00
    4    5   22      0.03      0.00
   -8    6   22     -0.63      0.00
   -7    6   22     -0.49      0.00
    3    6   22      0.14      0.00
   -7    7   22     -0.25      0.00
   -6    7   22      0.02      0.00
    2    7   22     -0.54      0.00
   -5    8   22     -0.37      0.00
   -4    8   22     -0.15      0.00
   -3    8   22      0.23      0.00
   -2    8   22      0.17      0.00
   -1    8   22     -0.31      0.00
    0    8   22     -0.39      0.00
   -4   -8   23     -0.18      0.00
   -3   -8   23     -0.49      0.00
   -2   -8   23     -0.37      0.00
   -1   -8   23      0.08      0.00
    0   -8   23      0.77      0.00
   -6   -7   23      0.49      0.00
   -5   -7   23      0.45      0.00
    1   -7   23      0.62      0.00
   -7   -6   23      0.45      0.00
    2   -6   23      0.21      0.00
   -8   -5   23      0.05      0.00
    3   -5   23      0.35      0.00
    4   -4   23      0.53      0.00
   -9   -3   23     -0.16      0.00
    4   -3   23      0.19      0.00
   -9   -2   23     -0.49      0.00
    2   -1   23      1.29      0.00
    5   -1   23     -0.79      0.00
   -9    0   23     -0.17      0.00
    5    0   23     -0.47      0.00
   -9    1   23      0.28      0.00
   -9    2   23      0.06      0.00
   -9    3   23      0.07      0.00
    4    3   23      0.01      0.00
   -8    4   23     -0.31      0.00
    3    4   23     -0.10      0.00
   -8    5   23     -0.25      0.00
   -7    5   23     -0.07      0.00
    2    5   23     -0.42      0.00
    3    5   23     -0.03      0.00
   -7    6   23      0.07      0.00
   -6    6   23      0.44      0.00
    1    6   23     -0.46      0.00
    2    6   23     -0.47      0.00
   -5    7   23     -0.25      0.00
   -4    7   23     -0.29      0.00
   -3    7   23     -0.05      0.00
   -1    7   23     -0.28      0.00
    0    7   23     -0.04      0.00
   -4   -7   24     -0.02      0.00
   -3   -7   24      0.04      0.00
   -2   -7   24      0.03      0.00
   -1   -7   24     -0.20      0.00
    0   -7   24      0.23      0.00
   -6   -6   24      0.40      0.00
    0   -6   24     -0.12      0.00
    1   -6   24      0.26      0.00
   -7   -5   24      0.58      0.00
    2   -5   24      0.30      0.00
   -8   -4   24     -0.13      0.00
    1   -4   24     -0.90      0.00
    3   -4   24      0.72      0.00
   -8   -3   24     -0.62      0.00
    3   -3   24      0.72      0.00
   -8   -2   24     -0.46      0.00
   -9   -1   24     -0.57      0.00
    2   -1   24      1.56      0.00
    4   -1   24     -0.32      0.00
   -9    0   24     -0.07      0.00
    4    0   24     -0.32      0.00
    4    1   24     -0.26      0.00
   -8    2   24      0.26      0.00
    3    2   24     -0.16      0.00
   -8    3   24     -0.13      0.00
    3    3   24     -0.03      0.00
    2    4   24     -0.37      0.00
   -7    5   24      0.47      0.00
   -6    5   24      0.72      0.00
    1    5   24     -0.41      0.00
   -5    6   24      0.10      0.00
   -4    6   24     -0.22      0.00
   -2    6   24     -0.13      0.00
   -1    6   24      0.02      0.00
    0    6   24      0.09      0.00
   -4   -6   25     -0.19      0.00
   -3   -6   25      0.31      0.00
   -2   -6   25      0.59      0.00
   -1   -6   25     -0.15      0.00
   -6   -5   25      0.48      0.00
   -5   -5   25      0.18      0.00
   -4   -5   25     -0.24      0.00
   -1   -5   25      0.04      0.00
    0   -5   25     -0.83      0.00
    1   -5   25     -0.43      0.00
   -6   -4   25      0.83      0.00
    0   -4   25     -0.91      0.00
    1   -4   25     -0.76      0.00
   -7   -3   25     -0.07      0.00
    1   -3   25     -0.15      0.00
    2   -3   25      0.51      0.00
   -7   -2   25     -0.01      0.00
    2   -2   25      1.07      0.00
   -8   -1   25      0.29      0.00
   -7   -1   25      0.35      0.00
    3   -1   25      0.18      0.00
   -8    0   25      0.41      0.00
    3    0   25     -0.07      0.00
   -8    1   25      0.41      0.00
    2    1   25      0.31      0.00
   -7    2   25     -0.36      0.00
    1    2   25      0.38      0.00
    2    2   25      0.01      0.00
   -7    3   25     -0.11      0.00
   -4    3   25      1.38      0.00
    1    3   25     -0.03      0.00
    2    3   25     -0.13      0.00
   -6    4   25      0.44      0.00
    0    4   25      0.41      0.00
    1    4   25     -0.20      0.00
   -5    5   25      0.27      0.00
   -4    5   25      0.11      0.00
   -3    5   25      0.11      0.00
   -2    5   25      0.02      0.00
   -1    5   25      0.38      0.00
    0    5   25      0.17      0.00
   -5   -4   26      0.05      0.00
   -4   -4   26     -0.53      0.00
   -3   -4   26     -0.47      0.00
   -2   -4   26      0.02      0.00
   -1   -4   26     -0.04      0.00
    0   -4   26     -0.58      0.00
   -6   -3   26      0.72      0.00
   -5   -3   26     -0.27      0.00
   -4   -3   26     -1.14      0.00
   -3   -3   26     -0.90      0.00
   -2   -3   26     -0.62      0.00
   -1   -3   26     -0.53      0.00
    0   -3   26     -0.15      0.00
   -6   -2   26      0.56      0.00
   -5   -2   26     -0.30      0.00
    0   -2   26     -0.04      0.00
    1   -2   26      0.98      0.00
   -6   -1   26      0.28      0.00
    0   -1   26      0.04      0.00
    1   -1   26      1.06      0.00
   -6    0   26      0.08      0.00
   -5    0   26     -0.16      0.00
    1    0   26      0.81      0.00
   -6    1   26      0.13      0.00
   -5    1   26      0.35      0.00
    0    1   26      0.78      0.00
    1    1   26      0.56      0.00
   -6    2   26      0.11      0.00
   -5    2   26      1.05      0.00
   -1    2   26      0.55      0.00
    0    2   26      0.61      0.00
    1    2   26      0.26      0.00
   -5    3   26      0.89      0.00
   -4    3   26      0.93      0.00
   -3    3   26      0.04      0.00
   -2    3   26      0.26      0.00
   -1    3   26      0.77      0.00
    0    3   26      0.39      0.00
   -4    4   26      0.44      0.00
   -3    4   26      0.10      0.00
   -2    4   26      0.20      0.00
   -4   -2   27     -0.86      0.00
   -3   -2   27     -0.60      0.00
   -2   -2   27     -0.57      0.00
   -4   -1   27     -0.37      0.00
   -3   -1   27     -0.44      0.00
   -2   -1   27     -0.40      0.00
   -1   -1   27     -0.31      0.00
   -4    0   27     -0.13      0.00
   -3    0   27     -0.21      0.00
   -2    0   27     -0.30      0.00
   -1    0   27      0.16      0.00
   -4    1   27     -0.11      0.00
   -3    1   27     -0.12      0.00
   -2    1   27     -0.11      0.00
   -1    1   27      0.28      0.00
   -3    2   27     -0.12      0.00
    0    0    0      0.00      0.00
# SQUEEZE RESULTS (Version = 140518)
# Note: Data are Listed for all Voids in the P1 Unit Cell
# i.e. Centre of Gravity, Solvent Accessible Volume,
# Recovered number of Electrons in the Void and
# Details about the Squeezed Material
loop_
  _platon_squeeze_void_nr
  _platon_squeeze_void_average_x
  _platon_squeeze_void_average_y
  _platon_squeeze_void_average_z
  _platon_squeeze_void_volume
  _platon_squeeze_void_count_electrons
  _platon_squeeze_void_content
   1  0.000  0.000  0.000       154        17 ' '
# Missing Reflections Below sin(th)/lambda = 0.25
loop_
  _platon_missing_refln_index_h
  _platon_missing_refln_index_k
  _platon_missing_refln_index_l
  _platon_missing_refln_theta
    1    0    0     2.159
    2    0    0     4.321
    3    0    0     6.489
   -4    1    0     8.869
   -3    1    0     6.763
   -2    1    0     4.733
    0    1    0     1.982
    2    1    0     4.778
    3    1    0     6.811
   -3    2    0     7.571
   -1    2    0     4.493
    0    2    0     3.966
    2    2    0     5.907
   -2    3    0     7.323
   -1    3    0     6.312
    0    3    0     5.955
    1    3    0     6.363
    2    3    0     7.411
   -3    4    0    10.226
   -2    4    0     9.015
   -1    4    0     8.217
    0    4    0     7.952
    1    4    0     8.269
   -1    5    0    10.167
    0    5    0     9.958
    0   -5    1     9.994
   -2   -4    1     9.050
   -3   -3    1     8.768
   -2   -3    1     7.343
    3   -3    1     8.986
   -4   -2    1     9.439
   -3   -2    1     7.533
    2   -2    1     6.082
   -4   -1    1     8.763
   -3   -1    1     6.681
   -1   -1    1     2.978
    0   -1    1     2.249
    1   -1    1     3.252
    2   -1    1     5.045
    3   -1    1     7.056
   -3    0    1     6.360
   -1    0    1     2.221
    0    0    1     1.110
    3    0    1     6.801
   -4    1    1     8.725
   -2    1    1     4.670
    0    1    1     2.294
    1    1    1     3.316
    2    1    1     5.108
   -4    2    1     9.369
    1    2    1     4.799
    2    2    1     6.186
    4    2    1     9.865
   -2    3    1     7.297
   -1    3    1     6.358
    0    3    1     6.084
    1    3    1     6.558
    2    3    1     7.643
    0    4    1     8.056
    1    4    1     8.428
   -1    5    1    10.206
   -1   -4    2     8.402
   -1   -3    2     6.549
    1   -3    2     6.791
    2   -3    2     7.865
   -4   -2    2     9.420
   -2   -2    2     5.965
   -1   -2    2     4.820
    3   -2    2     8.229
   -4   -1    2     8.749
   -1   -1    2     3.392
    3   -1    2     7.505
   -4    0    2     8.504
   -3    0    2     6.425
   -1    0    2     2.770
    0    0    2     2.220
    1    0    2     3.393
    2    0    2     5.241
   -4    1    2     8.723
   -2    1    2     4.869
   -1    1    2     3.422
    2    1    2     5.643
    4    1    2     9.621
   -3    3    2     8.757
    1    3    2     6.929
    2    3    2     8.026
    3    3    2     9.505
   -2    4    2     9.122
   -1    4    2     8.450
    2    4    2     9.632
   -2   -4    3     9.337
   -1   -4    3     8.686
    0   -4    3     8.556
    1   -4    3     8.968
   -1   -3    3     6.916
    1   -3    3     7.279
   -4   -2    3     9.534
   -2   -2    3     6.296
   -1   -2    3     5.315
    0   -2    3     5.122
   -1   -1    3     4.077
    0   -1    3     3.837
    2   -1    3     6.247
    4   -1    3    10.067
   -4    0    3     8.642
   -2    0    3     4.902
    1    0    3     4.319
    2    0    3     5.966
   -3    1    3     6.967
   -1    1    3     4.126
    1    1    3     4.797
    2    1    3     6.331
    3    1    3     8.163
   -3    2    3     7.774
   -1    2    3     5.391
    0    2    3     5.243
    1    2    3     5.940
    3    2    3     8.901
   -3    3    3     8.963
   -1    3    3     7.004
    2    3    3     8.539
    3    3    3     9.994
    0    4    3     8.702
   -1   -4    4     9.101
    0   -4    4     9.030
    1   -4    4     9.474
   -3   -3    4     9.270
   -2   -3    4     8.115
   -1   -3    4     7.433
    0   -3    4     7.355
    1   -3    4     7.897
    2   -3    4     8.950
   -3   -2    4     8.130
   -1   -2    4     5.979
    0   -2    4     5.891
   -2   -1    4     5.875
    1   -1    4     5.630
    3   -1    4     8.770
   -3    0    4     7.098
   -1    0    4     4.536
    0    0    4     4.443
    1    0    4     5.317
    2    0    4     6.798
    1    1    4     5.723
    2    1    4     7.129
    3    1    4     8.855
   -2    2    4     6.856
   -1    2    4     6.082
    0    2    4     6.031
    1    2    4     6.719
   -2    3    4     8.189
    0    3    4     7.524
   -2   -4    5    10.125
   -3   -2    5     8.615
   -1   -2    5     6.764
    1   -2    5     7.416
    2   -2    5     8.590
    3   -2    5    10.108
   -3   -1    5     7.904
    0   -1    5     5.858
    1   -1    5     6.613
    2   -1    5     7.911
   -4    0    5     9.323
    0    0    5     5.557
    1    0    5     6.356
    2    0    5     7.704
    3    0    5     9.374
   -2    1    5     6.653
   -3    2    5     8.661
   -2    2    5     7.515
   -1    2    5     6.885
    0    2    5     6.910
    2    2    5     8.762
    0    4    5     9.829
   -3   -3    6    10.225
    0   -3    6     8.856
   -2   -2    6     8.174
   -1   -2    6     7.633
    0   -2    6     7.691
    1   -2    6     8.335
    2   -2    6     9.450
    1   -1    6     7.634
   -4    0    6     9.840
   -2    0    6     7.193
    0    0    6     6.673
    2    0    6     8.662
    3    0    6    10.228
    0    1    6     7.009
   -3    2    6     9.277
   -2    2    6     8.274
    0    2    6     7.852
    1    3    6     9.651
   -1   -3    7     9.625
    0   -3    7     9.716
   -3   -2    7     9.900
   -2   -2    7     8.995
   -1   -2    7     8.562
   -2   -1    7     8.334
    0   -1    7     7.997
   -3    0    7     9.102
   -1    0    7     7.658
   -2    1    7     8.396
    1    1    7     8.778
   -3    2    7     9.983
   -1    2    7     8.707
    1    2    7     9.481
   -2   -2    8     9.877
    1   -1    8     9.749
   -1    0    8     8.740
    1    0    8     9.591
   -3    1    8    10.161
    0    2    8     9.855
   -1   -1    9     9.994
    0    0    9    10.038
   -1    1    9    10.078
_platon_squeeze_void_probe_radius                  1.20
_platon_squeeze_details
)
TITL 2         P -1         R = 0.08
CELL    9.6284   10.2786   18.7313     91.23    101.53     90.46
SPGR P-1
# Solvent Accessible Volume =       154
# Electrons Found in S.A.V. =        17
# Note: Atoms in Void are Labelled as Cxxx and Qxxx for all Others
C101 0.186 0.019 0.106 !       2.27 eA-3
Q102 0.176 0.470 0.488 !       2.14 eA-3
Q103 0.747 0.937 0.138 !       2.06 eA-3
Q104 0.129 0.527 0.479 !       2.00 eA-3
C105 0.876 0.157 0.042 !       1.91 eA-3
Q106 0.665 0.910 0.141 !       1.69 eA-3
Q107 0.196 0.530 0.485 !       1.68 eA-3
Q108 0.715 0.870 0.162 !       1.65 eA-3
Q109 0.755 0.211 0.112 !       1.41 eA-3
Q110 0.792 0.218 0.094 !       1.33 eA-3
Q111 0.619 0.442 0.233 !       1.32 eA-3
Q112 0.438 0.210 0.122 !       1.21 eA-3
Q113 0.749 0.315 0.237 !       1.21 eA-3
Q114 0.869 0.039 0.419 !       1.20 eA-3
Q115 0.586 0.375 0.233 !       1.07 eA-3
Q116 0.158 0.029 0.391 !       1.03 eA-3
Q117 0.719 0.344 0.281 !       0.96 eA-3
Q118 0.920 0.471 0.467 !       0.86 eA-3
Q119 0.256 0.499 0.438 !       0.86 eA-3
Q120 0.911 0.771 0.489 !       0.85 eA-3
Q121 0.498 0.149 0.482 !       0.84 eA-3
Q122 0.533 0.215 0.169 !       0.83 eA-3
Q123 1.000 0.091 0.182 !       0.82 eA-3
Q124 0.061 0.976 0.163 !       0.82 eA-3
Q125 0.378 0.440 0.095 !       0.82 eA-3
Q126 0.339 0.389 0.261 !       0.81 eA-3
Q127 0.622 0.184 0.108 !       0.78 eA-3
Q128 0.625 0.407 0.184 !       0.77 eA-3
Q129 0.648 0.215 0.203 !       0.76 eA-3
Q130 0.206 0.092 0.386 !       0.75 eA-3
Q131 0.366 0.938 0.253 !       0.74 eA-3
Q132 0.376 0.849 0.128 !       0.73 eA-3
Q133 0.658 0.813 0.346 !       0.72 eA-3
Q134 0.598 0.372 0.284 !       0.72 eA-3
Q135 1.001 0.402 0.202 !       0.71 eA-3
C136 0.970 0.060 0.089 !       0.70 eA-3
Q137 0.719 0.405 0.328 !       0.70 eA-3
Q138 0.653 0.904 0.080 !       0.69 eA-3
C139 0.198 0.846 0.051 !       0.68 eA-3
C140 0.060 0.998 0.111 !       0.68 eA-3
C141 0.060 0.937 0.062 !       0.67 eA-3
Q142 0.061 0.723 0.248 !       0.67 eA-3
Q143 0.929 0.597 0.393 !       0.67 eA-3
Q144 0.356 0.498 0.113 !       0.67 eA-3
C145 0.066 0.154 0.111 !       0.66 eA-3
Q146 0.029 0.479 0.439 !       0.66 eA-3
Q147 0.605 0.433 0.488 !       0.66 eA-3
Q148 0.033 0.565 0.467 !       0.66 eA-3
Q149 0.717 0.780 0.140 !       0.66 eA-3
Q150 0.196 0.313 0.281 !       0.65 eA-3
Q151 0.630 0.846 0.095 !       0.65 eA-3
Q152 0.283 0.466 0.486 !       0.65 eA-3
C153 0.999 0.032 0.137 !       0.65 eA-3
C154 0.064 0.996 0.069 !       0.65 eA-3
Q155 0.530 0.433-0.001 !       0.64 eA-3
Q156 0.536 0.352 0.483 !       0.64 eA-3
Q157 0.131 0.876 0.481 !       0.64 eA-3
C158 0.122 0.073 0.029 !       0.63 eA-3
Q159 0.598 0.600 0.049 !       0.63 eA-3
Q160 0.745 0.059 0.001 !       0.63 eA-3
Q161 1.006 0.061 0.485 !       0.63 eA-3
Q162 0.251 0.743 0.184 !       0.62 eA-3
Q163 0.283 0.975 0.241 !       0.62 eA-3
Q164 0.096 0.412 0.498 !       0.62 eA-3
Q165 0.904 0.440 0.404 !       0.62 eA-3
Q166 0.025 0.249 0.345 !       0.61 eA-3
Q167 0.973 0.568 0.427 !       0.61 eA-3
Q168 0.586 1.006 0.154 !       0.61 eA-3
Q169 0.568 0.698 0.047 !       0.60 eA-3
Q170 0.348 0.872 0.077 !       0.60 eA-3
Q171 0.156 0.688 0.046 !       0.60 eA-3
Q172 0.463 0.657 0.032 !       0.59 eA-3
C173 0.161 0.902 0.062 !       0.59 eA-3
Q174 0.565 0.032 0.421 !       0.59 eA-3
Q175 0.969 0.881 0.045 !       0.59 eA-3
Q176 0.698 0.475 0.215 !       0.59 eA-3
Q177 0.684 0.027 0.108 !       0.59 eA-3
Q178 0.125 0.403 0.438 !       0.59 eA-3
Q179 0.522 0.448 0.216 !       0.59 eA-3
Q180 0.754 0.746 0.012 !       0.58 eA-3
Q181 0.816 0.056 0.092 !       0.58 eA-3
Q182 0.411 0.284 0.450 !       0.58 eA-3
Q183 0.813 0.388 0.170 !       0.58 eA-3
Q184 0.833 0.771 0.013 !       0.58 eA-3
Q185 0.752 0.910 0.220 !       0.57 eA-3
Q186 0.159 0.783 0.468 !       0.57 eA-3
Q187 0.625 0.311 0.202 !       0.57 eA-3
Q188 0.800 0.432 0.004 !       0.57 eA-3
Q189 0.971 0.721 0.263 !       0.57 eA-3
Q190 0.934 0.588 0.140 !       0.57 eA-3
Q191 0.303 0.403 0.428 !       0.57 eA-3
Q192 0.440 0.971 0.042 !       0.57 eA-3
Q193 0.345 0.810 0.203 !       0.57 eA-3
Q194 0.499 0.777 0.032 !       0.57 eA-3
Q195 0.214 0.444 0.048 !       0.56 eA-3
Q196 0.282 0.188 0.372 !       0.56 eA-3
Q197 0.410 0.226 0.424 !       0.56 eA-3
Q198 0.165 0.467 0.017 !       0.56 eA-3
Q199 0.819 0.971 0.265 !       0.56 eA-3
)
;
_shelx_fab_checksum              62764
_olex2_submission_special_instructions 'No special instructions were received'
loop_
_space_group_symop_operation_xyz
'x, y, z'
'-x, -y, -z'
loop_
_atom_site_label
_atom_site_type_symbol
_atom_site_fract_x
_atom_site_fract_y
_atom_site_fract_z
_atom_site_U_iso_or_equiv
_atom_site_adp_type
_atom_site_occupancy
_atom_site_site_symmetry_order
_atom_site_calc_flag
_atom_site_refinement_flags_posn
_atom_site_refinement_flags_adp
_atom_site_refinement_flags_occupancy
_atom_site_disorder_assembly
_atom_site_disorder_group
Cd1 Cd 0.32055(4) 0.62136(3) 0.76181(2) 0.02571(12) Uani 1 1 d . . . . .
Cl2 Cl 0.83785(9) 0.48828(10) 0.51869(5) 0.02026(19) Uani 1 1 d . . . . .
Cl1 Cl 0.70424(12) 0.91450(9) 1.14785(5) 0.0246(2) Uani 1 1 d . . . . .
O2 O 0.4428(5) 0.6701(4) 0.6657(2) 0.0405(9) Uani 1 1 d . . . . .
N1 N 0.1968(4) 0.4656(4) 0.8134(2) 0.0286(8) Uani 1 1 d . . . . .
N2 N 0.0278(5) 0.3275(4) 0.8313(2) 0.0307(8) Uani 1 1 d . . . . .
O1 O 0.2982(5) 0.5004(4) 0.6482(2) 0.0429(9) Uani 1 1 d . . . . .
N5 N -0.2924(5) -0.0395(4) 0.5479(2) 0.0322(8) Uani 1 1 d . . . . .
N4 N -0.2357(6) 0.1190(5) 0.4771(3) 0.0402(10) Uani 1 1 d . . . . .
N3 N -0.4755(4) 0.4898(4) 0.7964(2) 0.0313(8) Uani 1 1 d . . . . .
N6 N 0.1059(5) -0.2752(5) 0.7107(2) 0.0358(9) Uani 1 1 d . . . . .
O3 O 0.3561(9) 0.7655(6) 0.8547(3) 0.0807(19) Uani 1 1 d . . . . .
C11 C -0.2324(5) 0.3375(5) 0.8110(3) 0.0285(9) Uani 1 1 d . . . . .
C8 C 0.6460(5) 0.4937(4) 0.5060(2) 0.0269(9) Uani 1 1 d . . . . .
C37 C -0.3533(5) -0.0753(5) 0.4764(3) 0.0306(10) Uani 1 1 d . . . . .
C6 C 0.4423(5) 0.5370(4) 0.5605(2) 0.0271(9) Uani 1 1 d . . . . .
C27 C -0.1557(6) -0.1691(5) 0.6468(3) 0.0340(10) Uani 1 1 d . . . . .
C32 C -0.3211(6) 0.0229(5) 0.4331(3) 0.0365(11) Uani 1 1 d . . . . .
C7 C 0.5882(5) 0.5301(5) 0.5660(2) 0.0284(9) Uani 1 1 d . . . . .
H7 H 0.648222 0.549899 0.610403 0.034 Uiso 1 1 calc R . . . .
C25 C -0.2246(6) 0.0770(5) 0.5428(3) 0.0361(11) Uani 1 1 d . . . . .
C00L C 0.0986(5) 0.3661(5) 0.8993(3) 0.0294(9) Uani 1 1 d . . . . .
C15 C -0.3615(6) 0.2860(5) 0.8220(3) 0.0333(10) Uani 1 1 d . . . . .
H15 H -0.368242 0.199646 0.834862 0.040 Uiso 1 1 calc R . . . .
C10 C -0.1052(6) 0.2509(5) 0.8176(3) 0.0337(10) Uani 1 1 d . . . . .
H10A H -0.104402 0.191479 0.857180 0.040 Uiso 1 1 calc R . . . .
H10B H -0.111880 0.199578 0.772932 0.040 Uiso 1 1 calc R . . . .
C26 C -0.2976(6) -0.1120(5) 0.6122(3) 0.0364(11) Uani 1 1 d . . . . .
H26A H -0.366837 -0.182100 0.599606 0.044 Uiso 1 1 calc R . . . .
H26B H -0.329199 -0.055178 0.647675 0.044 Uiso 1 1 calc R . . . .
C16 C 0.2044(5) 0.4520(5) 0.8878(3) 0.0293(9) Uani 1 1 d . . . . .
C28 C -0.0523(6) -0.1979(6) 0.6065(3) 0.0373(11) Uani 1 1 d . . . . .
H28 H -0.068729 -0.180482 0.557012 0.045 Uiso 1 1 calc R . . . .
C5 C 0.3888(6) 0.5727(5) 0.6294(3) 0.0310(10) Uani 1 1 d . . . . .
C9 C 0.0895(5) 0.3895(4) 0.7818(2) 0.0252(8) Uani 1 1 d . . . . .
C12 C -0.2291(6) 0.4679(5) 0.7941(3) 0.0342(10) Uani 1 1 d . . . . .
H12 H -0.145426 0.506625 0.787014 0.041 Uiso 1 1 calc R . . . .
C13 C -0.3522(6) 0.5404(5) 0.7878(3) 0.0340(10) Uani 1 1 d . . . . .
H13 H -0.348265 0.628074 0.777028 0.041 Uiso 1 1 calc R . . . .
C21 C 0.0397(6) 0.3643(5) 0.7022(3) 0.0312(9) Uani 1 1 d . . . . .
H21A H 0.071212 0.434892 0.675523 0.037 Uiso 1 1 calc R . . . .
H21B H -0.063158 0.361974 0.690909 0.037 Uiso 1 1 calc R . . . .
C29 C 0.0748(6) -0.2523(6) 0.6398(3) 0.0389(12) Uani 1 1 d . . . . .
H29 H 0.140822 -0.273630 0.611498 0.047 Uiso 1 1 calc R . . . .
C4 C 0.5862(6) 0.9639(5) 1.0630(3) 0.0343(10) Uani 1 1 d . . . . .
C23 C 0.0074(6) 0.1834(6) 0.6039(3) 0.0390(12) Uani 1 1 d . . . . .
H23A H 0.006602 0.248593 0.567154 0.047 Uiso 1 1 calc R . . . .
H23B H 0.052333 0.106329 0.588623 0.047 Uiso 1 1 calc R . . . .
C3 C 0.5664(7) 0.8816(5) 1.0035(3) 0.0407(12) Uani 1 1 d . . . . .
H3 H 0.611867 0.801821 1.006496 0.049 Uiso 1 1 calc R . . . .
C2 C 0.4801(7) 0.9158(5) 0.9395(3) 0.0407(12) Uani 1 1 d . . . . .
C24 C -0.1455(7) 0.1493(6) 0.6088(3) 0.0424(12) Uani 1 1 d . . . . .
H24A H -0.144540 0.096818 0.651261 0.051 Uiso 1 1 calc R . . . .
H24B H -0.195233 0.229012 0.615343 0.051 Uiso 1 1 calc R . . . .
C36 C -0.4338(6) -0.1839(5) 0.4468(3) 0.0395(12) Uani 1 1 d . . . . .
H36 H -0.455889 -0.249249 0.476378 0.047 Uiso 1 1 calc R . . . .
C14 C -0.4787(5) 0.3654(5) 0.8133(3) 0.0327(10) Uani 1 1 d . . . . .
H14 H -0.564276 0.329614 0.819729 0.039 Uiso 1 1 calc R . . . .
C20 C 0.0816(7) 0.3326(6) 0.9695(3) 0.0434(13) Uani 1 1 d . . . . .
H20 H 0.009475 0.276662 0.976688 0.052 Uiso 1 1 calc R . . . .
C33 C -0.3637(7) 0.0165(6) 0.3587(3) 0.0402(12) Uani 1 1 d . . . . .
H33 H -0.339882 0.082690 0.330046 0.048 Uiso 1 1 calc R . . . .
C22 C 0.0956(6) 0.2356(6) 0.6774(3) 0.0405(12) Uani 1 1 d . . . . .
H22A H 0.094236 0.171284 0.714413 0.049 Uiso 1 1 calc R . . . .
H22B H 0.193247 0.247963 0.672552 0.049 Uiso 1 1 calc R . . . .
C34 C -0.4428(6) -0.0906(6) 0.3269(3) 0.0415(12) Uani 1 1 d . . . . .
H34 H -0.471803 -0.097331 0.276520 0.050 Uiso 1 1 calc R . . . .
C35 C -0.4797(7) -0.1913(6) 0.3722(4) 0.0477(14) Uani 1 1 d . . . . .
H35 H -0.535047 -0.261892 0.351037 0.057 Uiso 1 1 calc R . . . .
C31 C -0.1230(7) -0.1940(7) 0.7199(3) 0.0447(14) Uani 1 1 d . . . . .
H31 H -0.188603 -0.176206 0.749032 0.054 Uiso 1 1 calc R . . . .
C17 C 0.3000(7) 0.5065(6) 0.9470(3) 0.0427(13) Uani 1 1 d . . . . .
H17 H 0.371786 0.563224 0.940380 0.051 Uiso 1 1 calc R . . . .
C30 C 0.0084(7) -0.2460(7) 0.7507(3) 0.0451(14) Uani 1 1 d . . . . .
H30 H 0.029177 -0.260860 0.800462 0.054 Uiso 1 1 calc R . . . .
C18 C 0.2834(9) 0.4723(8) 1.0169(3) 0.0585(18) Uani 1 1 d . . . . .
H18 H 0.345183 0.507623 1.057399 0.070 Uiso 1 1 calc R . . . .
C19 C 0.1777(9) 0.3873(8) 1.0271(3) 0.0555(17) Uani 1 1 d . . . . .
H19 H 0.171008 0.366328 1.074341 0.067 Uiso 1 1 calc R . . . .
O4 O 0.5662(10) 0.8135(7) 0.8437(3) 0.096(3) Uani 1 1 d . . . . .
C1 C 0.4716(12) 0.8260(6) 0.8719(4) 0.068(3) Uani 1 1 d . . . . .
loop_
_atom_site_aniso_label
_atom_site_aniso_U_11
_atom_site_aniso_U_22
_atom_site_aniso_U_33
_atom_site_aniso_U_23
_atom_site_aniso_U_13
_atom_site_aniso_U_12
Cd1 0.02740(19) 0.02714(17) 0.02246(17) -0.00410(11) 0.00514(11) 0.00094(11)
Cl2 0.0044(4) 0.0376(5) 0.0186(4) -0.0050(4) 0.0027(3) 0.0001(3)
Cl1 0.0376(6) 0.0185(4) 0.0126(4) 0.0023(3) -0.0078(3) 0.0047(4)
O2 0.060(3) 0.0345(18) 0.0288(18) -0.0017(14) 0.0122(17) 0.0027(17)
N1 0.029(2) 0.0333(19) 0.0241(18) -0.0017(15) 0.0071(14) -0.0035(15)
N2 0.029(2) 0.0306(19) 0.031(2) 0.0046(16) 0.0021(15) 0.0030(15)
O1 0.049(2) 0.049(2) 0.035(2) -0.0022(17) 0.0207(17) -0.0070(18)
N5 0.029(2) 0.032(2) 0.033(2) -0.0003(16) 0.0010(16) 0.0012(16)
N4 0.052(3) 0.033(2) 0.034(2) -0.0024(17) 0.007(2) -0.0118(19)
N3 0.022(2) 0.040(2) 0.031(2) -0.0011(17) 0.0032(15) 0.0014(16)
N6 0.038(2) 0.037(2) 0.031(2) 0.0012(17) 0.0023(17) 0.0083(18)
O3 0.119(6) 0.052(3) 0.056(3) -0.017(3) -0.014(3) -0.006(3)
C11 0.024(2) 0.031(2) 0.031(2) -0.0028(17) 0.0060(17) -0.0017(16)
C8 0.033(2) 0.0249(19) 0.025(2) 0.0019(16) 0.0102(17) 0.0026(16)
C37 0.029(2) 0.026(2) 0.034(2) -0.0030(18) -0.0010(18) 0.0080(17)
C6 0.037(3) 0.0238(19) 0.0228(19) -0.0035(16) 0.0124(17) -0.0008(17)
C27 0.035(3) 0.031(2) 0.034(2) -0.0015(19) 0.0029(19) 0.0012(19)
C32 0.040(3) 0.031(2) 0.038(3) -0.007(2) 0.006(2) -0.002(2)
C7 0.034(2) 0.031(2) 0.0214(19) -0.0006(16) 0.0075(17) 0.0023(18)
C25 0.035(3) 0.031(2) 0.041(3) -0.005(2) 0.004(2) -0.0012(19)
C00L 0.032(2) 0.034(2) 0.024(2) -0.0004(17) 0.0073(17) 0.0061(18)
C15 0.030(3) 0.030(2) 0.040(3) 0.0011(19) 0.008(2) -0.0064(18)
C10 0.029(2) 0.028(2) 0.045(3) 0.004(2) 0.009(2) 0.0020(18)
C26 0.032(3) 0.036(2) 0.042(3) 0.004(2) 0.010(2) 0.003(2)
C16 0.025(2) 0.037(2) 0.026(2) -0.0031(18) 0.0055(17) 0.0003(18)
C28 0.040(3) 0.050(3) 0.021(2) 0.002(2) 0.0025(18) 0.009(2)
C5 0.037(3) 0.034(2) 0.025(2) -0.0022(17) 0.0126(18) 0.0061(19)
C9 0.023(2) 0.028(2) 0.0243(19) -0.0008(16) 0.0045(15) 0.0008(16)
C12 0.034(3) 0.031(2) 0.039(3) 0.0024(19) 0.011(2) -0.0007(19)
C13 0.040(3) 0.029(2) 0.033(2) 0.0006(19) 0.008(2) -0.0006(19)
C21 0.032(2) 0.032(2) 0.026(2) -0.0044(18) -0.0012(17) -0.0012(18)
C29 0.041(3) 0.041(3) 0.037(3) 0.005(2) 0.012(2) 0.013(2)
C4 0.041(3) 0.029(2) 0.031(2) -0.0033(18) 0.005(2) -0.0004(19)
C23 0.033(3) 0.051(3) 0.033(2) -0.017(2) 0.007(2) 0.003(2)
C3 0.057(4) 0.029(2) 0.035(3) -0.009(2) 0.009(2) 0.002(2)
C2 0.062(4) 0.027(2) 0.031(2) -0.0127(19) 0.004(2) 0.001(2)
C24 0.047(3) 0.045(3) 0.034(3) -0.013(2) 0.007(2) -0.011(2)
C36 0.037(3) 0.028(2) 0.051(3) 0.001(2) 0.001(2) -0.0007(19)
C14 0.025(2) 0.039(2) 0.036(2) -0.007(2) 0.0120(19) -0.0055(18)
C20 0.052(4) 0.048(3) 0.034(3) 0.009(2) 0.018(2) 0.004(3)
C33 0.044(3) 0.035(3) 0.040(3) -0.003(2) 0.005(2) 0.000(2)
C22 0.036(3) 0.048(3) 0.034(3) -0.008(2) -0.001(2) 0.011(2)
C34 0.039(3) 0.045(3) 0.036(3) -0.015(2) -0.002(2) 0.005(2)
C35 0.047(3) 0.031(2) 0.058(4) -0.012(2) -0.004(3) -0.002(2)
C31 0.040(3) 0.060(4) 0.037(3) 0.006(3) 0.014(2) 0.019(3)
C17 0.051(3) 0.048(3) 0.025(2) -0.005(2) -0.001(2) -0.005(2)
C30 0.045(3) 0.064(4) 0.027(2) 0.009(2) 0.008(2) 0.019(3)
C18 0.075(5) 0.069(4) 0.025(3) -0.013(3) -0.003(3) -0.007(4)
C19 0.073(5) 0.070(4) 0.024(3) 0.004(3) 0.012(3) 0.001(4)
O4 0.159(7) 0.082(4) 0.052(3) -0.029(3) 0.037(4) 0.036(5)
C1 0.130(8) 0.033(3) 0.028(3) -0.010(2) -0.014(4) 0.017(4)
loop_
_atom_type_symbol
_atom_type_description
_atom_type_scat_dispersion_real
_atom_type_scat_dispersion_imag
_atom_type_scat_source
C C 0.0033 0.0016 'International Tables Vol C Tables 4.2.6.8 and 6.1.1.4'
H H 0.0000 0.0000 'International Tables Vol C Tables 4.2.6.8 and 6.1.1.4'
Cd Cd -0.8075 1.2024 'International Tables Vol C Tables 4.2.6.8 and 6.1.1.4'
Cl Cl 0.1484 0.1585 'International Tables Vol C Tables 4.2.6.8 and 6.1.1.4'
N N 0.0061 0.0033 'International Tables Vol C Tables 4.2.6.8 and 6.1.1.4'
O O 0.0106 0.0060 'International Tables Vol C Tables 4.2.6.8 and 6.1.1.4'
loop_
_geom_angle_atom_site_label_1
_geom_angle_atom_site_label_2
_geom_angle_atom_site_label_3
_geom_angle
_geom_angle_site_symmetry_1
_geom_angle_site_symmetry_3
_geom_angle_publ_flag
O2 Cd1 O1 54.44(14) . . ?
O2 Cd1 C5 27.23(15) . . ?
N1 Cd1 O2 146.49(14) . . ?
N1 Cd1 O1 93.46(14) . . ?
N1 Cd1 N3 87.02(15) . 1_655 ?
N1 Cd1 N6 90.66(16) . 1_565 ?
N1 Cd1 C5 119.96(15) . . ?
O1 Cd1 C5 27.25(15) . . ?
N3 Cd1 O2 80.24(15) 1_655 . ?
N3 Cd1 O1 82.87(15) 1_655 . ?
N3 Cd1 C5 79.38(15) 1_655 . ?
N6 Cd1 O2 96.56(16) 1_565 . ?
N6 Cd1 O1 87.55(16) 1_565 . ?
N6 Cd1 N3 169.98(15) 1_565 1_655 ?
N6 Cd1 C5 93.40(15) 1_565 . ?
O3 Cd1 O2 114.9(2) . . ?
O3 Cd1 N1 97.8(2) . . ?
O3 Cd1 O1 168.5(2) . . ?
O3 Cd1 N3 100.0(2) . 1_655 ?
O3 Cd1 N6 90.0(2) . 1_565 ?
O3 Cd1 C5 142.0(2) . . ?
C5 O2 Cd1 91.2(3) . . ?
C16 N1 Cd1 124.9(3) . . ?
C9 N1 Cd1 129.1(3) . . ?
C9 N1 C16 104.9(4) . . ?
C00L N2 C10 123.8(4) . . ?
C9 N2 C00L 107.6(4) . . ?
C9 N2 C10 127.9(4) . . ?
C5 O1 Cd1 90.5(3) . . ?
C37 N5 C26 126.8(5) . . ?
C25 N5 C37 104.8(4) . . ?
C25 N5 C26 128.4(5) . . ?
C25 N4 C32 103.9(5) . . ?
C13 N3 Cd1 116.7(3) . 1_455 ?
C14 N3 Cd1 124.7(3) . 1_455 ?
C14 N3 C13 117.8(4) . . ?
C29 N6 Cd1 120.0(4) . 1_545 ?
C29 N6 C30 118.1(5) . . ?
C30 N6 Cd1 121.8(3) . 1_545 ?
C1 O3 Cd1 120.2(6) . . ?
C15 C11 C10 119.6(4) . . ?
C12 C11 C15 117.3(5) . . ?
C12 C11 C10 123.1(5) . . ?
C6 C8 Cl2 122.2(3) 2_666 . ?
C6 C8 C7 120.2(4) 2_666 . ?
C7 C8 Cl2 117.6(4) . . ?
N5 C37 C36 131.7(5) . . ?
C32 C37 N5 106.7(4) . . ?
C32 C37 C36 121.6(5) . . ?
C8 C6 C7 118.9(4) 2_666 . ?
C8 C6 C5 123.7(4) 2_666 . ?
C7 C6 C5 117.3(4) . . ?
C28 C27 C26 122.1(5) . . ?
C31 C27 C26 121.1(5) . . ?
C31 C27 C28 116.8(5) . . ?
C37 C32 N4 109.6(5) . . ?
C33 C32 N4 128.9(5) . . ?
C33 C32 C37 121.5(5) . . ?
C8 C7 H7 119.5 . . ?
C6 C7 C8 121.0(4) . . ?
C6 C7 H7 119.5 . . ?
N5 C25 C24 121.8(5) . . ?
N4 C25 N5 115.1(5) . . ?
N4 C25 C24 123.2(5) . . ?
N2 C00L C16 105.5(4) . . ?
N2 C00L C20 132.1(5) . . ?
C16 C00L C20 122.4(5) . . ?
C11 C15 H15 120.5 . . ?
C14 C15 C11 119.1(5) . . ?
C14 C15 H15 120.5 . . ?
N2 C10 C11 111.4(4) . . ?
N2 C10 H10A 109.3 . . ?
N2 C10 H10B 109.3 . . ?
C11 C10 H10A 109.3 . . ?
C11 C10 H10B 109.3 . . ?
H10A C10 H10B 108.0 . . ?
N5 C26 C27 113.2(4) . . ?
N5 C26 H26A 108.9 . . ?
N5 C26 H26B 108.9 . . ?
C27 C26 H26A 108.9 . . ?
C27 C26 H26B 108.9 . . ?
H26A C26 H26B 107.8 . . ?
N1 C16 C00L 109.8(4) . . ?
N1 C16 C17 130.1(5) . . ?
C00L C16 C17 120.1(5) . . ?
C27 C28 H28 119.8 . . ?
C29 C28 C27 120.3(5) . . ?
C29 C28 H28 119.8 . . ?
O2 C5 Cd1 61.5(3) . . ?
O2 C5 O1 123.6(5) . . ?
O2 C5 C6 117.7(5) . . ?
O1 C5 Cd1 62.2(3) . . ?
O1 C5 C6 118.6(5) . . ?
C6 C5 Cd1 173.1(4) . . ?
N1 C9 N2 112.3(4) . . ?
N1 C9 C21 126.9(4) . . ?
N2 C9 C21 120.8(4) . . ?
C11 C12 H12 120.3 . . ?
C11 C12 C13 119.4(5) . . ?
C13 C12 H12 120.3 . . ?
N3 C13 C12 123.0(5) . . ?
N3 C13 H13 118.5 . . ?
C12 C13 H13 118.5 . . ?
C9 C21 H21A 109.3 . . ?
C9 C21 H21B 109.3 . . ?
C9 C21 C22 111.7(4) . . ?
H21A C21 H21B 107.9 . . ?
C22 C21 H21A 109.3 . . ?
C22 C21 H21B 109.3 . . ?
N6 C29 C28 122.4(5) . . ?
N6 C29 H29 118.8 . . ?
C28 C29 H29 118.8 . . ?
C3 C4 Cl1 119.0(4) . . ?
C3 C4 C2 121.4(5) . 2_677 ?
C2 C4 Cl1 119.6(4) 2_677 . ?
H23A C23 H23B 107.8 . . ?
C24 C23 H23A 109.1 . . ?
C24 C23 H23B 109.1 . . ?
C24 C23 C22 112.4(5) . . ?
C22 C23 H23A 109.1 . . ?
C22 C23 H23B 109.1 . . ?
C4 C3 H3 119.8 . . ?
C4 C3 C2 120.4(5) . . ?
C2 C3 H3 119.8 . . ?
C4 C2 C1 122.8(5) 2_677 . ?
C3 C2 C4 118.2(5) . 2_677 ?
C3 C2 C1 118.7(5) . . ?
C25 C24 C23 113.2(5) . . ?
C25 C24 H24A 108.9 . . ?
C25 C24 H24B 108.9 . . ?
C23 C24 H24A 108.9 . . ?
C23 C24 H24B 108.9 . . ?
H24A C24 H24B 107.8 . . ?
C37 C36 H36 121.1 . . ?
C35 C36 C37 117.9(5) . . ?
C35 C36 H36 121.1 . . ?
N3 C14 C15 123.4(5) . . ?
N3 C14 H14 118.3 . . ?
C15 C14 H14 118.3 . . ?
C00L C20 H20 121.8 . . ?
C19 C20 C00L 116.3(6) . . ?
C19 C20 H20 121.8 . . ?
C32 C33 H33 120.6 . . ?
C32 C33 C34 118.8(6) . . ?
C34 C33 H33 120.6 . . ?
C21 C22 C23 112.6(4) . . ?
C21 C22 H22A 109.1 . . ?
C21 C22 H22B 109.1 . . ?
C23 C22 H22A 109.1 . . ?
C23 C22 H22B 109.1 . . ?
H22A C22 H22B 107.8 . . ?
C33 C34 H34 120.1 . . ?
C33 C34 C35 119.7(5) . . ?
C35 C34 H34 120.1 . . ?
C36 C35 C34 120.5(5) . . ?
C36 C35 H35 119.7 . . ?
C34 C35 H35 119.7 . . ?
C27 C31 H31 119.9 . . ?
C27 C31 C30 120.2(5) . . ?
C30 C31 H31 119.9 . . ?
C16 C17 H17 121.3 . . ?
C16 C17 C18 117.4(6) . . ?
C18 C17 H17 121.3 . . ?
N6 C30 C31 122.2(5) . . ?
N6 C30 H30 118.9 . . ?
C31 C30 H30 118.9 . . ?
C17 C18 H18 119.2 . . ?
C19 C18 C17 121.6(6) . . ?
C19 C18 H18 119.2 . . ?
C20 C19 C18 122.2(6) . . ?
C20 C19 H19 118.9 . . ?
C18 C19 H19 118.9 . . ?
O3 C1 C2 113.0(9) . . ?
O4 C1 O3 125.2(7) . . ?
O4 C1 C2 121.7(9) . . ?
loop_
_geom_bond_atom_site_label_1
_geom_bond_atom_site_label_2
_geom_bond_distance
_geom_bond_site_symmetry_2
_geom_bond_publ_flag
Cd1 O2 2.398(4) . ?
Cd1 N1 2.327(4) . ?
Cd1 O1 2.413(4) . ?
Cd1 N3 2.383(4) 1_655 ?
Cd1 N6 2.368(4) 1_565 ?
Cd1 O3 2.233(5) . ?
Cd1 C5 2.727(5) . ?
Cl2 C8 1.816(5) . ?
Cl1 C4 1.844(5) . ?
O2 C5 1.248(7) . ?
N1 C16 1.390(6) . ?
N1 C9 1.323(6) . ?
N2 C00L 1.368(6) . ?
N2 C10 1.473(7) . ?
N2 C9 1.363(6) . ?
O1 C5 1.249(7) . ?
N5 C37 1.392(7) . ?
N5 C25 1.374(7) . ?
N5 C26 1.439(7) . ?
N4 C32 1.418(7) . ?
N4 C25 1.297(7) . ?
N3 C13 1.333(7) . ?
N3 C14 1.326(7) . ?
N6 C29 1.329(7) . ?
N6 C30 1.343(7) . ?
O3 C1 1.251(13) . ?
C11 C15 1.401(7) . ?
C11 C10 1.507(7) . ?
C11 C12 1.386(7) . ?
C8 C6 1.389(7) 2_666 ?
C8 C7 1.396(6) . ?
C37 C32 1.380(8) . ?
C37 C36 1.394(7) . ?
C6 C7 1.390(7) . ?
C6 C5 1.521(6) . ?
C27 C26 1.519(8) . ?
C27 C28 1.394(8) . ?
C27 C31 1.372(8) . ?
C32 C33 1.372(8) . ?
C7 H7 0.9300 . ?
C25 C24 1.495(8) . ?
C00L C16 1.395(7) . ?
C00L C20 1.406(7) . ?
C15 H15 0.9300 . ?
C15 C14 1.383(7) . ?
C10 H10A 0.9700 . ?
C10 H10B 0.9700 . ?
C26 H26A 0.9700 . ?
C26 H26B 0.9700 . ?
C16 C17 1.396(7) . ?
C28 H28 0.9300 . ?
C28 C29 1.386(8) . ?
C9 C21 1.490(6) . ?
C12 H12 0.9300 . ?
C12 C13 1.391(7) . ?
C13 H13 0.9300 . ?
C21 H21A 0.9700 . ?
C21 H21B 0.9700 . ?
C21 C22 1.530(8) . ?
C29 H29 0.9300 . ?
C4 C3 1.365(7) . ?
C4 C2 1.393(7) 2_677 ?
C23 H23A 0.9700 . ?
C23 H23B 0.9700 . ?
C23 C24 1.532(9) . ?
C23 C22 1.549(8) . ?
C3 H3 0.9300 . ?
C3 C2 1.370(8) . ?
C2 C1 1.540(8) . ?
C24 H24A 0.9700 . ?
C24 H24B 0.9700 . ?
C36 H36 0.9300 . ?
C36 C35 1.378(9) . ?
C14 H14 0.9300 . ?
C20 H20 0.9300 . ?
C20 C19 1.380(10) . ?
C33 H33 0.9300 . ?
C33 C34 1.387(8) . ?
C22 H22A 0.9700 . ?
C22 H22B 0.9700 . ?
C34 H34 0.9300 . ?
C34 C35 1.439(10) . ?
C35 H35 0.9300 . ?
C31 H31 0.9300 . ?
C31 C30 1.397(8) . ?
C17 H17 0.9300 . ?
C17 C18 1.402(9) . ?
C30 H30 0.9300 . ?
C18 H18 0.9300 . ?
C18 C19 1.380(12) . ?
C19 H19 0.9300 . ?
O4 C1 1.148(13) . ?
