#------------------------------------------------------------------------------
#$Date: 2020-04-24 01:48:45 +0300 (Fri, 24 Apr 2020) $
#$Revision: 251113 $
#$URL: file:///home/coder/svn-repositories/cod/cif/7/24/03/7240382.cif $
#------------------------------------------------------------------------------
#
# This file is available in the Crystallography Open Database (COD),
# http://www.crystallography.net/
#
# All data on this site have been placed in the public domain by the
# contributors.
#
data_7240382
loop_
_publ_author_name
'Shen, Nan'
'Feng, Tian'
'Chang, Jun'
'Huang, Kunlin'
'Zhang, Zhi-Hui'
'Feng, Xuejun'
'Gu, Jiande'
'Chen, Sheng-Chun'
'He, Mingyang'
'Chen, Qun'
_publ_section_title
;
 An unprecedented cobalt(II)-containing Wells-Dawson-type
 tungstovanadate-based metal-organic framework as efficient catalyst for
 ring-opening polymerization of &#xF065;-caprolactone
;
_journal_name_full               CrystEngComm
_journal_paper_doi               10.1039/D0CE00309C
_journal_year                    2020
_chemical_formula_moiety         'C60 H42 Co3 F20 N30 O64 V2 W18, 26(H2 O)'
_chemical_formula_sum            'C60 H96 Co3 F20 N30 O90 V2 W18'
_chemical_formula_weight         6645.63
_space_group_crystal_system      orthorhombic
_space_group_IT_number           52
_space_group_name_Hall           '-P 2a 2bc'
_space_group_name_H-M_alt        'P n n a'
_atom_sites_solution_hydrogens   geom
_audit_creation_date             2020-04-21
_audit_creation_method
;
Olex2 1.2
(compiled 2018.05.29 svn.r3508 for OlexSys, GUI svn.r5506)
;
_audit_update_record
;
2020-04-22 deposited with the CCDC.	2020-04-22 downloaded from the CCDC.
;
_cell_angle_alpha                90
_cell_angle_beta                 90
_cell_angle_gamma                90
_cell_formula_units_Z            4
_cell_length_a                   24.0649(6)
_cell_length_b                   30.3771(7)
_cell_length_c                   18.2553(5)
_cell_measurement_reflns_used    9504
_cell_measurement_temperature    293(2)
_cell_measurement_theta_max      26.39
_cell_measurement_theta_min      2.43
_cell_volume                     13345.0(6)
_computing_molecular_graphics    'Olex2 (Dolomanov et al., 2009)'
_computing_publication_material  'Olex2 (Dolomanov et al., 2009)'
_computing_structure_refinement  'ShelXL (Sheldrick, 2015)'
_diffrn_ambient_temperature      296.0
_diffrn_measured_fraction_theta_full 0.997
_diffrn_measured_fraction_theta_max 0.990
_diffrn_measurement_device_type  'CCD area detector'
_diffrn_measurement_method       'phi and omega scans'
_diffrn_radiation_type           MoK\a
_diffrn_radiation_wavelength     0.71073
_diffrn_reflns_av_R_equivalents  0.0816
_diffrn_reflns_av_unetI/netI     0.0371
_diffrn_reflns_Laue_measured_fraction_full 0.997
_diffrn_reflns_Laue_measured_fraction_max 0.990
_diffrn_reflns_limit_h_max       29
_diffrn_reflns_limit_h_min       -23
_diffrn_reflns_limit_k_max       37
_diffrn_reflns_limit_k_min       -37
_diffrn_reflns_limit_l_max       22
_diffrn_reflns_limit_l_min       -22
_diffrn_reflns_number            145996
_diffrn_reflns_point_group_measured_fraction_full 0.997
_diffrn_reflns_point_group_measured_fraction_max 0.990
_diffrn_reflns_theta_full        25.242
_diffrn_reflns_theta_max         26.547
_diffrn_reflns_theta_min         2.300
_exptl_absorpt_coefficient_mu    16.082
_exptl_absorpt_correction_T_max  0.0709
_exptl_absorpt_correction_T_min  0.0601
_exptl_absorpt_correction_type   multi-scan
_exptl_absorpt_process_details   sadabs
_exptl_crystal_colour            colourless
_exptl_crystal_colour_primary    colourless
_exptl_crystal_density_diffrn    3.308
_exptl_crystal_description       block
_exptl_crystal_F_000             12100
_exptl_crystal_size_max          0.4
_exptl_crystal_size_mid          0.37
_exptl_crystal_size_min          0.35
_platon_squeeze_details
;
18 water molecules were removed from formula, the formula should be 
{[Co3(Fbtx)5(V2W18O62)(H2O)2] 18H2O}n before SQUEEZE.


TITL a_sq      P n n a      R = 0.07
CELL   24.0649   30.3771   18.2553     90.00     90.00     90.00
SPGR Pnna
# Solvent Accessible Volume =      2598
# Electrons Found in S.A.V. =      1034
# Note: Atoms in Void as Cxxx and Qxxx all others
C101 0.225 0.648 0.249 !       8.74 eA-3
C102 0.381 0.217 0.388 !       7.29 eA-3
C103 0.467 0.750 0.250 !       6.42 eA-3
Q104 0.165 0.767 0.029 !       6.02 eA-3
C105 0.062 0.830 0.204 !       5.93 eA-3
Q106 0.671 0.631 0.455 !       4.90 eA-3
Q107 0.656 0.221 0.392 !       4.88 eA-3
Q108 0.344 0.721 0.892 !       4.88 eA-3
Q109 0.789 0.386 0.246 !       4.86 eA-3
Q110 0.093 0.714 0.895 !       4.84 eA-3
C111 0.024 0.216 0.731 !       4.80 eA-3
C112 0.306 0.855 0.185 !       4.73 eA-3
C113 0.164 0.640 0.169 !       4.64 eA-3
Q114 0.625 0.224 0.390 !       4.59 eA-3
Q115 0.564 0.721 0.110 !       4.47 eA-3
Q116 0.211 0.274 0.467 !       4.31 eA-3
Q117 0.378 0.279 0.889 !       4.27 eA-3
Q118 0.586 0.673 0.295 !       4.23 eA-3
Q119 0.188 0.231 0.609 !       4.10 eA-3
Q120 0.553 0.674 0.293 !       3.94 eA-3
Q121 0.674 0.613 0.271 !       3.88 eA-3
C122 0.304 0.383 0.340 !       3.88 eA-3
C123 0.251 0.921 0.332 !       3.83 eA-3
Q124 0.827 0.331 0.061 !       3.79 eA-3
C125 0.351 0.708 0.238 !       3.76 eA-3
Q126 0.749 0.674 0.060 !       3.76 eA-3
Q127 0.212 0.677 0.920 !       3.75 eA-3
C128 0.250 1.001 0.438 !       3.74 eA-3
Q129 0.656 0.170 0.201 !       3.70 eA-3
Q130 0.807 0.829 0.202 !       3.65 eA-3
Q131 0.907 0.308 0.106 !       3.63 eA-3
Q132 0.833 0.182 0.001 !       3.61 eA-3
Q133 0.624 0.170 0.202 !       3.53 eA-3
Q134 0.378 0.329 0.709 !       3.38 eA-3
Q135 0.783 0.367 0.458 !       3.36 eA-3
C136 0.180 0.038 0.117 !       3.35 eA-3
Q137 0.208 0.374 0.541 !       3.34 eA-3
Q138 0.711 0.307 0.496 !       3.20 eA-3
Q139 0.155 0.255 0.621 !       3.18 eA-3
Q140 0.281 0.226 0.036 !       3.14 eA-3
Q141 0.902 0.177 0.017 !       3.04 eA-3
Q142 0.795 0.411 0.249 !       2.98 eA-3
Q143 0.243 0.265 0.476 !       2.94 eA-3
Q144 0.867 0.183 0.000 !       2.84 eA-3
C145 0.253 0.410 0.220 !       2.78 eA-3
Q146 0.914 0.362 0.293 !       2.71 eA-3
Q147 0.141 0.786 0.002 !       2.65 eA-3
Q148 0.838 0.638 0.317 !       2.58 eA-3
Q149 0.251 0.400 0.553 !       2.56 eA-3
C150 0.267 0.037 0.449 !       2.55 eA-3
Q151 0.711 0.641 0.065 !       2.53 eA-3
C152 0.381 0.250 0.250 !       2.44 eA-3
Q153 0.475 0.800 0.497 !       2.43 eA-3
C154 0.265 0.466 0.324 !       2.38 eA-3
Q155 0.227 0.165 0.031 !       2.38 eA-3
Q156 0.633 0.850 0.010 !       2.37 eA-3
Q157 0.586 0.700 0.305 !       2.31 eA-3
Q158 0.655 0.299 0.302 !       2.30 eA-3
C159 0.671 0.817 0.776 !       2.23 eA-3
Q160 0.069 0.295 0.017 !       2.22 eA-3
Q161 0.248 0.132 0.946 !       2.19 eA-3
Q162 0.795 0.295 0.084 !       2.18 eA-3
Q163 0.702 0.556 0.048 !       2.18 eA-3
Q164 0.311 0.376 0.501 !       2.12 eA-3
Q165 0.258 0.694 0.480 !       2.11 eA-3
Q166 0.178 0.208 0.279 !       2.09 eA-3
C167 0.226 0.964 0.121 !       2.03 eA-3
Q168 0.240 0.087 0.368 !       1.99 eA-3
Q169 0.767 1.004 0.252 !       1.95 eA-3
Q170 0.380 0.818-0.001 !       1.94 eA-3
Q171 0.709 0.723 0.340 !       1.91 eA-3
Q172 0.742 0.168 0.037 !       1.83 eA-3
Q173 0.734 0.152 0.072 !       1.81 eA-3
Q174 0.243 0.257 0.035 !       1.79 eA-3
C175 0.721 0.558 0.905 !       1.78 eA-3
C176 0.180 0.933 0.404 !       1.77 eA-3
C177 0.248 0.328 0.175 !       1.77 eA-3
C178 0.239 0.946 0.180 !       1.75 eA-3
C179 0.712 0.788 0.745 !       1.73 eA-3
Q180 0.227 0.703 0.457 !       1.73 eA-3
Q181 0.302 0.987 0.075 !       1.72 eA-3
C182 0.196 0.712 0.279 !       1.71 eA-3
Q183 0.071 0.070 0.126 !       1.70 eA-3
C184 0.618 0.832 0.779 !       1.70 eA-3
C185 0.672 0.757 0.766 !       1.68 eA-3
Q186 0.746 0.240 0.763 !       1.66 eA-3
C187 0.881 0.724 0.764 !       1.64 eA-3
Q188 0.710 0.271 0.747 !       1.62 eA-3
Q189 0.540 0.172 0.575 !       1.61 eA-3
C190 0.232 0.795 0.247 !       1.60 eA-3
Q191 0.157 0.384 0.873 !       1.60 eA-3
Q192 0.274 0.794 0.283 !       1.60 eA-3
Q193 0.593 0.979 0.115 !       1.59 eA-3
Q194 0.373 0.871 0.363 !       1.57 eA-3
Q195 0.741 0.876 0.111 !       1.52 eA-3
Q196 0.516 0.656 0.278 !       1.50 eA-3
Q197 0.109 0.390 0.484 !       1.50 eA-3
C198 0.805 0.243 0.774 !       1.48 eA-3
C199 0.747 0.888 0.764 !       1.47 eA-3
;
_refine_diff_density_max         5.771
_refine_diff_density_min         -1.710
_refine_diff_density_rms         0.415
_refine_ls_extinction_method     none
_refine_ls_goodness_of_fit_ref   1.020
_refine_ls_hydrogen_treatment    constr
_refine_ls_matrix_type           full
_refine_ls_number_parameters     888
_refine_ls_number_reflns         13761
_refine_ls_number_restraints     48
_refine_ls_restrained_S_all      1.020
_refine_ls_R_factor_all          0.0782
_refine_ls_R_factor_gt           0.0607
_refine_ls_shift/su_max          0.001
_refine_ls_shift/su_mean         0.000
_refine_ls_structure_factor_coef Fsqd
_refine_ls_weighting_details
'w=1/[\s^2^(Fo^2^)+(0.1200P)^2^+138.3690P] where P=(Fo^2^+2Fc^2^)/3'
_refine_ls_weighting_scheme      calc
_refine_ls_wR_factor_gt          0.1607
_refine_ls_wR_factor_ref         0.1784
_reflns_Friedel_coverage         0.000
_reflns_number_gt                10544
_reflns_number_total             13761
_reflns_threshold_expression     'I > 2\s(I)'
_cod_data_source_file            d0ce00309c2.cif
_cod_data_source_block           a_sq
_cod_database_code               7240382
_shelx_shelxl_version_number     2018/3
_shelx_space_group_comment
;
The symmetry employed for this shelxl refinement is uniquely defined
by the following loop, which should always be used as a source of
symmetry information in preference to the above space-group names.
They are only intended as comments.
;
_shelx_estimated_absorpt_t_max   0.071
_shelx_estimated_absorpt_t_min   0.060
_olex2_refinement_description
;
1. Fixed Uiso
 At 1.2 times of:
  All C(H) groups, All C(H,H) groups
2. Uiso/Uaniso restraints and constraints
Uanis(O13) \\sim Ueq, Uanis(O26) \\sim Ueq, Uanis(O12) \\sim Ueq: with sigma of
0.005 and sigma for terminal atoms of 0.01
3. Rigid body (RIGU) restrains
 O12, W7, O13, W9, O26, W8
 with sigma for 1-2 distances of 0.004 and sigma for 1-3 distances of 0.004
4.a Secondary CH2 refined with riding coordinates:
 C3(H3A,H3B), C9(H9A,H9B), C16(H16A,H16B), C21(H21A,H21B), C28(H28A,H28B)
4.b Aromatic/amide H refined with riding coordinates:
 C1(H1), C2(H2), C7(H7), C8(H8), C17(H17), C18(H18), C19(H19), C20(H20),
 C29(H29), C30(H30)
;
_shelx_res_file
;
TITL a in Pnna
    a_sq.res
    created by SHELXL-2018/3 at 08:46:16 on 21-Apr-2020
CELL 0.71073 24.0649 30.3771 18.2553 90 90 90
ZERR 4 0.0006 0.0007 0.0005 0 0 0
LATT 1
SYMM 0.5-X,-Y,+Z
SYMM +X,0.5-Y,0.5-Z
SYMM 0.5-X,0.5+Y,0.5-Z
SFAC C H Co F N O V W
UNIT 240 384 12 80 120 360 8 72
RIGU O12 W7 O13 W9 O26 W8
ISOR 0.005 0.01 O13 O26 O12

L.S. 5 0 146
PLAN  20
SIZE 0.35 0.37 0.4
TEMP 22.85
BOND $H
ABIN
conf
fmap 2
acta
OMIT 3 0 1
OMIT 0 0 2
OMIT 5 7 2
OMIT 6 2 4
OMIT 0 1 3
OMIT 13 2 14
REM <olex2.extras>
REM <HklSrc "%.\\a_sq.hkl">
REM </olex2.extras>

WGHT    0.120000  138.369003
FVAR       0.00948
V1    7    0.286904    0.276911    0.657298    11.00000    0.02647    0.02866 =
         0.02606    0.00025    0.00137   -0.00005
W1    8    0.157264    0.228479    0.619944    11.00000    0.03188    0.03959 =
         0.03545   -0.00025   -0.00371   -0.00279
W2    8    0.158520    0.327854    0.698112    11.00000    0.03362    0.03895 =
         0.04128    0.00126   -0.00089    0.00164
W3    8    0.413839    0.331030    0.700252    11.00000    0.03263    0.03834 =
         0.04058   -0.00203    0.00023   -0.00154
W4    8    0.409339    0.220374    0.613225    11.00000    0.03101    0.03824 =
         0.03499   -0.00250    0.00308    0.00068
W5    8    0.293885    0.380648    0.743102    11.00000    0.03330    0.03202 =
         0.03852   -0.00124   -0.00048    0.00118
W6    8    0.288471    0.171617    0.571957    11.00000    0.03814    0.04085 =
         0.03737   -0.00383    0.00056   -0.00164
W7    8    0.367377    0.320543    0.508811    11.00000    0.03832    0.04434 =
         0.03738    0.00296    0.00244   -0.00178
W8    8    0.245452    0.271405    0.469367    11.00000    0.04082    0.04658 =
         0.03407    0.00114   -0.00217   -0.00248
W9    8    0.247341    0.370334    0.549086    11.00000    0.04002    0.04152 =
         0.03970    0.00401   -0.00111    0.00086
CO1   3    0.250000    0.500000    0.760818    10.50000    0.03115    0.03077 =
         0.03509    0.00000    0.00000   -0.00030
CO2   3    0.536857    0.206231    0.498314    11.00000    0.03357    0.03585 =
         0.03387   -0.00046    0.00376   -0.00240
F1    4    0.465068    0.576587    1.058363    11.00000    0.05425    0.05086 =
         0.05382   -0.01355    0.00395    0.01164
F2    4    0.426930    0.439911    0.948991    11.00000    0.05105    0.04721 =
         0.05310    0.00034   -0.01863   -0.00081
F3    4    0.418229    0.441055    0.386982    11.00000    0.05650    0.09857 =
         0.04239   -0.00987   -0.00564    0.01155
F4    4    0.514247    0.396874    0.381467    11.00000    0.07794    0.06810 =
         0.05067   -0.02116    0.00819    0.01735
F5    4    0.545698    0.427879    0.627953    11.00000    0.07121    0.07499 =
         0.03569   -0.00395   -0.00061    0.02004
F6    4    0.449138    0.467022    0.638684    11.00000    0.07254    0.09853 =
         0.03249   -0.01393    0.00172    0.03860
F7    4    0.657398    0.023313    0.737420    11.00000    0.04709    0.05308 =
         0.08787   -0.00877   -0.01583    0.00433
F8    4    0.619392   -0.058504    0.732266    11.00000    0.06630    0.04448 =
         0.06873   -0.00588   -0.01331    0.00824
F9    4    0.438233   -0.005274    0.693344    11.00000    0.04162    0.05978 =
         0.06479   -0.00677    0.00161   -0.00843
F10   4    0.477234    0.077455    0.700932    11.00000    0.04674    0.05413 =
         0.06315   -0.00847   -0.00305   -0.00023
N1    5    0.305707    0.521517    0.844733    11.00000    0.03042    0.03670 =
         0.03789   -0.00153    0.00176   -0.00146
N2    5    0.356473    0.565594    0.915992    11.00000    0.04342    0.04988 =
         0.05575    0.00734   -0.01308   -0.00045
N3    5    0.353936    0.524668    0.943699    11.00000    0.03169    0.05044 =
         0.04708    0.00670    0.00175   -0.00278
N4    5    0.309037    0.512507    0.676589    11.00000    0.02966    0.03148 =
         0.03975   -0.00442    0.00186   -0.00605
N5    5    0.378469    0.535228    0.604583    11.00000    0.05678    0.04229 =
         0.05670    0.00036    0.00313   -0.00160
N6    5    0.355008    0.497762    0.577863    11.00000    0.05554    0.04477 =
         0.03643    0.00182   -0.00845    0.00760
N7    5    0.560703    0.269788    0.530998    11.00000    0.02090    0.04185 =
         0.04132    0.00632    0.00418   -0.00016
N8    5    0.599833    0.325175    0.593986    11.00000    0.07392    0.06528 =
         0.03978   -0.01162    0.00149   -0.01606
N9    5    0.579921    0.339922    0.528173    11.00000    0.03804    0.03480 =
         0.04892   -0.00508    0.00163   -0.00147
N10   5    0.582499    0.169890    0.576331    11.00000    0.03725    0.04828 =
         0.04805   -0.00295    0.01037    0.00554
N11   5    0.639547    0.118836    0.620328    11.00000    0.05074    0.05733 =
         0.05709    0.01423    0.01350    0.01976
N12   5    0.595362    0.124976    0.665389    11.00000    0.03360    0.03545 =
         0.04579    0.00459   -0.00852   -0.00010
N13   5    0.557219   -0.105067    0.605146    11.00000    0.03253    0.04842 =
         0.05429   -0.01114    0.00828    0.00146
N14   5    0.509918   -0.102457    0.644195    11.00000    0.04878    0.04094 =
         0.03827   -0.00487    0.00677   -0.00420
N15   5    0.493952   -0.148163    0.554458    11.00000    0.02870    0.04918 =
         0.03703   -0.01119    0.00757   -0.00036
O1    6    0.489821    0.238470    0.415516    11.00000    0.04566    0.04588 =
         0.04783    0.00158    0.00009   -0.00277
O2    6    0.280084    0.435404    0.760731    11.00000    0.04329    0.02574 =
         0.02993    0.00257    0.00357    0.00275
O3    6    0.282629    0.384589    0.638584    11.00000    0.03433    0.03108 =
         0.02970   -0.00312    0.00314   -0.00301
O4    6    0.300479    0.361397    0.839375    11.00000    0.02948    0.03029 =
         0.03441    0.00185   -0.00082    0.00289
O5    6    0.371513    0.382683    0.727277    11.00000    0.02470    0.03905 =
         0.03405    0.00084   -0.00269   -0.00320
O6    6    0.220410    0.355804    0.742871    11.00000    0.03124    0.03828 =
         0.03532    0.00128    0.00125   -0.01514
O7    6    0.320697    0.311436    0.713872    11.00000    0.03399    0.03170 =
         0.03511   -0.00082    0.00463    0.00146
O8    6    0.479884    0.350495    0.695486    11.00000    0.03257    0.04016 =
         0.03992   -0.00081    0.00246    0.00049
O9    6    0.392364    0.340598    0.600561    11.00000    0.03391    0.03967 =
         0.02503    0.00229    0.00173    0.00604
O10   6    0.422851    0.271344    0.673052    11.00000    0.02883    0.03597 =
         0.03433    0.00100    0.00295   -0.00154
O11   6    0.418910    0.335406    0.450612    11.00000    0.03239    0.05092 =
         0.04771    0.00993    0.00152   -0.00327
O12   6    0.318166    0.291998    0.439799    11.00000    0.03606    0.04025 =
         0.03652   -0.00195    0.00544    0.00410
O13   6    0.319333    0.370127    0.504579    11.00000    0.03219    0.03763 =
         0.05360   -0.00650    0.01380   -0.00748
O14   6    0.286259    0.302188    0.572181    11.00000    0.04380    0.03769 =
         0.03366   -0.00359   -0.00049   -0.00119
O15   6    0.219087    0.255661    0.386599    11.00000    0.05142    0.05188 =
         0.04259    0.00075   -0.00141   -0.01383
O16   6    0.187873    0.258506    0.535981    11.00000    0.03965    0.03086 =
         0.03369    0.00078   -0.00023   -0.00033
O17   6    0.217289    0.188597    0.606760    11.00000    0.03413    0.03980 =
         0.03282   -0.00176   -0.00077    0.00378
O18   6    0.102823    0.202765    0.573296    11.00000    0.03376    0.04629 =
         0.03527    0.00129   -0.00626   -0.00568
O19   6    0.120615    0.282223    0.646702    11.00000    0.02552    0.03967 =
         0.03589   -0.00068   -0.00615    0.00440
O20   6    0.219816    0.270308    0.680089    11.00000    0.03032    0.03351 =
         0.03796   -0.00538   -0.00151   -0.00072
O21   6    0.145750    0.295426    0.787301    11.00000    0.02562    0.03918 =
         0.03704   -0.00793   -0.00154    0.00185
O22   6    0.105735    0.364779    0.710292    11.00000    0.03550    0.03467 =
         0.04610    0.00734   -0.00618   -0.00586
O23   6    0.186864    0.349787    0.607597    11.00000    0.03287    0.03924 =
         0.04444    0.00922    0.00469   -0.00382
O24   6    0.415734    0.314390    0.802098    11.00000    0.02671    0.03092 =
         0.03428    0.00137   -0.00359    0.00213
O25   6    0.223847    0.420644    0.520209    11.00000    0.03350    0.05039 =
         0.04166    0.00598   -0.00854   -0.00208
O26   6    0.222547    0.331434    0.473383    11.00000    0.03264    0.04731 =
         0.05022   -0.01551   -0.01098    0.00672
O27   6    0.472952    0.208531    0.573198    11.00000    0.02740    0.03480 =
         0.03684   -0.01061    0.00552    0.00654
O28   6    0.321019    0.228452    0.646179    11.00000    0.03915    0.03183 =
         0.02947   -0.00335   -0.00776    0.00596
O29   6    0.389646    0.263532    0.540625    11.00000    0.03347    0.03826 =
         0.03654   -0.00298   -0.00271    0.00103
O30   6    0.368389    0.177150    0.562430    11.00000    0.01819    0.03713 =
         0.03853   -0.00260    0.00042   -0.00214
O31   6    0.274034    0.128272    0.515254    11.00000    0.03661    0.04343 =
         0.03323   -0.00997   -0.00594    0.00048
O32   6    0.280827    0.218070    0.503739    11.00000    0.04282    0.04582 =
         0.02409    0.00143    0.00670   -0.00619
C1    1    0.326055    0.562239    0.856789    11.00000    0.05706    0.04947 =
         0.02990    0.00304   -0.00806   -0.00974
AFIX  43
H1    2    0.319090    0.585882    0.825753    11.00000   -1.20000
AFIX   0
C2    1    0.324468    0.499173    0.902677    11.00000    0.03209    0.05108 =
         0.05070   -0.00463    0.01171   -0.00927
AFIX  43
H2    2    0.317341    0.469616    0.912057    11.00000   -1.20000
AFIX   0
C3    1    0.380989    0.515605    1.014997    11.00000    0.04020    0.05020 =
         0.02833   -0.00345   -0.00579   -0.00293
AFIX  23
H3A   2    0.364163    0.489810    1.037109    11.00000   -1.20000
H3B   2    0.375121    0.540352    1.047673    11.00000   -1.20000
AFIX   0
C4    1    0.442601    0.507932    1.005586    11.00000    0.06182    0.03701 =
         0.02986    0.01144   -0.00019    0.01243
C5    1    0.480931    0.538109    1.028084    11.00000    0.05364    0.05067 =
         0.03662    0.01996   -0.00068    0.01055
C6    1    0.463410    0.469657    0.975075    11.00000    0.04147    0.04766 =
         0.03579    0.00596   -0.00380    0.00197
C7    1    0.348878    0.543829    0.662949    11.00000    0.03256    0.03762 =
         0.06036   -0.00411    0.00435   -0.00864
AFIX  43
H7    2    0.354249    0.568554    0.692146    11.00000   -1.20000
AFIX   0
C8    1    0.314380    0.484731    0.621355    11.00000    0.03956    0.04477 =
         0.03985    0.00373   -0.00472    0.00180
AFIX  43
H8    2    0.292751    0.459729    0.614179    11.00000   -1.20000
AFIX   0
C9    1    0.373163    0.477503    0.509233    11.00000    0.02852    0.07048 =
         0.04679    0.00840    0.00151    0.00300
AFIX  23
H9A   2    0.373594    0.499916    0.471390    11.00000   -1.20000
H9B   2    0.346038    0.455476    0.495047    11.00000   -1.20000
AFIX   0
C10   1    0.429500    0.456125    0.512073    11.00000    0.03272    0.03715 =
         0.05213   -0.00067   -0.00191   -0.00116
C11   1    0.449642    0.436871    0.449532    11.00000    0.04724    0.06224 =
         0.03745   -0.00507   -0.00275   -0.00040
C12   1    0.499067    0.414724    0.444124    11.00000    0.04951    0.04564 =
         0.05386   -0.01147    0.00843    0.00001
C13   1    0.531504    0.410825    0.505876    11.00000    0.04780    0.02458 =
         0.06339    0.00466    0.00463   -0.00966
C14   1    0.513939    0.429399    0.567562    11.00000    0.04867    0.04996 =
         0.03649   -0.00818    0.00130    0.01421
C15   1    0.462742    0.451993    0.572607    11.00000    0.06020    0.05275 =
         0.03387    0.00198    0.00780    0.01619
C16   1    0.586482    0.385144    0.502207    11.00000    0.04921    0.03575 =
         0.05374   -0.00088    0.01309   -0.00751
AFIX  23
H16A  2    0.599726    0.384750    0.452026    11.00000   -1.20000
H16B  2    0.614146    0.400003    0.531906    11.00000   -1.20000
AFIX   0
C17   1    0.557308    0.305352    0.492156    11.00000    0.05666    0.05440 =
         0.05276   -0.00819   -0.00674   -0.00295
AFIX  43
H17   2    0.541464    0.306926    0.445764    11.00000   -1.20000
AFIX   0
C18   1    0.587196    0.282482    0.592378    11.00000    0.06818    0.03901 =
         0.04473    0.00482   -0.01336   -0.00045
AFIX  43
H18   2    0.595899    0.263201    0.630250    11.00000   -1.20000
AFIX   0
C19   1    0.563186    0.155953    0.640155    11.00000    0.03674    0.04381 =
         0.04650   -0.00507    0.01022   -0.00233
AFIX  43
H19   2    0.531541    0.166626    0.663385    11.00000   -1.20000
AFIX   0
C20   1    0.630716    0.146157    0.568477    11.00000    0.02992    0.05824 =
         0.06869   -0.00808    0.01134    0.01150
AFIX  43
H20   2    0.654734    0.149669    0.528997    11.00000   -1.20000
AFIX   0
C21   1    0.589228    0.098981    0.731190    11.00000    0.05603    0.04013 =
         0.03376    0.00096   -0.00170    0.00244
AFIX  23
H21A  2    0.563517    0.114049    0.763530    11.00000   -1.20000
H21B  2    0.624920    0.097902    0.755815    11.00000   -1.20000
AFIX   0
C22   1    0.569081    0.052690    0.720805    11.00000    0.04731    0.04826 =
         0.03386   -0.00317   -0.00365   -0.00710
C23   1    0.603410    0.017731    0.725283    11.00000    0.04139    0.06284 =
         0.04347   -0.00042   -0.00673    0.00417
C24   1    0.583906   -0.025327    0.723680    11.00000    0.06168    0.04266 =
         0.03731    0.00617    0.00568    0.00474
C25   1    0.527912   -0.034068    0.713466    11.00000    0.04118    0.05350 =
         0.02476   -0.00779    0.00541    0.00446
C26   1    0.493708    0.001166    0.705079    11.00000    0.05898    0.05265 =
         0.02901   -0.00605    0.00378    0.00880
C27   1    0.513002    0.044099    0.707949    11.00000    0.06349    0.04152 =
         0.03196   -0.00463    0.00306    0.00418
C28   1    0.505653   -0.082145    0.714411    11.00000    0.07141    0.04109 =
         0.03994   -0.00033    0.00522    0.00044
AFIX  23
H28A  2    0.526636   -0.099209    0.749794    11.00000   -1.20000
H28B  2    0.467062   -0.082041    0.729754    11.00000   -1.20000
AFIX   0
C29   1    0.545738   -0.131514    0.551514    11.00000    0.04191    0.04724 =
         0.03357   -0.00226    0.00112    0.00136
AFIX  43
H29   2    0.570883   -0.138335    0.514531    11.00000   -1.20000
AFIX   0
C30   1    0.472434   -0.129233    0.612243    11.00000    0.03740    0.04609 =
         0.04747    0.00261    0.00539   -0.00785
AFIX  43
H30   2    0.436344   -0.133638    0.628919    11.00000   -1.20000
AFIX   0
HKLF 4




REM  a in Pnna
REM wR2 = 0.1784, GooF = S = 1.020, Restrained GooF = 1.020 for all data
REM R1 = 0.0607 for 10544 Fo > 4sig(Fo) and 0.0782 for all 13761 data
REM 888 parameters refined using 48 restraints

END

WGHT      0.1200    138.0907

REM Highest difference peak  5.771,  deepest hole -1.710,  1-sigma level  0.415
Q1    1   0.3322  0.2653  0.4666  11.00000  0.05    4.96
Q2    1   0.3313  0.3652  0.5458  11.00000  0.05    4.66
Q3    1   0.2125  0.3136  0.5046  11.00000  0.05    4.30
Q4    1   0.3269  0.3801  0.7408  11.00000  0.05    4.27
Q5    1   0.1242  0.2266  0.6153  11.00000  0.05    4.12
Q6    1   0.4501  0.3305  0.7006  11.00000  0.05    4.04
Q7    1   0.1865  0.2267  0.6160  11.00000  0.05    3.98
Q8    1   0.3830  0.2194  0.6141  11.00000  0.05    3.92
Q9    1   0.2115  0.2730  0.4671  11.00000  0.05    3.51
Q10   1   0.2515  0.1708  0.5668  11.00000  0.05    3.48
Q11   1   0.3339  0.3212  0.5033  11.00000  0.05    3.41
Q12   1   0.1218  0.3302  0.6997  11.00000  0.05    3.41
Q13   1   0.3267  0.1720  0.5677  11.00000  0.05    3.36
Q14   1   0.1557  0.2052  0.6196  11.00000  0.05    3.36
Q15   1   0.3799  0.3304  0.7027  11.00000  0.05    3.35
Q16   1   0.2103  0.3722  0.5467  11.00000  0.05    3.24
Q17   1   0.2814  0.2720  0.4731  11.00000  0.05    3.22
Q18   1   0.2970  0.3577  0.7427  11.00000  0.05    3.03
Q19   1   0.1925  0.3277  0.7038  11.00000  0.05    2.98
Q20   1   0.1568  0.2559  0.6199  11.00000  0.05    2.93
;
_shelx_res_checksum              88374
_shelx_fab_file
;
 12 0 0 1.96 0.00
 14 0 0 -24.21 0.00
 16 0 0 18.63 0.00
 18 0 0 -4.81 0.00
 20 0 0 -13.58 0.00
 22 0 0 -10.41 0.00
 24 0 0 -4.99 0.00
 26 0 0 -4.78 0.00
 28 0 0 -3.93 0.00
 4 1 0 -33.50 0.00
 6 1 0 -46.60 0.00
 10 1 0 -5.36 0.00
 12 1 0 -41.93 0.00
 14 1 0 -11.19 0.00
 16 1 0 -25.74 0.00
 18 1 0 12.47 0.00
 20 1 0 28.64 0.00
 22 1 0 -6.05 0.00
 24 1 0 16.26 0.00
 26 1 0 22.10 0.00
 28 1 0 -11.87 0.00
 4 2 0 157.92 0.00
 6 2 0 -125.35 0.00
 8 2 0 -7.34 0.00
 10 2 0 -8.86 0.00
 12 2 0 48.82 0.00
 14 2 0 -19.35 0.00
 16 2 0 20.72 0.00
 18 2 0 -10.57 0.00
 20 2 0 10.84 0.00
 22 2 0 19.93 0.00
 24 2 0 -8.40 0.00
 26 2 0 6.94 0.00
 28 2 0 1.21 0.00
 2 3 0 6.36 0.00
 4 3 0 -23.15 0.00
 6 3 0 92.32 0.00
 8 3 0 34.03 0.00
 10 3 0 31.55 0.00
 12 3 0 -28.69 0.00
 14 3 0 59.28 0.00
 16 3 0 -5.84 0.00
 18 3 0 -3.91 0.00
 20 3 0 -3.14 0.00
 22 3 0 -6.99 0.00
 24 3 0 -4.21 0.00
 26 3 0 -19.83 0.00
 28 3 0 17.37 0.00
 0 4 0 -25.55 0.00
 2 4 0 135.59 0.00
 4 4 0 -16.71 0.00
 6 4 0 -5.44 0.00
 8 4 0 111.44 0.00
 10 4 0 -43.39 0.00
 12 4 0 -14.86 0.00
 14 4 0 -19.11 0.00
 16 4 0 4.00 0.00
 18 4 0 -17.79 0.00
 20 4 0 -3.78 0.00
 22 4 0 -0.87 0.00
 24 4 0 -1.97 0.00
 26 4 0 2.14 0.00
 2 5 0 -86.36 0.00
 4 5 0 -32.33 0.00
 6 5 0 -44.12 0.00
 8 5 0 -61.38 0.00
 10 5 0 33.68 0.00
 12 5 0 2.33 0.00
 14 5 0 -19.39 0.00
 16 5 0 -13.17 0.00
 18 5 0 14.84 0.00
 20 5 0 -15.69 0.00
 22 5 0 10.35 0.00
 24 5 0 -5.78 0.00
 26 5 0 6.64 0.00
 28 5 0 4.39 0.00
 0 6 0 45.47 0.00
 2 6 0 2.42 0.00
 4 6 0 -10.24 0.00
 6 6 0 -14.54 0.00
 8 6 0 -64.98 0.00
 10 6 0 18.40 0.00
 12 6 0 20.18 0.00
 14 6 0 20.97 0.00
 16 6 0 -3.55 0.00
 18 6 0 16.90 0.00
 20 6 0 7.76 0.00
 22 6 0 -2.39 0.00
 24 6 0 -10.04 0.00
 26 6 0 -0.73 0.00
 28 6 0 -11.20 0.00
 2 7 0 10.19 0.00
 4 7 0 95.82 0.00
 6 7 0 37.56 0.00
 8 7 0 -19.94 0.00
 10 7 0 18.39 0.00
 12 7 0 -34.36 0.00
 14 7 0 24.80 0.00
 16 7 0 -9.22 0.00
 18 7 0 2.23 0.00
 20 7 0 -6.80 0.00
 22 7 0 14.79 0.00
 24 7 0 -3.75 0.00
 26 7 0 -5.64 0.00
 28 7 0 0.45 0.00
 0 8 0 -34.06 0.00
 2 8 0 -20.37 0.00
 4 8 0 -31.32 0.00
 6 8 0 51.64 0.00
 8 8 0 -30.59 0.00
 10 8 0 33.01 0.00
 12 8 0 -48.24 0.00
 14 8 0 12.10 0.00
 16 8 0 -8.10 0.00
 18 8 0 -16.82 0.00
 20 8 0 8.31 0.00
 22 8 0 -10.17 0.00
 24 8 0 16.42 0.00
 26 8 0 4.16 0.00
 28 8 0 4.78 0.00
 2 9 0 18.78 0.00
 4 9 0 -47.00 0.00
 6 9 0 -3.03 0.00
 8 9 0 -2.96 0.00
 10 9 0 26.01 0.00
 12 9 0 -41.08 0.00
 14 9 0 38.65 0.00
 16 9 0 -3.08 0.00
 18 9 0 -7.46 0.00
 20 9 0 21.66 0.00
 22 9 0 -13.04 0.00
 24 9 0 2.50 0.00
 26 9 0 2.06 0.00
 28 9 0 10.15 0.00
 0 10 0 -75.58 0.00
 2 10 0 71.17 0.00
 4 10 0 -14.40 0.00
 6 10 0 -2.66 0.00
 8 10 0 47.64 0.00
 10 10 0 -3.47 0.00
 12 10 0 6.62 0.00
 14 10 0 -9.96 0.00
 16 10 0 19.86 0.00
 18 10 0 -13.74 0.00
 20 10 0 14.74 0.00
 22 10 0 -14.21 0.00
 24 10 0 -0.79 0.00
 26 10 0 -4.74 0.00
 28 10 0 1.90 0.00
 2 11 0 -12.30 0.00
 4 11 0 -16.30 0.00
 6 11 0 -8.26 0.00
 8 11 0 -13.14 0.00
 10 11 0 16.20 0.00
 12 11 0 19.50 0.00
 14 11 0 -24.58 0.00
 16 11 0 -4.44 0.00
 18 11 0 -1.98 0.00
 20 11 0 -2.96 0.00
 22 11 0 -5.50 0.00
 24 11 0 -9.47 0.00
 26 11 0 16.81 0.00
 28 11 0 -23.33 0.00
 0 12 0 -36.37 0.00
 2 12 0 23.65 0.00
 4 12 0 33.43 0.00
 6 12 0 -69.09 0.00
 8 12 0 0.71 0.00
 10 12 0 -38.39 0.00
 12 12 0 28.60 0.00
 14 12 0 -10.55 0.00
 16 12 0 2.25 0.00
 18 12 0 -1.80 0.00
 20 12 0 6.03 0.00
 22 12 0 2.71 0.00
 24 12 0 4.38 0.00
 26 12 0 -1.08 0.00
 28 12 0 -2.87 0.00
 2 13 0 -2.42 0.00
 4 13 0 26.77 0.00
 6 13 0 13.58 0.00
 8 13 0 18.38 0.00
 10 13 0 -38.29 0.00
 12 13 0 8.11 0.00
 14 13 0 -5.41 0.00
 16 13 0 16.65 0.00
 18 13 0 1.75 0.00
 20 13 0 -9.80 0.00
 22 13 0 16.53 0.00
 24 13 0 -1.87 0.00
 26 13 0 -9.83 0.00
 28 13 0 11.54 0.00
 0 14 0 56.91 0.00
 2 14 0 -40.12 0.00
 4 14 0 -12.08 0.00
 6 14 0 16.35 0.00
 8 14 0 32.91 0.00
 10 14 0 -1.04 0.00
 12 14 0 -2.26 0.00
 14 14 0 1.23 0.00
 16 14 0 -7.20 0.00
 18 14 0 10.61 0.00
 20 14 0 -12.58 0.00
 22 14 0 0.28 0.00
 24 14 0 -4.99 0.00
 26 14 0 6.06 0.00
 28 14 0 -4.45 0.00
 2 15 0 14.54 0.00
 4 15 0 -3.90 0.00
 6 15 0 -17.70 0.00
 8 15 0 -3.03 0.00
 10 15 0 14.26 0.00
 12 15 0 1.52 0.00
 14 15 0 3.81 0.00
 16 15 0 -14.59 0.00
 18 15 0 5.66 0.00
 20 15 0 5.62 0.00
 22 15 0 -9.44 0.00
 24 15 0 12.35 0.00
 26 15 0 -1.24 0.00
 0 16 0 -23.99 0.00
 2 16 0 8.99 0.00
 4 16 0 11.21 0.00
 6 16 0 20.29 0.00
 8 16 0 -29.18 0.00
 10 16 0 4.10 0.00
 12 16 0 5.03 0.00
 14 16 0 -3.10 0.00
 16 16 0 2.74 0.00
 18 16 0 -7.97 0.00
 20 16 0 7.80 0.00
 22 16 0 1.72 0.00
 24 16 0 -0.75 0.00
 26 16 0 3.03 0.00
 2 17 0 3.42 0.00
 4 17 0 -29.06 0.00
 6 17 0 4.83 0.00
 8 17 0 27.07 0.00
 10 17 0 -29.73 0.00
 12 17 0 8.93 0.00
 14 17 0 3.62 0.00
 16 17 0 3.47 0.00
 18 17 0 -5.91 0.00
 20 17 0 0.20 0.00
 24 17 0 -0.49 0.00
 26 17 0 -7.90 0.00
 0 18 0 -13.20 0.00
 2 18 0 20.51 0.00
 4 18 0 -32.74 0.00
 6 18 0 -9.35 0.00
 8 18 0 6.17 0.00
 10 18 0 -0.09 0.00
 12 18 0 -6.85 0.00
 14 18 0 0.20 0.00
 16 18 0 6.47 0.00
 18 18 0 3.97 0.00
 20 18 0 -2.68 0.00
 22 18 0 -5.25 0.00
 24 18 0 1.47 0.00
 26 18 0 -1.92 0.00
 2 19 0 9.68 0.00
 4 19 0 8.97 0.00
 6 19 0 -1.30 0.00
 8 19 0 3.50 0.00
 10 19 0 -7.29 0.00
 12 19 0 14.50 0.00
 14 19 0 -20.01 0.00
 16 19 0 5.02 0.00
 18 19 0 2.26 0.00
 20 19 0 4.69 0.00
 22 19 0 1.39 0.00
 24 19 0 3.49 0.00
 26 19 0 4.88 0.00
 0 20 0 -9.67 0.00
 2 20 0 14.02 0.00
 4 20 0 5.45 0.00
 6 20 0 10.03 0.00
 8 20 0 -1.55 0.00
 10 20 0 3.33 0.00
 12 20 0 -1.06 0.00
 14 20 0 10.25 0.00
 16 20 0 -19.79 0.00
 18 20 0 7.90 0.00
 20 20 0 -10.79 0.00
 22 20 0 14.95 0.00
 24 20 0 -1.37 0.00
 2 21 0 -2.92 0.00
 4 21 0 0.53 0.00
 6 21 0 -1.99 0.00
 8 21 0 -11.83 0.00
 10 21 0 3.49 0.00
 12 21 0 -2.40 0.00
 14 21 0 3.69 0.00
 16 21 0 4.01 0.00
 18 21 0 -0.78 0.00
 20 21 0 -8.09 0.00
 22 21 0 3.16 0.00
 24 21 0 -2.55 0.00
 0 22 0 9.76 0.00
 2 22 0 -18.10 0.00
 4 22 0 -1.54 0.00
 6 22 0 3.36 0.00
 8 22 0 5.00 0.00
 10 22 0 -11.18 0.00
 12 22 0 5.55 0.00
 14 22 0 5.78 0.00
 16 22 0 -8.69 0.00
 18 22 0 16.21 0.00
 20 22 0 -3.53 0.00
 22 22 0 -3.94 0.00
 24 22 0 -6.07 0.00
 2 23 0 1.49 0.00
 4 23 0 -9.21 0.00
 6 23 0 7.85 0.00
 8 23 0 9.97 0.00
 10 23 0 2.53 0.00
 12 23 0 -2.31 0.00
 14 23 0 4.29 0.00
 16 23 0 -3.20 0.00
 18 23 0 -2.58 0.00
 20 23 0 -0.85 0.00
 22 23 0 3.05 0.00
 0 24 0 18.60 0.00
 2 24 0 -6.55 0.00
 4 24 0 8.63 0.00
 6 24 0 -11.55 0.00
 8 24 0 3.50 0.00
 10 24 0 -5.80 0.00
 12 24 0 0.67 0.00
 14 24 0 -12.59 0.00
 16 24 0 11.51 0.00
 18 24 0 -11.39 0.00
 20 24 0 -1.49 0.00
 22 24 0 3.79 0.00
 2 25 0 1.74 0.00
 4 25 0 7.98 0.00
 6 25 0 -13.17 0.00
 8 25 0 0.70 0.00
 10 25 0 -0.93 0.00
 12 25 0 -0.57 0.00
 14 25 0 -10.96 0.00
 16 25 0 9.61 0.00
 18 25 0 -0.95 0.00
 20 25 0 8.79 0.00
 22 25 0 -2.43 0.00
 0 26 0 3.06 0.00
 2 26 0 -12.15 0.00
 4 26 0 13.28 0.00
 6 26 0 -8.18 0.00
 8 26 0 -1.34 0.00
 10 26 0 13.51 0.00
 12 26 0 5.67 0.00
 14 26 0 1.56 0.00
 16 26 0 5.43 0.00
 18 26 0 -0.76 0.00
 20 26 0 0.87 0.00
 2 27 0 -7.49 0.00
 4 27 0 6.16 0.00
 6 27 0 4.93 0.00
 8 27 0 -9.24 0.00
 10 27 0 5.48 0.00
 12 27 0 -2.98 0.00
 14 27 0 6.14 0.00
 16 27 0 -2.62 0.00
 18 27 0 -4.08 0.00
 20 27 0 -8.68 0.00
 0 28 0 6.32 0.00
 2 28 0 -1.29 0.00
 4 28 0 1.52 0.00
 6 28 0 2.35 0.00
 8 28 0 5.26 0.00
 10 28 0 -17.96 0.00
 12 28 0 2.88 0.00
 14 28 0 -13.12 0.00
 16 28 0 -3.37 0.00
 18 28 0 2.76 0.00
 20 28 0 -8.91 0.00
 2 29 0 5.10 0.00
 4 29 0 -10.06 0.00
 6 29 0 6.21 0.00
 8 29 0 -5.32 0.00
 10 29 0 6.50 0.00
 12 29 0 -2.12 0.00
 14 29 0 1.01 0.00
 16 29 0 3.42 0.00
 18 29 0 2.85 0.00
 0 30 0 -9.96 0.00
 2 30 0 3.42 0.00
 4 30 0 -1.26 0.00
 6 30 0 -2.23 0.00
 8 30 0 6.76 0.00
 10 30 0 -2.81 0.00
 12 30 0 11.27 0.00
 14 30 0 3.33 0.00
 16 30 0 5.54 0.00
 18 30 0 7.41 0.00
 2 31 0 3.87 0.00
 4 31 0 -5.77 0.00
 6 31 0 6.18 0.00
 8 31 0 4.19 0.00
 10 31 0 -2.07 0.00
 12 31 0 0.10 0.00
 14 31 0 -4.71 0.00
 16 31 0 -5.38 0.00
 0 32 0 3.76 0.00
 2 32 0 2.92 0.00
 4 32 0 -1.20 0.00
 6 32 0 -8.12 0.00
 8 32 0 -3.07 0.00
 10 32 0 1.87 0.00
 12 32 0 -6.01 0.00
 14 32 0 -1.69 0.00
 16 32 0 -8.83 0.00
 2 33 0 1.52 0.00
 4 33 0 -0.30 0.00
 6 33 0 -1.27 0.00
 8 33 0 -2.45 0.00
 10 33 0 -6.24 0.00
 12 33 0 2.60 0.00
 14 33 0 9.95 0.00
 0 34 0 4.11 0.00
 2 34 0 -12.06 0.00
 4 34 0 11.01 0.00
 6 34 0 -1.70 0.00
 8 34 0 8.74 0.00
 10 34 0 3.03 0.00
 12 34 0 -5.47 0.00
 2 35 0 0.06 0.00
 4 35 0 1.76 0.00
 6 35 0 -1.26 0.00
 8 35 0 -7.40 0.00
 10 35 0 13.85 0.00
 0 36 0 11.28 0.00
 2 36 0 -3.82 0.00
 4 36 0 5.40 0.00
 6 36 0 -6.74 0.00
 8 36 0 3.36 0.00
 2 37 0 -4.01 0.00
 4 37 0 3.73 0.00
 6 37 0 -2.83 0.00
 5 0 1 -64.69 0.00
 7 0 1 7.66 0.00
 9 0 1 2.26 0.00
 11 0 1 29.36 0.00
 13 0 1 14.40 0.00
 15 0 1 24.32 0.00
 17 0 1 -0.15 0.00
 19 0 1 -4.41 0.00
 21 0 1 -3.69 0.00
 23 0 1 -5.87 0.00
 25 0 1 -6.86 0.00
 27 0 1 -8.39 0.00
 29 0 1 -1.47 0.00
 3 1 1 -23.75 0.00
 4 1 1 -28.27 0.00
 5 1 1 15.31 0.00
 6 1 1 44.82 0.00
 7 1 1 -10.61 0.00
 8 1 1 -65.69 0.00
 9 1 1 37.88 0.00
 10 1 1 45.15 0.00
 11 1 1 -9.48 0.00
 12 1 1 -24.80 0.00
 13 1 1 19.48 0.00
 14 1 1 13.32 0.00
 15 1 1 -5.36 0.00
 16 1 1 0.28 0.00
 17 1 1 18.38 0.00
 18 1 1 -6.83 0.00
 19 1 1 0.98 0.00
 20 1 1 6.12 0.00
 21 1 1 -28.34 0.00
 22 1 1 -2.26 0.00
 23 1 1 -2.05 0.00
 24 1 1 -0.67 0.00
 25 1 1 -6.42 0.00
 26 1 1 2.05 0.00
 27 1 1 -24.97 0.00
 28 1 1 -1.59 0.00
 29 1 1 3.78 0.00
 2 2 1 -52.19 0.00
 3 2 1 160.55 0.00
 4 2 1 59.20 0.00
 5 2 1 -110.84 0.00
 6 2 1 9.07 0.00
 7 2 1 26.00 0.00
 8 2 1 -15.38 0.00
 9 2 1 -3.37 0.00
 10 2 1 4.99 0.00
 11 2 1 2.29 0.00
 12 2 1 -6.96 0.00
 13 2 1 -39.13 0.00
 14 2 1 -0.82 0.00
 15 2 1 4.33 0.00
 16 2 1 9.21 0.00
 17 2 1 -21.56 0.00
 18 2 1 -2.65 0.00
 19 2 1 7.54 0.00
 20 2 1 -3.20 0.00
 21 2 1 4.28 0.00
 22 2 1 6.14 0.00
 23 2 1 -6.08 0.00
 24 2 1 -7.07 0.00
 25 2 1 13.46 0.00
 26 2 1 0.66 0.00
 27 2 1 3.01 0.00
 28 2 1 1.70 0.00
 0 3 1 20.52 0.00
 1 3 1 -42.81 0.00
 2 3 1 0.49 0.00
 3 3 1 -51.29 0.00
 4 3 1 -45.90 0.00
 5 3 1 26.47 0.00
 6 3 1 32.34 0.00
 7 3 1 -29.17 0.00
 8 3 1 24.78 0.00
 9 3 1 -15.07 0.00
 10 3 1 -7.60 0.00
 11 3 1 -32.92 0.00
 12 3 1 -3.48 0.00
 13 3 1 37.35 0.00
 14 3 1 -2.33 0.00
 15 3 1 -25.74 0.00
 16 3 1 -4.24 0.00
 17 3 1 1.13 0.00
 18 3 1 4.82 0.00
 19 3 1 6.57 0.00
 20 3 1 0.39 0.00
 21 3 1 8.94 0.00
 22 3 1 -5.34 0.00
 23 3 1 6.86 0.00
 24 3 1 3.19 0.00
 25 3 1 2.39 0.00
 26 3 1 -0.67 0.00
 27 3 1 18.36 0.00
 28 3 1 -2.00 0.00
 29 3 1 -11.71 0.00
 1 4 1 101.82 0.00
 2 4 1 0.35 0.00
 3 4 1 -82.28 0.00
 4 4 1 10.72 0.00
 5 4 1 38.18 0.00
 6 4 1 -44.27 0.00
 7 4 1 52.59 0.00
 8 4 1 -4.25 0.00
 9 4 1 -64.56 0.00
 10 4 1 21.72 0.00
 11 4 1 7.39 0.00
 12 4 1 5.93 0.00
 13 4 1 6.43 0.00
 14 4 1 -12.85 0.00
 15 4 1 14.86 0.00
 17 4 1 0.90 0.00
 18 4 1 -4.92 0.00
 19 4 1 14.24 0.00
 20 4 1 7.31 0.00
 21 4 1 4.25 0.00
 22 4 1 1.27 0.00
 23 4 1 0.41 0.00
 24 4 1 -6.66 0.00
 25 4 1 -2.21 0.00
 26 4 1 8.73 0.00
 27 4 1 -0.20 0.00
 28 4 1 -1.64 0.00
 0 5 1 -44.08 0.00
 1 5 1 -71.18 0.00
 2 5 1 6.05 0.00
 3 5 1 21.45 0.00
 4 5 1 23.43 0.00
 5 5 1 2.84 0.00
 6 5 1 -6.54 0.00
 7 5 1 10.29 0.00
 8 5 1 -23.69 0.00
 9 5 1 46.62 0.00
 10 5 1 -15.90 0.00
 11 5 1 4.23 0.00
 12 5 1 20.91 0.00
 13 5 1 -23.61 0.00
 14 5 1 6.03 0.00
 15 5 1 5.48 0.00
 16 5 1 -7.61 0.00
 17 5 1 7.28 0.00
 18 5 1 -1.38 0.00
 19 5 1 -18.61 0.00
 20 5 1 4.04 0.00
 21 5 1 7.25 0.00
 22 5 1 3.43 0.00
 23 5 1 -12.97 0.00
 24 5 1 -0.97 0.00
 25 5 1 6.86 0.00
 26 5 1 0.51 0.00
 27 5 1 -3.51 0.00
 28 5 1 -4.45 0.00
 29 5 1 3.36 0.00
 1 6 1 -32.84 0.00
 2 6 1 -34.38 0.00
 3 6 1 -31.01 0.00
 4 6 1 7.68 0.00
 5 6 1 -11.42 0.00
 6 6 1 17.83 0.00
 7 6 1 -32.93 0.00
 8 6 1 22.21 0.00
 9 6 1 58.07 0.00
 10 6 1 -25.08 0.00
 11 6 1 12.61 0.00
 12 6 1 -6.85 0.00
 13 6 1 5.85 0.00
 14 6 1 16.97 0.00
 15 6 1 -16.76 0.00
 16 6 1 4.58 0.00
 17 6 1 8.31 0.00
 18 6 1 -8.59 0.00
 19 6 1 -17.19 0.00
 20 6 1 0.26 0.00
 21 6 1 -8.33 0.00
 22 6 1 -0.13 0.00
 23 6 1 -8.01 0.00
 24 6 1 1.38 0.00
 25 6 1 5.33 0.00
 26 6 1 -4.36 0.00
 27 6 1 -4.12 0.00
 28 6 1 -0.50 0.00
 29 6 1 8.39 0.00
 0 7 1 69.73 0.00
 1 7 1 63.35 0.00
 2 7 1 -8.98 0.00
 3 7 1 76.04 0.00
 4 7 1 -7.22 0.00
 5 7 1 -17.88 0.00
 6 7 1 -14.54 0.00
 7 7 1 -30.85 0.00
 8 7 1 22.19 0.00
 9 7 1 2.03 0.00
 10 7 1 20.16 0.00
 11 7 1 -18.35 0.00
 12 7 1 -26.98 0.00
 13 7 1 21.47 0.00
 14 7 1 -5.60 0.00
 15 7 1 -9.59 0.00
 16 7 1 18.78 0.00
 17 7 1 3.74 0.00
 18 7 1 -12.04 0.00
 19 7 1 -0.74 0.00
 20 7 1 4.27 0.00
 21 7 1 12.14 0.00
 22 7 1 -8.64 0.00
 23 7 1 -8.01 0.00
 24 7 1 -1.90 0.00
 25 7 1 -1.39 0.00
 26 7 1 9.18 0.00
 27 7 1 -3.17 0.00
 28 7 1 -6.39 0.00
 29 7 1 -3.48 0.00
 1 8 1 -3.43 0.00
 2 8 1 5.81 0.00
 3 8 1 3.64 0.00
 4 8 1 48.86 0.00
 5 8 1 37.38 0.00
 6 8 1 -47.87 0.00
 7 8 1 -49.81 0.00
 8 8 1 -7.21 0.00
 9 8 1 10.82 0.00
 10 8 1 21.15 0.00
 11 8 1 -54.96 0.00
 12 8 1 -2.74 0.00
 13 8 1 20.66 0.00
 14 8 1 -11.48 0.00
 15 8 1 -13.27 0.00
 16 8 1 -5.42 0.00
 17 8 1 -2.85 0.00
 18 8 1 5.10 0.00
 19 8 1 13.54 0.00
 20 8 1 8.94 0.00
 21 8 1 -2.48 0.00
 22 8 1 -8.71 0.00
 23 8 1 14.43 0.00
 24 8 1 0.78 0.00
 25 8 1 -6.07 0.00
 26 8 1 4.08 0.00
 27 8 1 -1.05 0.00
 28 8 1 4.85 0.00
 29 8 1 -5.62 0.00
 0 9 1 -38.08 0.00
 1 9 1 -31.81 0.00
 2 9 1 -25.96 0.00
 3 9 1 -77.11 0.00
 4 9 1 35.92 0.00
 5 9 1 -4.16 0.00
 6 9 1 0.71 0.00
 7 9 1 -2.86 0.00
 8 9 1 -20.42 0.00
 9 9 1 7.99 0.00
 10 9 1 1.68 0.00
 11 9 1 -28.45 0.00
 12 9 1 9.41 0.00
 13 9 1 37.06 0.00
 14 9 1 4.65 0.00
 15 9 1 -11.67 0.00
 16 9 1 0.03 0.00
 17 9 1 -3.53 0.00
 18 9 1 -19.20 0.00
 19 9 1 17.94 0.00
 20 9 1 25.91 0.00
 21 9 1 -16.91 0.00
 22 9 1 -2.75 0.00
 23 9 1 8.29 0.00
 24 9 1 -6.44 0.00
 25 9 1 2.51 0.00
 26 9 1 5.33 0.00
 27 9 1 6.41 0.00
 28 9 1 0.31 0.00
 29 9 1 -4.60 0.00
 1 10 1 70.47 0.00
 2 10 1 -32.29 0.00
 3 10 1 -13.36 0.00
 4 10 1 -5.61 0.00
 5 10 1 27.35 0.00
 6 10 1 13.48 0.00
 7 10 1 40.66 0.00
 8 10 1 13.64 0.00
 9 10 1 -4.92 0.00
 10 10 1 -15.45 0.00
 11 10 1 17.17 0.00
 12 10 1 2.87 0.00
 13 10 1 -1.50 0.00
 14 10 1 6.51 0.00
 15 10 1 20.05 0.00
 16 10 1 14.05 0.00
 17 10 1 -10.64 0.00
 18 10 1 -16.53 0.00
 19 10 1 13.82 0.00
 20 10 1 3.17 0.00
 21 10 1 -13.83 0.00
 22 10 1 1.37 0.00
 23 10 1 5.79 0.00
 24 10 1 4.29 0.00
 25 10 1 -1.54 0.00
 26 10 1 -9.29 0.00
 27 10 1 7.99 0.00
 28 10 1 2.88 0.00
 29 10 1 -3.09 0.00
 0 11 1 -2.95 0.00
 1 11 1 14.16 0.00
 2 11 1 38.54 0.00
 3 11 1 29.48 0.00
 4 11 1 -42.05 0.00
 5 11 1 32.19 0.00
 6 11 1 7.25 0.00
 7 11 1 14.22 0.00
 8 11 1 11.39 0.00
 9 11 1 20.07 0.00
 10 11 1 -1.65 0.00
 11 11 1 6.49 0.00
 12 11 1 -9.80 0.00
 13 11 1 -29.90 0.00
 14 11 1 0.47 0.00
 15 11 1 4.53 0.00
 16 11 1 -5.70 0.00
 17 11 1 -6.74 0.00
 18 11 1 16.55 0.00
 19 11 1 -3.48 0.00
 20 11 1 -17.82 0.00
 21 11 1 -5.49 0.00
 22 11 1 -1.60 0.00
 23 11 1 -3.74 0.00
 24 11 1 4.97 0.00
 25 11 1 10.55 0.00
 26 11 1 -2.36 0.00
 27 11 1 -19.95 0.00
 28 11 1 -3.91 0.00
 1 12 1 11.10 0.00
 2 12 1 37.44 0.00
 3 12 1 -21.20 0.00
 4 12 1 -22.77 0.00
 5 12 1 -77.50 0.00
 6 12 1 -3.97 0.00
 7 12 1 9.07 0.00
 8 12 1 4.76 0.00
 9 12 1 -26.96 0.00
 10 12 1 -6.84 0.00
 11 12 1 19.90 0.00
 12 12 1 8.65 0.00
 13 12 1 -21.89 0.00
 14 12 1 -8.00 0.00
 15 12 1 1.76 0.00
 16 12 1 -5.92 0.00
 17 12 1 -6.07 0.00
 18 12 1 2.97 0.00
 19 12 1 -1.48 0.00
 20 12 1 5.78 0.00
 21 12 1 0.13 0.00
 22 12 1 -7.88 0.00
 23 12 1 1.48 0.00
 24 12 1 3.75 0.00
 25 12 1 -6.39 0.00
 26 12 1 -0.66 0.00
 27 12 1 0.56 0.00
 28 12 1 1.63 0.00
 0 13 1 -40.79 0.00
 1 13 1 -10.71 0.00
 2 13 1 26.98 0.00
 3 13 1 -7.52 0.00
 4 13 1 0.98 0.00
 5 13 1 -26.39 0.00
 6 13 1 -1.41 0.00
 7 13 1 -11.38 0.00
 8 13 1 -4.73 0.00
 9 13 1 -32.62 0.00
 10 13 1 3.93 0.00
 11 13 1 19.22 0.00
 12 13 1 -2.01 0.00
 13 13 1 0.14 0.00
 14 13 1 12.49 0.00
 15 13 1 18.93 0.00
 16 13 1 -11.10 0.00
 17 13 1 0.38 0.00
 18 13 1 9.94 0.00
 19 13 1 0.13 0.00
 20 13 1 -6.11 0.00
 21 13 1 16.68 0.00
 22 13 1 7.80 0.00
 23 13 1 -5.63 0.00
 24 13 1 0.27 0.00
 25 13 1 -1.44 0.00
 26 13 1 -1.09 0.00
 27 13 1 9.65 0.00
 28 13 1 2.89 0.00
 1 14 1 -42.39 0.00
 2 14 1 8.51 0.00
 3 14 1 35.03 0.00
 4 14 1 -3.92 0.00
 5 14 1 33.53 0.00
 6 14 1 4.61 0.00
 7 14 1 23.57 0.00
 8 14 1 5.96 0.00
 9 14 1 -4.10 0.00
 10 14 1 -6.50 0.00
 11 14 1 5.17 0.00
 12 14 1 -1.96 0.00
 13 14 1 6.50 0.00
 14 14 1 5.09 0.00
 15 14 1 -3.49 0.00
 16 14 1 -3.24 0.00
 17 14 1 10.58 0.00
 18 14 1 5.58 0.00
 19 14 1 -8.33 0.00
 20 14 1 -2.21 0.00
 21 14 1 3.81 0.00
 22 14 1 -2.55 0.00
 23 14 1 -5.57 0.00
 24 14 1 3.37 0.00
 25 14 1 4.19 0.00
 26 14 1 -0.05 0.00
 27 14 1 -6.34 0.00
 28 14 1 -1.58 0.00
 0 15 1 -15.73 0.00
 1 15 1 16.12 0.00
 2 15 1 -2.55 0.00
 3 15 1 4.88 0.00
 4 15 1 3.52 0.00
 5 15 1 5.58 0.00
 6 15 1 -7.42 0.00
 7 15 1 4.65 0.00
 8 15 1 5.24 0.00
 9 15 1 14.46 0.00
 10 15 1 1.66 0.00
 11 15 1 -11.59 0.00
 12 15 1 -5.30 0.00
 13 15 1 -1.09 0.00
 14 15 1 0.84 0.00
 15 15 1 -17.49 0.00
 16 15 1 -2.59 0.00
 17 15 1 2.01 0.00
 18 15 1 -1.44 0.00
 19 15 1 -3.80 0.00
 20 15 1 0.26 0.00
 21 15 1 -11.04 0.00
 22 15 1 1.19 0.00
 23 15 1 6.53 0.00
 24 15 1 -8.03 0.00
 25 15 1 -7.78 0.00
 26 15 1 5.77 0.00
 27 15 1 -0.26 0.00
 1 16 1 13.50 0.00
 2 16 1 -8.51 0.00
 3 16 1 -5.50 0.00
 4 16 1 -3.86 0.00
 5 16 1 -6.73 0.00
 6 16 1 4.05 0.00
 7 16 1 -33.23 0.00
 8 16 1 -3.24 0.00
 9 16 1 3.80 0.00
 10 16 1 2.76 0.00
 11 16 1 -6.82 0.00
 12 16 1 0.56 0.00
 13 16 1 -7.55 0.00
 14 16 1 2.86 0.00
 15 16 1 3.07 0.00
 16 16 1 -0.55 0.00
 17 16 1 -6.68 0.00
 18 16 1 -1.95 0.00
 19 16 1 10.04 0.00
 20 16 1 -1.13 0.00
 21 16 1 0.80 0.00
 22 16 1 0.42 0.00
 23 16 1 3.35 0.00
 24 16 1 3.18 0.00
 25 16 1 6.56 0.00
 26 16 1 -4.22 0.00
 27 16 1 1.97 0.00
 0 17 1 16.14 0.00
 1 17 1 -6.95 0.00
 2 17 1 1.89 0.00
 3 17 1 -24.01 0.00
 4 17 1 -3.83 0.00
 5 17 1 16.14 0.00
 6 17 1 2.61 0.00
 7 17 1 13.09 0.00
 8 17 1 1.43 0.00
 9 17 1 -17.92 0.00
 10 17 1 -1.37 0.00
 11 17 1 18.33 0.00
 12 17 1 0.24 0.00
 13 17 1 5.13 0.00
 14 17 1 -2.09 0.00
 15 17 1 5.95 0.00
 16 17 1 4.53 0.00
 17 17 1 0.08 0.00
 18 17 1 1.55 0.00
 19 17 1 6.91 0.00
 20 17 1 -3.29 0.00
 21 17 1 -0.11 0.00
 22 17 1 3.64 0.00
 23 17 1 5.18 0.00
 24 17 1 -1.59 0.00
 25 17 1 -0.73 0.00
 26 17 1 2.52 0.00
 1 18 1 17.29 0.00
 2 18 1 13.27 0.00
 3 18 1 -22.79 0.00
 4 18 1 -5.97 0.00
 5 18 1 13.94 0.00
 6 18 1 1.16 0.00
 7 18 1 17.30 0.00
 8 18 1 -6.23 0.00
 9 18 1 6.75 0.00
 10 18 1 7.13 0.00
 11 18 1 3.89 0.00
 12 18 1 -2.30 0.00
 13 18 1 7.29 0.00
 14 18 1 -5.91 0.00
 15 18 1 5.32 0.00
 16 18 1 1.05 0.00
 17 18 1 -3.14 0.00
 18 18 1 2.96 0.00
 19 18 1 -6.04 0.00
 20 18 1 0.90 0.00
 21 18 1 -6.93 0.00
 22 18 1 -2.48 0.00
 23 18 1 -1.21 0.00
 24 18 1 2.79 0.00
 25 18 1 -5.85 0.00
 26 18 1 -3.26 0.00
 0 19 1 -3.78 0.00
 1 19 1 8.10 0.00
 2 19 1 -4.66 0.00
 3 19 1 5.85 0.00
 4 19 1 2.65 0.00
 5 19 1 -6.25 0.00
 6 19 1 5.02 0.00
 7 19 1 -5.85 0.00
 8 19 1 -9.72 0.00
 9 19 1 -9.94 0.00
 10 19 1 -1.61 0.00
 11 19 1 3.18 0.00
 12 19 1 9.28 0.00
 13 19 1 -21.61 0.00
 14 19 1 -0.38 0.00
 15 19 1 6.81 0.00
 16 19 1 -6.13 0.00
 17 19 1 -4.43 0.00
 18 19 1 3.31 0.00
 19 19 1 -2.30 0.00
 20 19 1 -1.56 0.00
 21 19 1 -3.74 0.00
 22 19 1 0.13 0.00
 23 19 1 -2.35 0.00
 24 19 1 -0.40 0.00
 25 19 1 -1.14 0.00
 26 19 1 0.31 0.00
 1 20 1 8.68 0.00
 2 20 1 -2.99 0.00
 3 20 1 -5.58 0.00
 4 20 1 -5.99 0.00
 5 20 1 -3.40 0.00
 6 20 1 12.35 0.00
 7 20 1 -10.92 0.00
 8 20 1 0.76 0.00
 9 20 1 -4.15 0.00
 10 20 1 -6.50 0.00
 11 20 1 -8.13 0.00
 12 20 1 -3.87 0.00
 13 20 1 2.00 0.00
 14 20 1 10.41 0.00
 15 20 1 -16.15 0.00
 16 20 1 -2.21 0.00
 17 20 1 13.59 0.00
 18 20 1 -2.05 0.00
 19 20 1 -3.71 0.00
 20 20 1 -2.67 0.00
 21 20 1 16.48 0.00
 22 20 1 2.90 0.00
 23 20 1 -4.09 0.00
 24 20 1 -0.07 0.00
 25 20 1 1.86 0.00
 0 21 1 5.93 0.00
 1 21 1 -3.42 0.00
 2 21 1 2.93 0.00
 3 21 1 -1.18 0.00
 4 21 1 -12.92 0.00
 5 21 1 -2.85 0.00
 6 21 1 5.22 0.00
 7 21 1 -2.00 0.00
 8 21 1 7.05 0.00
 9 21 1 12.66 0.00
 10 21 1 -0.48 0.00
 11 21 1 3.21 0.00
 12 21 1 -4.05 0.00
 13 21 1 7.78 0.00
 14 21 1 -3.97 0.00
 15 21 1 3.58 0.00
 16 21 1 3.61 0.00
 17 21 1 0.62 0.00
 18 21 1 1.23 0.00
 19 21 1 -1.18 0.00
 20 21 1 -1.44 0.00
 21 21 1 8.01 0.00
 22 21 1 1.12 0.00
 23 21 1 -0.22 0.00
 24 21 1 0.67 0.00
 25 21 1 3.20 0.00
 1 22 1 -8.64 0.00
 2 22 1 6.65 0.00
 3 22 1 10.24 0.00
 4 22 1 0.61 0.00
 5 22 1 9.35 0.00
 6 22 1 -9.47 0.00
 7 22 1 3.50 0.00
 8 22 1 -2.50 0.00
 9 22 1 -4.66 0.00
 10 22 1 7.59 0.00
 11 22 1 9.75 0.00
 12 22 1 3.35 0.00
 13 22 1 2.75 0.00
 14 22 1 -6.56 0.00
 15 22 1 -6.02 0.00
 16 22 1 -0.03 0.00
 17 22 1 10.61 0.00
 18 22 1 2.70 0.00
 19 22 1 -11.24 0.00
 20 22 1 0.32 0.00
 21 22 1 -5.79 0.00
 22 22 1 -1.95 0.00
 23 22 1 -2.47 0.00
 24 22 1 2.50 0.00
 0 23 1 -15.65 0.00
 1 23 1 3.86 0.00
 2 23 1 9.42 0.00
 3 23 1 -2.85 0.00
 4 23 1 2.55 0.00
 5 23 1 12.27 0.00
 6 23 1 4.03 0.00
 7 23 1 2.94 0.00
 8 23 1 -10.38 0.00
 9 23 1 -6.85 0.00
 10 23 1 0.34 0.00
 11 23 1 -5.18 0.00
 12 23 1 4.45 0.00
 13 23 1 -0.39 0.00
 14 23 1 -0.75 0.00
 15 23 1 -6.18 0.00
 16 23 1 2.04 0.00
 17 23 1 -1.20 0.00
 18 23 1 -2.04 0.00
 19 23 1 -2.21 0.00
 20 23 1 -1.03 0.00
 21 23 1 0.29 0.00
 22 23 1 -0.02 0.00
 23 23 1 -2.36 0.00
 1 24 1 -7.52 0.00
 2 24 1 -9.99 0.00
 3 24 1 -1.73 0.00
 4 24 1 3.90 0.00
 5 24 1 -11.96 0.00
 6 24 1 6.05 0.00
 7 24 1 1.16 0.00
 8 24 1 1.28 0.00
 9 24 1 -2.83 0.00
 10 24 1 -5.48 0.00
 11 24 1 1.97 0.00
 12 24 1 2.04 0.00
 13 24 1 -5.62 0.00
 14 24 1 -2.82 0.00
 15 24 1 10.48 0.00
 16 24 1 3.01 0.00
 17 24 1 -9.16 0.00
 18 24 1 0.02 0.00
 19 24 1 5.73 0.00
 20 24 1 -0.82 0.00
 21 24 1 3.49 0.00
 22 24 1 0.28 0.00
 23 24 1 2.16 0.00
 0 25 1 1.79 0.00
 1 25 1 -2.49 0.00
 2 25 1 2.92 0.00
 3 25 1 -0.98 0.00
 4 25 1 -13.91 0.00
 5 25 1 -11.67 0.00
 6 25 1 7.23 0.00
 7 25 1 4.88 0.00
 8 25 1 -0.36 0.00
 9 25 1 -2.34 0.00
 10 25 1 1.85 0.00
 11 25 1 2.06 0.00
 12 25 1 0.19 0.00
 13 25 1 -4.78 0.00
 14 25 1 -0.80 0.00
 15 25 1 9.61 0.00
 16 25 1 -1.41 0.00
 17 25 1 -2.26 0.00
 18 25 1 0.15 0.00
 19 25 1 6.03 0.00
 20 25 1 2.97 0.00
 21 25 1 -5.28 0.00
 22 25 1 0.26 0.00
 1 26 1 -2.74 0.00
 2 26 1 2.02 0.00
 3 26 1 11.05 0.00
 4 26 1 3.18 0.00
 5 26 1 -2.41 0.00
 6 26 1 -7.42 0.00
 7 26 1 5.90 0.00
 8 26 1 2.60 0.00
 9 26 1 9.10 0.00
 10 26 1 -1.69 0.00
 11 26 1 -5.22 0.00
 12 26 1 3.56 0.00
 13 26 1 -0.78 0.00
 14 26 1 -0.71 0.00
 15 26 1 -0.50 0.00
 16 26 1 -0.75 0.00
 17 26 1 -2.42 0.00
 18 26 1 -1.62 0.00
 19 26 1 1.34 0.00
 20 26 1 1.03 0.00
 21 26 1 1.95 0.00
 0 27 1 -7.52 0.00
 1 27 1 -0.25 0.00
 2 27 1 5.11 0.00
 3 27 1 7.37 0.00
 4 27 1 1.97 0.00
 5 27 1 -1.71 0.00
 6 27 1 -1.07 0.00
 7 27 1 -5.23 0.00
 8 27 1 1.44 0.00
 9 27 1 7.19 0.00
 10 27 1 -4.24 0.00
 11 27 1 -2.38 0.00
 12 27 1 1.65 0.00
 13 27 1 7.28 0.00
 14 27 1 0.14 0.00
 15 27 1 -3.41 0.00
 16 27 1 1.61 0.00
 17 27 1 -0.20 0.00
 18 27 1 -2.91 0.00
 19 27 1 -3.29 0.00
 20 27 1 -0.32 0.00
 21 27 1 4.70 0.00
 1 28 1 -2.89 0.00
 2 28 1 -2.46 0.00
 3 28 1 -1.23 0.00
 4 28 1 3.77 0.00
 5 28 1 -0.84 0.00
 6 28 1 -4.60 0.00
 7 28 1 -3.80 0.00
 8 28 1 5.24 0.00
 9 28 1 -11.41 0.00
 10 28 1 -3.32 0.00
 11 28 1 8.38 0.00
 12 28 1 -2.71 0.00
 13 28 1 -6.93 0.00
 14 28 1 2.36 0.00
 15 28 1 4.02 0.00
 16 28 1 1.73 0.00
 17 28 1 2.08 0.00
 18 28 1 -1.93 0.00
 19 28 1 -5.29 0.00
 20 28 1 2.67 0.00
 0 29 1 -0.84 0.00
 1 29 1 0.77 0.00
 2 29 1 -0.19 0.00
 3 29 1 -5.43 0.00
 4 29 1 1.89 0.00
 5 29 1 7.69 0.00
 6 29 1 -3.71 0.00
 7 29 1 -4.74 0.00
 8 29 1 3.36 0.00
 9 29 1 5.13 0.00
 10 29 1 1.28 0.00
 11 29 1 -7.17 0.00
 12 29 1 -4.18 0.00
 13 29 1 -0.99 0.00
 14 29 1 1.28 0.00
 15 29 1 -2.69 0.00
 16 29 1 -0.32 0.00
 17 29 1 -2.45 0.00
 18 29 1 1.74 0.00
 19 29 1 -0.30 0.00
 1 30 1 6.11 0.00
 2 30 1 0.62 0.00
 3 30 1 -2.45 0.00
 4 30 1 -2.50 0.00
 5 30 1 1.88 0.00
 6 30 1 2.12 0.00
 7 30 1 2.73 0.00
 8 30 1 -0.38 0.00
 9 30 1 -3.49 0.00
 10 30 1 2.53 0.00
 11 30 1 5.88 0.00
 12 30 1 0.23 0.00
 13 30 1 -1.04 0.00
 14 30 1 -0.54 0.00
 15 30 1 2.79 0.00
 16 30 1 -1.06 0.00
 17 30 1 1.10 0.00
 18 30 1 -1.12 0.00
 0 31 1 3.13 0.00
 1 31 1 0.67 0.00
 2 31 1 -3.49 0.00
 3 31 1 -4.03 0.00
 4 31 1 2.40 0.00
 5 31 1 4.27 0.00
 6 31 1 -1.78 0.00
 7 31 1 2.19 0.00
 8 31 1 -0.50 0.00
 9 31 1 -1.81 0.00
 10 31 1 2.53 0.00
 11 31 1 1.63 0.00
 12 31 1 -1.40 0.00
 13 31 1 1.16 0.00
 14 31 1 2.87 0.00
 15 31 1 3.35 0.00
 16 31 1 -0.34 0.00
 17 31 1 7.15 0.00
 1 32 1 -1.27 0.00
 2 32 1 0.54 0.00
 3 32 1 -1.54 0.00
 4 32 1 0.76 0.00
 5 32 1 -2.33 0.00
 6 32 1 -0.97 0.00
 7 32 1 4.24 0.00
 8 32 1 -2.51 0.00
 9 32 1 6.12 0.00
 10 32 1 4.66 0.00
 11 32 1 -4.22 0.00
 12 32 1 -4.69 0.00
 13 32 1 -0.76 0.00
 14 32 1 -0.44 0.00
 15 32 1 -5.57 0.00
 16 32 1 3.46 0.00
 0 33 1 11.02 0.00
 1 33 1 1.92 0.00
 2 33 1 -7.09 0.00
 3 33 1 1.25 0.00
 4 33 1 3.64 0.00
 5 33 1 -2.80 0.00
 6 33 1 -1.42 0.00
 7 33 1 -2.44 0.00
 8 33 1 -2.73 0.00
 9 33 1 -6.51 0.00
 10 33 1 1.72 0.00
 11 33 1 5.03 0.00
 12 33 1 0.52 0.00
 13 33 1 1.31 0.00
 14 33 1 -3.35 0.00
 15 33 1 -9.24 0.00
 1 34 1 -9.08 0.00
 2 34 1 0.76 0.00
 3 34 1 10.99 0.00
 4 34 1 2.38 0.00
 5 34 1 -6.84 0.00
 6 34 1 -1.21 0.00
 7 34 1 2.33 0.00
 8 34 1 -2.37 0.00
 9 34 1 -3.61 0.00
 10 34 1 2.37 0.00
 11 34 1 -4.89 0.00
 12 34 1 -2.43 0.00
 13 34 1 9.40 0.00
 0 35 1 -0.50 0.00
 1 35 1 -1.13 0.00
 2 35 1 -3.32 0.00
 3 35 1 -2.37 0.00
 4 35 1 2.98 0.00
 5 35 1 -1.57 0.00
 6 35 1 1.83 0.00
 7 35 1 -0.32 0.00
 8 35 1 0.32 0.00
 9 35 1 12.48 0.00
 10 35 1 -1.17 0.00
 11 35 1 -9.21 0.00
 1 36 1 -5.01 0.00
 2 36 1 0.85 0.00
 3 36 1 4.61 0.00
 4 36 1 -3.11 0.00
 5 36 1 -5.69 0.00
 6 36 1 -1.17 0.00
 7 36 1 3.83 0.00
 8 36 1 3.69 0.00
 9 36 1 -6.31 0.00
 0 37 1 1.80 0.00
 1 37 1 -0.87 0.00
 2 37 1 -0.95 0.00
 3 37 1 7.05 0.00
 4 37 1 3.66 0.00
 5 37 1 -0.60 0.00
 6 37 1 -4.59 0.00
 7 37 1 5.38 0.00
 2 0 2 130.22 0.00
 4 0 2 -116.55 0.00
 6 0 2 -38.97 0.00
 8 0 2 18.28 0.00
 10 0 2 9.92 0.00
 12 0 2 5.29 0.00
 14 0 2 -15.62 0.00
 16 0 2 13.57 0.00
 18 0 2 3.30 0.00
 20 0 2 8.64 0.00
 22 0 2 7.45 0.00
 24 0 2 10.65 0.00
 26 0 2 -3.82 0.00
 28 0 2 1.89 0.00
 1 1 2 -16.55 0.00
 2 1 2 -51.11 0.00
 3 1 2 -7.65 0.00
 4 1 2 15.37 0.00
 5 1 2 15.17 0.00
 6 1 2 -1.36 0.00
 7 1 2 -70.61 0.00
 8 1 2 71.10 0.00
 9 1 2 75.39 0.00
 10 1 2 35.41 0.00
 11 1 2 -44.27 0.00
 12 1 2 43.03 0.00
 13 1 2 23.63 0.00
 14 1 2 -2.95 0.00
 15 1 2 -6.86 0.00
 16 1 2 14.03 0.00
 17 1 2 -7.96 0.00
 18 1 2 -7.27 0.00
 19 1 2 7.24 0.00
 20 1 2 -15.23 0.00
 21 1 2 -2.65 0.00
 22 1 2 -1.30 0.00
 23 1 2 -0.75 0.00
 24 1 2 -12.23 0.00
 25 1 2 2.50 0.00
 26 1 2 -17.17 0.00
 27 1 2 -0.09 0.00
 28 1 2 10.55 0.00
 0 2 2 324.01 0.00
 1 2 2 -31.10 0.00
 2 2 2 17.24 0.00
 3 2 2 86.46 0.00
 4 2 2 36.86 0.00
 5 2 2 -38.23 0.00
 6 2 2 61.15 0.00
 7 2 2 -39.29 0.00
 8 2 2 -3.81 0.00
 9 2 2 12.35 0.00
 10 2 2 -19.46 0.00
 11 2 2 -11.61 0.00
 12 2 2 1.47 0.00
 13 2 2 7.96 0.00
 14 2 2 5.58 0.00
 15 2 2 8.79 0.00
 16 2 2 -16.91 0.00
 17 2 2 -5.11 0.00
 18 2 2 0.18 0.00
 19 2 2 -1.55 0.00
 20 2 2 -11.89 0.00
 21 2 2 7.01 0.00
 22 2 2 -5.14 0.00
 23 2 2 -8.19 0.00
 24 2 2 -1.60 0.00
 25 2 2 5.88 0.00
 26 2 2 -4.71 0.00
 27 2 2 0.87 0.00
 28 2 2 6.08 0.00
 29 2 2 -2.83 0.00
 1 3 2 -39.81 0.00
 2 3 2 -40.98 0.00
 3 3 2 5.47 0.00
 4 3 2 -7.57 0.00
 5 3 2 58.46 0.00
 6 3 2 -28.77 0.00
 7 3 2 29.52 0.00
 8 3 2 -37.72 0.00
 9 3 2 -49.24 0.00
 10 3 2 -44.17 0.00
 11 3 2 15.00 0.00
 12 3 2 3.13 0.00
 13 3 2 -6.21 0.00
 14 3 2 -22.69 0.00
 15 3 2 0.73 0.00
 16 3 2 0.39 0.00
 17 3 2 13.54 0.00
 18 3 2 -1.50 0.00
 19 3 2 -5.75 0.00
 20 3 2 5.50 0.00
 21 3 2 -3.31 0.00
 22 3 2 0.06 0.00
 23 3 2 3.80 0.00
 24 3 2 11.32 0.00
 25 3 2 -3.67 0.00
 26 3 2 7.71 0.00
 27 3 2 0.17 0.00
 28 3 2 -5.04 0.00
 29 3 2 0.21 0.00
 0 4 2 66.75 0.00
 1 4 2 3.88 0.00
 2 4 2 -149.38 0.00
 3 4 2 -4.23 0.00
 4 4 2 32.12 0.00
 5 4 2 -19.92 0.00
 6 4 2 -58.74 0.00
 7 4 2 34.21 0.00
 8 4 2 -29.05 0.00
 9 4 2 37.90 0.00
 10 4 2 21.36 0.00
 11 4 2 -12.47 0.00
 12 4 2 5.98 0.00
 13 4 2 -14.75 0.00
 14 4 2 5.72 0.00
 15 4 2 -0.13 0.00
 16 4 2 13.68 0.00
 17 4 2 0.02 0.00
 18 4 2 12.03 0.00
 19 4 2 6.98 0.00
 20 4 2 0.10 0.00
 21 4 2 -8.05 0.00
 22 4 2 5.24 0.00
 23 4 2 -6.51 0.00
 24 4 2 -3.50 0.00
 25 4 2 11.22 0.00
 26 4 2 -0.40 0.00
 27 4 2 -7.28 0.00
 28 4 2 -6.13 0.00
 29 4 2 3.30 0.00
 1 5 2 28.82 0.00
 2 5 2 76.28 0.00
 3 5 2 18.54 0.00
 4 5 2 42.13 0.00
 5 5 2 -53.38 0.00
 6 5 2 34.07 0.00
 7 5 2 -10.84 0.00
 8 5 2 15.52 0.00
 9 5 2 -10.09 0.00
 10 5 2 28.73 0.00
 11 5 2 41.63 0.00
 12 5 2 -30.16 0.00
 13 5 2 -17.07 0.00
 14 5 2 28.41 0.00
 15 5 2 -13.70 0.00
 16 5 2 -2.12 0.00
 17 5 2 1.63 0.00
 18 5 2 -1.62 0.00
 19 5 2 5.75 0.00
 20 5 2 11.62 0.00
 21 5 2 1.33 0.00
 22 5 2 -10.67 0.00
 23 5 2 -2.36 0.00
 24 5 2 7.76 0.00
 25 5 2 1.64 0.00
 26 5 2 -12.80 0.00
 27 5 2 -1.24 0.00
 28 5 2 9.16 0.00
 29 5 2 10.51 0.00
 0 6 2 -48.85 0.00
 1 6 2 -34.59 0.00
 2 6 2 4.35 0.00
 3 6 2 2.74 0.00
 4 6 2 30.62 0.00
 5 6 2 20.99 0.00
 6 6 2 -2.10 0.00
 7 6 2 -12.95 0.00
 8 6 2 56.45 0.00
 9 6 2 -41.44 0.00
 10 6 2 -23.94 0.00
 11 6 2 4.55 0.00
 12 6 2 -6.45 0.00
 13 6 2 31.07 0.00
 14 6 2 -22.74 0.00
 15 6 2 -13.71 0.00
 16 6 2 6.27 0.00
 17 6 2 -5.37 0.00
 18 6 2 -29.64 0.00
 19 6 2 5.67 0.00
 20 6 2 12.72 0.00
 21 6 2 6.15 0.00
 22 6 2 -7.21 0.00
 23 6 2 2.52 0.00
 24 6 2 10.06 0.00
 25 6 2 -5.39 0.00
 26 6 2 -2.13 0.00
 27 6 2 2.17 0.00
 28 6 2 17.85 0.00
 29 6 2 -1.17 0.00
 1 7 2 -67.11 0.00
 2 7 2 -31.61 0.00
 3 7 2 -2.66 0.00
 4 7 2 -58.46 0.00
 6 7 2 -29.16 0.00
 7 7 2 43.33 0.00
 8 7 2 -7.98 0.00
 9 7 2 3.67 0.00
 10 7 2 9.64 0.00
 11 7 2 -35.32 0.00
 12 7 2 1.99 0.00
 13 7 2 16.25 0.00
 14 7 2 1.23 0.00
 15 7 2 29.17 0.00
 16 7 2 -2.32 0.00
 17 7 2 -25.79 0.00
 18 7 2 -2.40 0.00
 19 7 2 10.18 0.00
 20 7 2 3.34 0.00
 21 7 2 -10.51 0.00
 22 7 2 -4.93 0.00
 23 7 2 3.00 0.00
 24 7 2 2.57 0.00
 25 7 2 8.85 0.00
 26 7 2 -4.18 0.00
 27 7 2 -16.09 0.00
 28 7 2 8.63 0.00
 29 7 2 1.86 0.00
 0 8 2 -5.71 0.00
 1 8 2 30.61 0.00
 2 8 2 35.12 0.00
 3 8 2 51.44 0.00
 4 8 2 16.18 0.00
 5 8 2 -72.19 0.00
 6 8 2 -30.50 0.00
 7 8 2 20.66 0.00
 8 8 2 16.49 0.00
 9 8 2 38.89 0.00
 10 8 2 -22.37 0.00
 11 8 2 -26.44 0.00
 12 8 2 38.13 0.00
 13 8 2 -3.53 0.00
 14 8 2 -7.72 0.00
 15 8 2 -2.89 0.00
 16 8 2 12.53 0.00
 17 8 2 14.48 0.00
 18 8 2 6.28 0.00
 19 8 2 -5.23 0.00
 20 8 2 -0.76 0.00
 21 8 2 -14.26 0.00
 22 8 2 0.57 0.00
 23 8 2 2.76 0.00
 24 8 2 -8.96 0.00
 25 8 2 5.47 0.00
 26 8 2 -1.57 0.00
 27 8 2 -0.88 0.00
 28 8 2 -9.42 0.00
 29 8 2 -7.59 0.00
 1 9 2 23.87 0.00
 2 9 2 -32.72 0.00
 3 9 2 58.18 0.00
 4 9 2 42.03 0.00
 5 9 2 -21.19 0.00
 6 9 2 12.40 0.00
 7 9 2 -24.87 0.00
 8 9 2 2.33 0.00
 9 9 2 9.95 0.00
 10 9 2 -16.38 0.00
 11 9 2 3.88 0.00
 12 9 2 15.05 0.00
 13 9 2 -9.41 0.00
 14 9 2 -11.75 0.00
 15 9 2 -8.47 0.00
 16 9 2 -7.60 0.00
 17 9 2 -15.75 0.00
 18 9 2 9.66 0.00
 19 9 2 37.77 0.00
 20 9 2 -18.71 0.00
 21 9 2 -20.47 0.00
 22 9 2 8.69 0.00
 23 9 2 -4.43 0.00
 24 9 2 -4.12 0.00
 25 9 2 12.13 0.00
 26 9 2 2.22 0.00
 27 9 2 -1.82 0.00
 28 9 2 -9.52 0.00
 29 9 2 2.22 0.00
 0 10 2 37.11 0.00
 1 10 2 -47.94 0.00
 2 10 2 -27.93 0.00
 3 10 2 9.79 0.00
 4 10 2 -6.96 0.00
 5 10 2 20.68 0.00
 6 10 2 -21.72 0.00
 7 10 2 -2.39 0.00
 8 10 2 -10.09 0.00
 9 10 2 -16.35 0.00
 10 10 2 3.12 0.00
 11 10 2 7.07 0.00
 12 10 2 -21.36 0.00
 13 10 2 12.45 0.00
 14 10 2 8.15 0.00
 15 10 2 2.82 0.00
 16 10 2 -9.27 0.00
 17 10 2 -19.90 0.00
 18 10 2 7.75 0.00
 19 10 2 13.96 0.00
 20 10 2 -8.80 0.00
 21 10 2 5.53 0.00
 22 10 2 9.29 0.00
 23 10 2 0.64 0.00
 24 10 2 -0.28 0.00
 25 10 2 -8.64 0.00
 26 10 2 9.78 0.00
 27 10 2 9.03 0.00
 28 10 2 -8.48 0.00
 1 11 2 33.63 0.00
 2 11 2 36.05 0.00
 3 11 2 -80.62 0.00
 4 11 2 13.15 0.00
 5 11 2 44.70 0.00
 6 11 2 -12.31 0.00
 7 11 2 6.09 0.00
 8 11 2 1.68 0.00
 9 11 2 -7.77 0.00
 10 11 2 9.12 0.00
 11 11 2 -0.32 0.00
 12 11 2 -19.67 0.00
 13 11 2 9.38 0.00
 14 11 2 17.37 0.00
 15 11 2 -0.53 0.00
 16 11 2 -5.64 0.00
 17 11 2 19.49 0.00
 18 11 2 13.28 0.00
 19 11 2 -29.41 0.00
 20 11 2 2.73 0.00
 21 11 2 11.66 0.00
 22 11 2 2.42 0.00
 23 11 2 7.68 0.00
 24 11 2 6.37 0.00
 25 11 2 -8.65 0.00
 26 11 2 -8.89 0.00
 27 11 2 -1.41 0.00
 28 11 2 18.07 0.00
 0 12 2 -24.33 0.00
 1 12 2 36.92 0.00
 2 12 2 -2.12 0.00
 3 12 2 -48.81 0.00
 4 12 2 3.82 0.00
 5 12 2 13.41 0.00
 6 12 2 42.07 0.00
 7 12 2 4.22 0.00
 8 12 2 0.24 0.00
 9 12 2 -7.02 0.00
 10 12 2 13.12 0.00
 11 12 2 8.69 0.00
 12 12 2 -0.41 0.00
 13 12 2 -14.89 0.00
 14 12 2 10.44 0.00
 15 12 2 -1.69 0.00
 16 12 2 -10.39 0.00
 17 12 2 7.00 0.00
 18 12 2 -5.00 0.00
 19 12 2 -0.23 0.00
 20 12 2 6.01 0.00
 21 12 2 -10.02 0.00
 22 12 2 -4.03 0.00
 23 12 2 5.59 0.00
 24 12 2 -10.93 0.00
 25 12 2 -2.17 0.00
 26 12 2 8.25 0.00
 27 12 2 -0.55 0.00
 28 12 2 -0.33 0.00
 1 13 2 57.02 0.00
 2 13 2 -30.73 0.00
 3 13 2 -22.41 0.00
 4 13 2 -19.94 0.00
 6 13 2 12.50 0.00
 7 13 2 -8.74 0.00
 8 13 2 -10.74 0.00
 9 13 2 7.83 0.00
 10 13 2 9.59 0.00
 11 13 2 -3.97 0.00
 12 13 2 -5.27 0.00
 13 13 2 9.27 0.00
 14 13 2 10.97 0.00
 15 13 2 -17.53 0.00
 16 13 2 -8.47 0.00
 17 13 2 12.79 0.00
 18 13 2 -7.21 0.00
 19 13 2 -9.20 0.00
 20 13 2 0.99 0.00
 21 13 2 7.95 0.00
 22 13 2 -6.88 0.00
 23 13 2 -2.80 0.00
 24 13 2 3.34 0.00
 25 13 2 -5.22 0.00
 26 13 2 0.39 0.00
 27 13 2 5.24 0.00
 28 13 2 -5.16 0.00
 0 14 2 -22.68 0.00
 1 14 2 12.05 0.00
 2 14 2 38.83 0.00
 3 14 2 0.10 0.00
 4 14 2 -24.01 0.00
 5 14 2 3.39 0.00
 6 14 2 -11.52 0.00
 7 14 2 5.40 0.00
 8 14 2 -5.80 0.00
 9 14 2 -13.46 0.00
 10 14 2 -2.67 0.00
 11 14 2 5.64 0.00
 12 14 2 -3.12 0.00
 13 14 2 6.60 0.00
 14 14 2 -11.06 0.00
 15 14 2 -1.05 0.00
 16 14 2 13.78 0.00
 17 14 2 5.19 0.00
 18 14 2 -0.05 0.00
 19 14 2 -5.53 0.00
 20 14 2 2.21 0.00
 21 14 2 0.71 0.00
 22 14 2 -3.37 0.00
 23 14 2 3.05 0.00
 24 14 2 9.82 0.00
 25 14 2 -0.13 0.00
 26 14 2 -4.80 0.00
 27 14 2 -1.66 0.00
 1 15 2 11.14 0.00
 2 15 2 18.21 0.00
 3 15 2 8.60 0.00
 4 15 2 5.44 0.00
 5 15 2 -3.40 0.00
 6 15 2 -18.31 0.00
 7 15 2 9.55 0.00
 8 15 2 18.23 0.00
 9 15 2 -2.50 0.00
 10 15 2 -13.01 0.00
 11 15 2 -11.25 0.00
 12 15 2 12.85 0.00
 13 15 2 2.44 0.00
 14 15 2 -14.93 0.00
 15 15 2 -1.99 0.00
 16 15 2 5.80 0.00
 17 15 2 -1.51 0.00
 18 15 2 4.72 0.00
 19 15 2 4.25 0.00
 20 15 2 -3.50 0.00
 21 15 2 -2.57 0.00
 22 15 2 2.86 0.00
 23 15 2 -3.52 0.00
 24 15 2 -7.22 0.00
 25 15 2 8.81 0.00
 26 15 2 -1.88 0.00
 27 15 2 -4.20 0.00
 0 16 2 2.83 0.00
 1 16 2 -19.09 0.00
 2 16 2 -11.90 0.00
 3 16 2 2.98 0.00
 4 16 2 7.21 0.00
 5 16 2 -1.60 0.00
 6 16 2 -7.14 0.00
 7 16 2 -0.83 0.00
 8 16 2 2.30 0.00
 9 16 2 2.28 0.00
 10 16 2 -4.59 0.00
 11 16 2 3.78 0.00
 12 16 2 5.81 0.00
 13 16 2 -4.47 0.00
 14 16 2 8.12 0.00
 15 16 2 -0.22 0.00
 16 16 2 -11.25 0.00
 17 16 2 -4.14 0.00
 18 16 2 5.63 0.00
 19 16 2 3.83 0.00
 20 16 2 -4.27 0.00
 21 16 2 1.38 0.00
 22 16 2 0.62 0.00
 23 16 2 2.92 0.00
 24 16 2 -0.04 0.00
 25 16 2 -4.90 0.00
 26 16 2 -2.65 0.00
 27 16 2 3.85 0.00
 1 17 2 -15.68 0.00
 2 17 2 -12.56 0.00
 3 17 2 -5.19 0.00
 4 17 2 15.71 0.00
 5 17 2 4.03 0.00
 6 17 2 6.42 0.00
 7 17 2 -2.14 0.00
 8 17 2 -4.12 0.00
 9 17 2 0.69 0.00
 10 17 2 -3.19 0.00
 11 17 2 6.70 0.00
 12 17 2 -2.51 0.00
 13 17 2 1.68 0.00
 14 17 2 4.68 0.00
 15 17 2 7.29 0.00
 16 17 2 -3.86 0.00
 17 17 2 -3.04 0.00
 18 17 2 3.97 0.00
 19 17 2 -1.18 0.00
 20 17 2 -2.21 0.00
 21 17 2 1.81 0.00
 22 17 2 5.73 0.00
 23 17 2 -1.50 0.00
 24 17 2 3.72 0.00
 25 17 2 0.96 0.00
 26 17 2 8.09 0.00
 0 18 2 24.89 0.00
 1 18 2 15.59 0.00
 2 18 2 -12.64 0.00
 3 18 2 -9.47 0.00
 4 18 2 11.07 0.00
 5 18 2 4.77 0.00
 6 18 2 9.58 0.00
 7 18 2 -0.41 0.00
 8 18 2 4.90 0.00
 9 18 2 3.54 0.00
 10 18 2 2.07 0.00
 11 18 2 -3.65 0.00
 12 18 2 -2.97 0.00
 13 18 2 -8.98 0.00
 14 18 2 -0.90 0.00
 15 18 2 9.54 0.00
 16 18 2 -2.99 0.00
 17 18 2 -3.32 0.00
 18 18 2 1.28 0.00
 19 18 2 0.53 0.00
 20 18 2 -2.45 0.00
 21 18 2 -7.30 0.00
 22 18 2 3.89 0.00
 23 18 2 3.92 0.00
 24 18 2 -1.33 0.00
 25 18 2 -5.76 0.00
 26 18 2 1.56 0.00
 1 19 2 -4.99 0.00
 2 19 2 8.92 0.00
 3 19 2 8.76 0.00
 4 19 2 -13.75 0.00
 5 19 2 -2.39 0.00
 6 19 2 -7.73 0.00
 7 19 2 -10.32 0.00
 8 19 2 -0.36 0.00
 9 19 2 3.40 0.00
 10 19 2 8.23 0.00
 11 19 2 6.14 0.00
 12 19 2 -6.95 0.00
 13 19 2 -10.29 0.00
 14 19 2 9.81 0.00
 15 19 2 -6.38 0.00
 16 19 2 -6.10 0.00
 17 19 2 5.22 0.00
 18 19 2 1.73 0.00
 19 19 2 -0.91 0.00
 20 19 2 -2.09 0.00
 21 19 2 -0.92 0.00
 22 19 2 -4.31 0.00
 23 19 2 2.24 0.00
 24 19 2 -1.97 0.00
 25 19 2 -0.81 0.00
 26 19 2 -6.61 0.00
 0 20 2 -6.34 0.00
 1 20 2 -3.36 0.00
 2 20 2 -5.82 0.00
 3 20 2 -2.18 0.00
 4 20 2 -5.41 0.00
 5 20 2 10.27 0.00
 6 20 2 -4.45 0.00
 7 20 2 -5.80 0.00
 8 20 2 -4.53 0.00
 9 20 2 -11.56 0.00
 10 20 2 -5.04 0.00
 11 20 2 7.86 0.00
 12 20 2 7.48 0.00
 13 20 2 12.77 0.00
 14 20 2 -6.73 0.00
 15 20 2 -5.57 0.00
 16 20 2 11.80 0.00
 17 20 2 -1.77 0.00
 18 20 2 -5.09 0.00
 19 20 2 3.69 0.00
 20 20 2 7.08 0.00
 21 20 2 4.42 0.00
 22 20 2 -8.02 0.00
 23 20 2 -0.45 0.00
 24 20 2 0.86 0.00
 25 20 2 -0.95 0.00
 1 21 2 -7.18 0.00
 2 21 2 -1.46 0.00
 3 21 2 -5.72 0.00
 4 21 2 0.56 0.00
 5 21 2 12.11 0.00
 6 21 2 7.50 0.00
 7 21 2 6.59 0.00
 8 21 2 7.93 0.00
 9 21 2 -5.75 0.00
 10 21 2 -2.96 0.00
 11 21 2 -3.82 0.00
 12 21 2 0.37 0.00
 13 21 2 2.44 0.00
 14 21 2 -2.06 0.00
 15 21 2 6.75 0.00
 16 21 2 -0.17 0.00
 17 21 2 -1.28 0.00
 18 21 2 -0.59 0.00
 19 21 2 -0.36 0.00
 20 21 2 2.60 0.00
 21 21 2 -0.76 0.00
 22 21 2 -0.88 0.00
 23 21 2 -0.32 0.00
 24 21 2 3.49 0.00
 25 21 2 -0.87 0.00
 0 22 2 4.53 0.00
 1 22 2 2.77 0.00
 2 22 2 6.96 0.00
 3 22 2 -4.99 0.00
 4 22 2 3.38 0.00
 5 22 2 -10.45 0.00
 6 22 2 -1.97 0.00
 7 22 2 7.78 0.00
 8 22 2 -2.37 0.00
 9 22 2 8.76 0.00
 10 22 2 4.24 0.00
 11 22 2 -2.85 0.00
 12 22 2 -2.05 0.00
 13 22 2 -13.47 0.00
 14 22 2 -5.73 0.00
 15 22 2 3.94 0.00
 16 22 2 2.61 0.00
 17 22 2 -1.58 0.00
 18 22 2 -6.99 0.00
 19 22 2 -0.54 0.00
 20 22 2 -0.75 0.00
 21 22 2 -3.33 0.00
 22 22 2 4.68 0.00
 23 22 2 3.24 0.00
 24 22 2 2.14 0.00
 1 23 2 15.01 0.00
 2 23 2 -3.71 0.00
 3 23 2 -1.06 0.00
 4 23 2 7.31 0.00
 5 23 2 -5.52 0.00
 6 23 2 -6.25 0.00
 7 23 2 -11.67 0.00
 8 23 2 -9.90 0.00
 9 23 2 6.99 0.00
 10 23 2 -1.80 0.00
 11 23 2 2.29 0.00
 12 23 2 -0.01 0.00
 13 23 2 -2.11 0.00
 14 23 2 -0.96 0.00
 15 23 2 1.39 0.00
 16 23 2 3.19 0.00
 17 23 2 -4.76 0.00
 18 23 2 -2.01 0.00
 19 23 2 -0.78 0.00
 20 23 2 3.69 0.00
 21 23 2 2.49 0.00
 22 23 2 1.71 0.00
 23 23 2 0.49 0.00
 0 24 2 5.28 0.00
 1 24 2 -4.85 0.00
 2 24 2 -9.87 0.00
 3 24 2 12.64 0.00
 4 24 2 0.22 0.00
 5 24 2 5.07 0.00
 6 24 2 2.10 0.00
 7 24 2 -3.93 0.00
 8 24 2 6.85 0.00
 9 24 2 -5.90 0.00
 10 24 2 2.04 0.00
 11 24 2 4.15 0.00
 12 24 2 -1.62 0.00
 13 24 2 -1.91 0.00
 14 24 2 9.32 0.00
 15 24 2 8.95 0.00
 16 24 2 -1.47 0.00
 17 24 2 -2.09 0.00
 18 24 2 5.33 0.00
 19 24 2 0.03 0.00
 20 24 2 -2.91 0.00
 21 24 2 0.22 0.00
 22 24 2 3.25 0.00
 23 24 2 -0.92 0.00
 1 25 2 -5.19 0.00
 2 25 2 0.86 0.00
 3 25 2 -9.55 0.00
 4 25 2 -2.21 0.00
 5 25 2 16.42 0.00
 6 25 2 3.70 0.00
 7 25 2 -3.62 0.00
 8 25 2 -0.64 0.00
 9 25 2 4.82 0.00
 10 25 2 10.53 0.00
 11 25 2 -2.12 0.00
 12 25 2 -3.88 0.00
 13 25 2 -1.39 0.00
 14 25 2 2.96 0.00
 15 25 2 -0.90 0.00
 16 25 2 -2.17 0.00
 17 25 2 3.36 0.00
 18 25 2 1.06 0.00
 19 25 2 3.13 0.00
 20 25 2 -8.80 0.00
 21 25 2 -2.64 0.00
 22 25 2 0.17 0.00
 0 26 2 0.68 0.00
 1 26 2 0.99 0.00
 2 26 2 0.89 0.00
 3 26 2 -3.60 0.00
 4 26 2 5.20 0.00
 5 26 2 -8.67 0.00
 6 26 2 -1.76 0.00
 7 26 2 4.56 0.00
 8 26 2 -3.89 0.00
 9 26 2 -0.18 0.00
 10 26 2 -8.94 0.00
 11 26 2 3.47 0.00
 12 26 2 1.44 0.00
 13 26 2 -4.22 0.00
 14 26 2 -9.70 0.00
 15 26 2 -0.62 0.00
 16 26 2 -2.52 0.00
 17 26 2 -2.69 0.00
 18 26 2 -0.82 0.00
 19 26 2 2.65 0.00
 20 26 2 -1.08 0.00
 21 26 2 -0.25 0.00
 1 27 2 6.76 0.00
 2 27 2 -1.33 0.00
 3 27 2 0.95 0.00
 4 27 2 -2.10 0.00
 5 27 2 -4.87 0.00
 6 27 2 2.62 0.00
 7 27 2 -0.41 0.00
 8 27 2 1.43 0.00
 9 27 2 -3.89 0.00
 10 27 2 -6.61 0.00
 11 27 2 4.53 0.00
 12 27 2 5.67 0.00
 13 27 2 -0.91 0.00
 14 27 2 -5.16 0.00
 15 27 2 0.29 0.00
 16 27 2 4.53 0.00
 17 27 2 -3.81 0.00
 18 27 2 -0.60 0.00
 19 27 2 0.46 0.00
 20 27 2 7.49 0.00
 21 27 2 1.97 0.00
 0 28 2 -1.51 0.00
 1 28 2 -0.68 0.00
 2 28 2 -1.76 0.00
 3 28 2 2.72 0.00
 4 28 2 -1.72 0.00
 5 28 2 -2.36 0.00
 6 28 2 -3.92 0.00
 7 28 2 5.27 0.00
 8 28 2 2.84 0.00
 9 28 2 -5.61 0.00
 10 28 2 9.22 0.00
 11 28 2 1.05 0.00
 12 28 2 0.45 0.00
 13 28 2 4.85 0.00
 14 28 2 9.30 0.00
 15 28 2 1.21 0.00
 16 28 2 4.27 0.00
 17 28 2 -4.27 0.00
 18 28 2 2.81 0.00
 19 28 2 4.39 0.00
 20 28 2 1.98 0.00
 1 29 2 0.01 0.00
 2 29 2 1.18 0.00
 3 29 2 2.43 0.00
 4 29 2 3.09 0.00
 5 29 2 -2.82 0.00
 6 29 2 -5.27 0.00
 7 29 2 5.77 0.00
 8 29 2 6.50 0.00
 9 29 2 -2.71 0.00
 10 29 2 -6.37 0.00
 11 29 2 -6.24 0.00
 12 29 2 3.98 0.00
 13 29 2 5.43 0.00
 14 29 2 -5.10 0.00
 15 29 2 -0.90 0.00
 16 29 2 -1.97 0.00
 17 29 2 3.23 0.00
 18 29 2 -1.29 0.00
 19 29 2 -3.16 0.00
 0 30 2 4.74 0.00
 1 30 2 1.99 0.00
 2 30 2 -1.55 0.00
 3 30 2 -3.43 0.00
 4 30 2 6.20 0.00
 5 30 2 7.80 0.00
 6 30 2 -3.78 0.00
 7 30 2 -3.83 0.00
 8 30 2 -2.05 0.00
 9 30 2 1.74 0.00
 10 30 2 -1.76 0.00
 11 30 2 -2.70 0.00
 12 30 2 -3.91 0.00
 13 30 2 -4.59 0.00
 14 30 2 -5.64 0.00
 15 30 2 0.15 0.00
 16 30 2 -8.25 0.00
 17 30 2 -0.43 0.00
 18 30 2 -3.39 0.00
 1 31 2 -2.84 0.00
 2 31 2 -1.72 0.00
 3 31 2 0.52 0.00
 4 31 2 -1.33 0.00
 5 31 2 -2.84 0.00
 6 31 2 1.42 0.00
 7 31 2 0.05 0.00
 8 31 2 -5.03 0.00
 9 31 2 4.65 0.00
 10 31 2 -2.55 0.00
 11 31 2 -2.90 0.00
 12 31 2 4.29 0.00
 13 31 2 4.27 0.00
 14 31 2 4.01 0.00
 15 31 2 -4.35 0.00
 16 31 2 5.51 0.00
 17 31 2 -0.40 0.00
 0 32 2 -3.64 0.00
 1 32 2 -0.87 0.00
 2 32 2 -0.59 0.00
 3 32 2 -2.70 0.00
 4 32 2 -0.81 0.00
 5 32 2 -0.59 0.00
 6 32 2 3.70 0.00
 7 32 2 -2.91 0.00
 8 32 2 6.32 0.00
 9 32 2 8.32 0.00
 10 32 2 -3.30 0.00
 11 32 2 -4.77 0.00
 12 32 2 3.63 0.00
 13 32 2 3.88 0.00
 14 32 2 3.40 0.00
 15 32 2 6.28 0.00
 16 32 2 8.00 0.00
 1 33 2 -10.61 0.00
 2 33 2 4.21 0.00
 3 33 2 5.00 0.00
 4 33 2 -0.91 0.00
 5 33 2 0.35 0.00
 6 33 2 3.21 0.00
 7 33 2 -1.51 0.00
 8 33 2 -1.66 0.00
 9 33 2 3.68 0.00
 10 33 2 10.40 0.00
 11 33 2 -1.12 0.00
 12 33 2 -5.81 0.00
 13 33 2 -2.87 0.00
 14 33 2 -8.55 0.00
 0 34 2 -8.51 0.00
 1 34 2 3.45 0.00
 2 34 2 10.19 0.00
 3 34 2 1.96 0.00
 4 34 2 -6.28 0.00
 5 34 2 -3.03 0.00
 6 34 2 -0.05 0.00
 7 34 2 -2.29 0.00
 8 34 2 -3.83 0.00
 9 34 2 2.87 0.00
 10 34 2 -5.22 0.00
 11 34 2 -4.76 0.00
 12 34 2 4.89 0.00
 13 34 2 1.94 0.00
 1 35 2 1.75 0.00
 2 35 2 -7.59 0.00
 3 35 2 3.52 0.00
 4 35 2 0.98 0.00
 5 35 2 0.25 0.00
 6 35 2 -1.56 0.00
 7 35 2 -3.40 0.00
 8 35 2 5.03 0.00
 9 35 2 -2.54 0.00
 10 35 2 -6.90 0.00
 11 35 2 1.65 0.00
 0 36 2 1.55 0.00
 1 36 2 -1.62 0.00
 2 36 2 -1.09 0.00
 3 36 2 -3.74 0.00
 4 36 2 -4.96 0.00
 5 36 2 1.38 0.00
 6 36 2 3.57 0.00
 7 36 2 5.48 0.00
 8 36 2 -0.30 0.00
 9 36 2 -2.54 0.00
 1 37 2 -1.65 0.00
 2 37 2 8.69 0.00
 3 37 2 2.17 0.00
 4 37 2 -1.54 0.00
 5 37 2 -6.76 0.00
 6 37 2 -0.54 0.00
 1 0 3 111.71 0.00
 3 0 3 -5.55 0.00
 5 0 3 30.87 0.00
 7 0 3 17.01 0.00
 9 0 3 -18.64 0.00
 11 0 3 -32.15 0.00
 13 0 3 -34.53 0.00
 15 0 3 27.58 0.00
 17 0 3 -19.16 0.00
 19 0 3 0.00 0.00
 21 0 3 -2.58 0.00
 23 0 3 10.41 0.00
 25 0 3 -5.78 0.00
 27 0 3 11.66 0.00
 1 1 3 -52.55 0.00
 2 1 3 55.78 0.00
 3 1 3 -72.75 0.00
 4 1 3 -28.93 0.00
 5 1 3 -56.65 0.00
 6 1 3 -1.56 0.00
 7 1 3 49.94 0.00
 8 1 3 60.53 0.00
 9 1 3 -10.10 0.00
 10 1 3 -46.86 0.00
 11 1 3 -9.99 0.00
 12 1 3 26.14 0.00
 13 1 3 -39.65 0.00
 14 1 3 -10.42 0.00
 15 1 3 3.29 0.00
 16 1 3 -5.59 0.00
 17 1 3 -2.78 0.00
 18 1 3 2.71 0.00
 19 1 3 6.62 0.00
 20 1 3 2.35 0.00
 21 1 3 10.46 0.00
 22 1 3 -7.24 0.00
 23 1 3 5.62 0.00
 24 1 3 4.32 0.00
 25 1 3 6.89 0.00
 26 1 3 -0.48 0.00
 27 1 3 13.29 0.00
 28 1 3 -3.86 0.00
 29 1 3 -7.32 0.00
 1 2 3 -200.86 0.00
 2 2 3 21.93 0.00
 3 2 3 79.69 0.00
 4 2 3 -72.25 0.00
 5 2 3 -20.13 0.00
 6 2 3 -22.15 0.00
 7 2 3 -39.45 0.00
 8 2 3 27.36 0.00
 9 2 3 15.29 0.00
 10 2 3 -11.74 0.00
 11 2 3 42.95 0.00
 12 2 3 10.43 0.00
 13 2 3 3.35 0.00
 14 2 3 -0.50 0.00
 15 2 3 -5.15 0.00
 16 2 3 -3.96 0.00
 17 2 3 9.94 0.00
 18 2 3 -5.85 0.00
 19 2 3 4.07 0.00
 20 2 3 3.36 0.00
 21 2 3 8.03 0.00
 22 2 3 -3.14 0.00
 23 2 3 -8.34 0.00
 24 2 3 5.84 0.00
 25 2 3 -2.30 0.00
 26 2 3 -2.55 0.00
 27 2 3 0.02 0.00
 28 2 3 0.00 0.00
 29 2 3 -10.99 0.00
 0 3 3 -43.69 0.00
 1 3 3 -5.72 0.00
 2 3 3 56.34 0.00
 3 3 3 58.27 0.00
 4 3 3 -17.93 0.00
 5 3 3 38.39 0.00
 6 3 3 -3.56 0.00
 7 3 3 -7.84 0.00
 8 3 3 -84.70 0.00
 9 3 3 -13.21 0.00
 10 3 3 53.06 0.00
 11 3 3 33.39 0.00
 12 3 3 -26.28 0.00
 13 3 3 9.52 0.00
 14 3 3 9.54 0.00
 15 3 3 2.66 0.00
 16 3 3 17.06 0.00
 17 3 3 -5.42 0.00
 18 3 3 -12.27 0.00
 19 3 3 1.07 0.00
 20 3 3 8.03 0.00
 21 3 3 -13.36 0.00
 22 3 3 2.19 0.00
 23 3 3 2.39 0.00
 24 3 3 1.75 0.00
 25 3 3 -8.36 0.00
 26 3 3 2.07 0.00
 27 3 3 -5.26 0.00
 28 3 3 -7.29 0.00
 29 3 3 2.83 0.00
 1 4 3 -69.40 0.00
 2 4 3 7.13 0.00
 3 4 3 41.65 0.00
 4 4 3 45.86 0.00
 5 4 3 -51.84 0.00
 6 4 3 17.38 0.00
 7 4 3 42.73 0.00
 8 4 3 16.82 0.00
 9 4 3 1.80 0.00
 10 4 3 -21.24 0.00
 11 4 3 -17.05 0.00
 12 4 3 -0.17 0.00
 13 4 3 -0.40 0.00
 14 4 3 -0.22 0.00
 15 4 3 5.95 0.00
 16 4 3 11.64 0.00
 17 4 3 -13.29 0.00
 18 4 3 1.59 0.00
 19 4 3 -13.57 0.00
 20 4 3 -7.17 0.00
 21 4 3 0.82 0.00
 22 4 3 1.40 0.00
 23 4 3 -7.49 0.00
 24 4 3 4.64 0.00
 25 4 3 5.81 0.00
 26 4 3 -10.75 0.00
 27 4 3 0.84 0.00
 29 4 3 -0.01 0.00
 0 5 3 18.16 0.00
 1 5 3 47.69 0.00
 2 5 3 13.95 0.00
 3 5 3 0.80 0.00
 4 5 3 -30.58 0.00
 5 5 3 -31.95 0.00
 6 5 3 58.82 0.00
 7 5 3 -21.46 0.00
 8 5 3 -11.64 0.00
 9 5 3 29.29 0.00
 10 5 3 47.12 0.00
 11 5 3 -55.14 0.00
 12 5 3 -35.57 0.00
 13 5 3 28.27 0.00
 14 5 3 2.18 0.00
 15 5 3 -13.05 0.00
 16 5 3 0.10 0.00
 17 5 3 6.79 0.00
 18 5 3 -0.73 0.00
 19 5 3 5.15 0.00
 20 5 3 -8.22 0.00
 21 5 3 -3.63 0.00
 22 5 3 -5.23 0.00
 23 5 3 8.80 0.00
 24 5 3 -2.87 0.00
 25 5 3 -7.05 0.00
 26 5 3 1.26 0.00
 27 5 3 10.67 0.00
 29 5 3 -16.34 0.00
 1 6 3 48.64 0.00
 2 6 3 -26.77 0.00
 3 6 3 13.96 0.00
 4 6 3 35.85 0.00
 5 6 3 -3.13 0.00
 6 6 3 -38.73 0.00
 7 6 3 10.85 0.00
 8 6 3 -18.05 0.00
 9 6 3 -34.72 0.00
 10 6 3 6.02 0.00
 11 6 3 0.28 0.00
 12 6 3 17.93 0.00
 13 6 3 -11.65 0.00
 14 6 3 -30.89 0.00
 15 6 3 13.14 0.00
 16 6 3 6.76 0.00
 17 6 3 -13.27 0.00
 18 6 3 -0.39 0.00
 19 6 3 36.12 0.00
 20 6 3 6.33 0.00
 21 6 3 -14.54 0.00
 22 6 3 -2.47 0.00
 23 6 3 14.88 0.00
 24 6 3 -1.13 0.00
 25 6 3 -8.36 0.00
 26 6 3 7.79 0.00
 27 6 3 13.78 0.00
 0 7 3 -92.11 0.00
 1 7 3 -65.49 0.00
 2 7 3 10.14 0.00
 3 7 3 -9.60 0.00
 4 7 3 -34.34 0.00
 5 7 3 -15.17 0.00
 6 7 3 27.66 0.00
 7 7 3 11.81 0.00
 8 7 3 -18.32 0.00
 9 7 3 20.16 0.00
 10 7 3 -21.85 0.00
 11 7 3 -9.97 0.00
 12 7 3 17.29 0.00
 13 7 3 11.27 0.00
 14 7 3 16.05 0.00
 15 7 3 -7.98 0.00
 16 7 3 -28.57 0.00
 17 7 3 -0.99 0.00
 18 7 3 23.31 0.00
 19 7 3 4.06 0.00
 20 7 3 -1.76 0.00
 21 7 3 -0.44 0.00
 22 7 3 9.98 0.00
 23 7 3 -3.71 0.00
 24 7 3 6.63 0.00
 25 7 3 -0.86 0.00
 26 7 3 -12.82 0.00
 27 7 3 12.40 0.00
 28 7 3 5.95 0.00
 29 7 3 -2.03 0.00
 1 8 3 25.17 0.00
 2 8 3 17.36 0.00
 3 8 3 -13.30 0.00
 4 8 3 -72.00 0.00
 5 8 3 3.31 0.00
 6 8 3 28.74 0.00
 7 8 3 8.29 0.00
 8 8 3 36.31 0.00
 9 8 3 13.76 0.00
 10 8 3 -28.10 0.00
 11 8 3 29.61 0.00
 12 8 3 27.18 0.00
 13 8 3 -8.63 0.00
 14 8 3 -3.78 0.00
 15 8 3 9.75 0.00
 16 8 3 17.95 0.00
 17 8 3 -6.26 0.00
 18 8 3 -16.59 0.00
 19 8 3 -2.26 0.00
 20 8 3 0.69 0.00
 21 8 3 -6.88 0.00
 22 8 3 1.16 0.00
 23 8 3 1.19 0.00
 24 8 3 1.43 0.00
 25 8 3 -1.19 0.00
 26 8 3 -10.53 0.00
 27 8 3 -2.70 0.00
 28 8 3 -4.84 0.00
 29 8 3 6.45 0.00
 0 9 3 56.79 0.00
 1 9 3 13.85 0.00
 2 9 3 43.23 0.00
 3 9 3 72.42 0.00
 4 9 3 -19.16 0.00
 5 9 3 7.53 0.00
 6 9 3 -6.61 0.00
 7 9 3 8.59 0.00
 8 9 3 6.54 0.00
 9 9 3 -15.45 0.00
 10 9 3 -1.75 0.00
 11 9 3 10.71 0.00
 12 9 3 -6.29 0.00
 13 9 3 -2.86 0.00
 14 9 3 0.60 0.00
 15 9 3 -10.01 0.00
 16 9 3 -7.55 0.00
 17 9 3 5.45 0.00
 18 9 3 19.21 0.00
 19 9 3 -12.13 0.00
 20 9 3 -31.15 0.00
 21 9 3 6.81 0.00
 22 9 3 0.87 0.00
 23 9 3 -4.79 0.00
 24 9 3 6.30 0.00
 25 9 3 4.84 0.00
 26 9 3 -7.69 0.00
 27 9 3 -13.07 0.00
 28 9 3 0.29 0.00
 1 10 3 -22.74 0.00
 2 10 3 29.91 0.00
 3 10 3 -20.22 0.00
 4 10 3 20.22 0.00
 5 10 3 -34.25 0.00
 6 10 3 -10.35 0.00
 7 10 3 14.25 0.00
 8 10 3 -7.07 0.00
 9 10 3 -19.82 0.00
 10 10 3 -14.24 0.00
 11 10 3 -30.35 0.00
 12 10 3 3.20 0.00
 13 10 3 12.68 0.00
 14 10 3 -13.85 0.00
 15 10 3 -7.09 0.00
 16 10 3 -8.52 0.00
 17 10 3 -0.20 0.00
 18 10 3 10.03 0.00
 19 10 3 -7.68 0.00
 20 10 3 0.08 0.00
 21 10 3 6.16 0.00
 22 10 3 -3.72 0.00
 23 10 3 -3.21 0.00
 24 10 3 1.49 0.00
 25 10 3 3.35 0.00
 26 10 3 9.51 0.00
 27 10 3 -10.58 0.00
 28 10 3 0.95 0.00
 0 11 3 19.60 0.00
 1 11 3 6.82 0.00
 2 11 3 -76.36 0.00
 3 11 3 -51.18 0.00
 4 11 3 63.95 0.00
 5 11 3 -42.12 0.00
 6 11 3 -21.28 0.00
 7 11 3 -0.67 0.00
 8 11 3 0.34 0.00
 9 11 3 9.18 0.00
 10 11 3 12.87 0.00
 11 11 3 -20.13 0.00
 12 11 3 -0.31 0.00
 13 11 3 16.53 0.00
 14 11 3 -0.67 0.00
 15 11 3 -3.41 0.00
 16 11 3 15.80 0.00
 17 11 3 20.09 0.00
 18 11 3 -20.67 0.00
 19 11 3 -2.10 0.00
 20 11 3 24.54 0.00
 21 11 3 -0.02 0.00
 22 11 3 3.08 0.00
 23 11 3 3.39 0.00
 24 11 3 -7.64 0.00
 25 11 3 -2.00 0.00
 26 11 3 8.77 0.00
 27 11 3 10.09 0.00
 28 11 3 5.08 0.00
 1 12 3 42.85 0.00
 2 12 3 -41.25 0.00
 3 12 3 38.49 0.00
 4 12 3 29.78 0.00
 5 12 3 12.49 0.00
 6 12 3 -8.34 0.00
 7 12 3 9.92 0.00
 8 12 3 4.54 0.00
 9 12 3 5.87 0.00
 10 12 3 10.61 0.00
 11 12 3 24.34 0.00
 12 12 3 -4.83 0.00
 13 12 3 0.29 0.00
 14 12 3 7.93 0.00
 15 12 3 -11.28 0.00
 16 12 3 5.66 0.00
 17 12 3 7.38 0.00
 18 12 3 -0.68 0.00
 19 12 3 14.62 0.00
 20 12 3 -1.56 0.00
 21 12 3 -7.50 0.00
 22 12 3 3.08 0.00
 23 12 3 -5.23 0.00
 24 12 3 -2.08 0.00
 25 12 3 14.17 0.00
 26 12 3 -2.54 0.00
 27 12 3 -4.21 0.00
 28 12 3 -0.95 0.00
 0 13 3 48.28 0.00
 1 13 3 -14.98 0.00
 2 13 3 -39.65 0.00
 3 13 3 38.77 0.00
 4 13 3 8.28 0.00
 5 13 3 44.99 0.00
 6 13 3 -9.12 0.00
 7 13 3 -12.76 0.00
 8 13 3 10.39 0.00
 9 13 3 2.56 0.00
 10 13 3 -9.83 0.00
 11 13 3 1.38 0.00
 12 13 3 2.25 0.00
 13 13 3 5.53 0.00
 14 13 3 -13.61 0.00
 15 13 3 -14.64 0.00
 16 13 3 4.99 0.00
 17 13 3 -12.08 0.00
 18 13 3 -9.33 0.00
 19 13 3 -2.30 0.00
 20 13 3 0.27 0.00
 21 13 3 -0.88 0.00
 22 13 3 -3.80 0.00
 23 13 3 0.97 0.00
 24 13 3 -9.10 0.00
 25 13 3 -6.60 0.00
 26 13 3 7.04 0.00
 27 13 3 2.56 0.00
 28 13 3 -10.85 0.00
 1 14 3 4.70 0.00
 2 14 3 -3.84 0.00
 3 14 3 -57.63 0.00
 4 14 3 -13.67 0.00
 5 14 3 1.99 0.00
 6 14 3 4.34 0.00
 7 14 3 0.07 0.00
 8 14 3 -13.48 0.00
 9 14 3 -21.31 0.00
 10 14 3 9.68 0.00
 11 14 3 -9.22 0.00
 12 14 3 2.50 0.00
 13 14 3 -11.53 0.00
 14 14 3 -0.29 0.00
 15 14 3 18.62 0.00
 16 14 3 -3.73 0.00
 17 14 3 -7.12 0.00
 18 14 3 -4.02 0.00
 19 14 3 -7.43 0.00
 20 14 3 1.78 0.00
 21 14 3 0.02 0.00
 22 14 3 -2.60 0.00
 23 14 3 10.82 0.00
 24 14 3 2.80 0.00
 25 14 3 -7.02 0.00
 26 14 3 -2.89 0.00
 27 14 3 0.21 0.00
 0 15 3 18.12 0.00
 1 15 3 13.68 0.00
 2 15 3 14.21 0.00
 3 15 3 -33.26 0.00
 4 15 3 1.98 0.00
 5 15 3 -33.55 0.00
 6 15 3 4.49 0.00
 7 15 3 31.25 0.00
 8 15 3 -3.75 0.00
 9 15 3 -12.93 0.00
 10 15 3 -8.61 0.00
 11 15 3 15.74 0.00
 12 15 3 11.98 0.00
 13 15 3 -15.34 0.00
 14 15 3 3.59 0.00
 15 15 3 14.88 0.00
 16 15 3 0.27 0.00
 17 15 3 13.10 0.00
 18 15 3 8.73 0.00
 19 15 3 -1.77 0.00
 20 15 3 -3.98 0.00
 21 15 3 3.62 0.00
 22 15 3 5.88 0.00
 23 15 3 -0.25 0.00
 24 15 3 3.50 0.00
 25 15 3 0.53 0.00
 26 15 3 -0.18 0.00
 27 15 3 4.02 0.00
 1 16 3 1.30 0.00
 2 16 3 19.67 0.00
 3 16 3 29.42 0.00
 4 16 3 -4.12 0.00
 5 16 3 -1.71 0.00
 6 16 3 9.66 0.00
 7 16 3 -0.50 0.00
 8 16 3 -1.33 0.00
 9 16 3 15.95 0.00
 10 16 3 -1.34 0.00
 11 16 3 17.14 0.00
 12 16 3 -14.85 0.00
 13 16 3 4.46 0.00
 14 16 3 4.50 0.00
 15 16 3 -13.56 0.00
 16 16 3 -3.17 0.00
 17 16 3 6.89 0.00
 18 16 3 7.51 0.00
 19 16 3 -1.75 0.00
 20 16 3 -1.59 0.00
 21 16 3 -1.77 0.00
 22 16 3 2.09 0.00
 23 16 3 -5.03 0.00
 24 16 3 -2.69 0.00
 25 16 3 -4.43 0.00
 26 16 3 1.60 0.00
 27 16 3 -2.77 0.00
 0 17 3 -30.13 0.00
 1 17 3 -3.45 0.00
 2 17 3 -0.71 0.00
 3 17 3 17.39 0.00
 4 17 3 -5.85 0.00
 5 17 3 12.35 0.00
 6 17 3 -7.81 0.00
 7 17 3 -9.28 0.00
 8 17 3 5.56 0.00
 9 17 3 -21.81 0.00
 10 17 3 6.67 0.00
 11 17 3 4.76 0.00
 12 17 3 -6.22 0.00
 13 17 3 4.30 0.00
 14 17 3 -0.11 0.00
 15 17 3 -14.53 0.00
 16 17 3 -5.91 0.00
 17 17 3 -1.01 0.00
 18 17 3 2.44 0.00
 19 17 3 -7.53 0.00
 20 17 3 -4.82 0.00
 21 17 3 2.34 0.00
 22 17 3 1.40 0.00
 23 17 3 -1.08 0.00
 24 17 3 -2.95 0.00
 25 17 3 1.04 0.00
 26 17 3 -0.13 0.00
 1 18 3 -21.15 0.00
 2 18 3 -9.36 0.00
 3 18 3 -3.50 0.00
 4 18 3 5.06 0.00
 5 18 3 0.55 0.00
 6 18 3 -3.23 0.00
 7 18 3 -3.59 0.00
 8 18 3 -2.56 0.00
 9 18 3 -11.24 0.00
 10 18 3 7.91 0.00
 11 18 3 -17.24 0.00
 12 18 3 -2.27 0.00
 13 18 3 1.64 0.00
 14 18 3 14.03 0.00
 15 18 3 0.83 0.00
 16 18 3 -10.89 0.00
 17 18 3 2.25 0.00
 18 18 3 5.04 0.00
 19 18 3 -0.21 0.00
 20 18 3 -9.85 0.00
 21 18 3 6.43 0.00
 22 18 3 7.47 0.00
 23 18 3 2.66 0.00
 24 18 3 -4.47 0.00
 25 18 3 6.67 0.00
 26 18 3 4.68 0.00
 0 19 3 -8.15 0.00
 1 19 3 8.88 0.00
 2 19 3 15.57 0.00
 3 19 3 -24.25 0.00
 4 19 3 -2.39 0.00
 5 19 3 3.06 0.00
 6 19 3 6.97 0.00
 7 19 3 7.66 0.00
 8 19 3 0.71 0.00
 9 19 3 15.77 0.00
 10 19 3 -0.10 0.00
 11 19 3 -2.73 0.00
 12 19 3 -6.49 0.00
 13 19 3 6.41 0.00
 14 19 3 1.39 0.00
 15 19 3 -1.06 0.00
 16 19 3 1.82 0.00
 17 19 3 10.97 0.00
 18 19 3 0.89 0.00
 19 19 3 -0.72 0.00
 20 19 3 -2.43 0.00
 21 19 3 0.23 0.00
 22 19 3 5.35 0.00
 23 19 3 2.51 0.00
 24 19 3 -2.54 0.00
 25 19 3 -1.88 0.00
 1 20 3 13.39 0.00
 2 20 3 -4.66 0.00
 3 20 3 -1.78 0.00
 4 20 3 1.79 0.00
 5 20 3 9.12 0.00
 6 20 3 -2.16 0.00
 7 20 3 -2.94 0.00
 8 20 3 -8.54 0.00
 9 20 3 8.72 0.00
 10 20 3 10.23 0.00
 11 20 3 13.74 0.00
 12 20 3 -0.19 0.00
 13 20 3 -4.39 0.00
 14 20 3 -8.37 0.00
 15 20 3 6.12 0.00
 16 20 3 0.70 0.00
 17 20 3 -7.11 0.00
 18 20 3 5.78 0.00
 19 20 3 2.84 0.00
 20 20 3 0.12 0.00
 21 20 3 -8.25 0.00
 22 20 3 -0.53 0.00
 23 20 3 -1.65 0.00
 24 20 3 -1.19 0.00
 25 20 3 -3.39 0.00
 0 21 3 -7.40 0.00
 1 21 3 -0.93 0.00
 2 21 3 7.51 0.00
 3 21 3 5.42 0.00
 4 21 3 -4.27 0.00
 5 21 3 8.55 0.00
 6 21 3 -0.03 0.00
 7 21 3 -6.30 0.00
 8 21 3 -8.83 0.00
 9 21 3 -8.18 0.00
 10 21 3 0.69 0.00
 11 21 3 -3.57 0.00
 12 21 3 5.31 0.00
 13 21 3 -2.91 0.00
 14 21 3 2.88 0.00
 15 21 3 -1.29 0.00
 16 21 3 -0.05 0.00
 17 21 3 -4.07 0.00
 18 21 3 2.62 0.00
 19 21 3 -5.21 0.00
 20 21 3 -5.77 0.00
 21 21 3 1.38 0.00
 22 21 3 -0.11 0.00
 23 21 3 0.79 0.00
 24 21 3 0.36 0.00
 1 22 3 -5.07 0.00
 2 22 3 2.55 0.00
 3 22 3 -4.96 0.00
 4 22 3 -1.67 0.00
 5 22 3 -3.01 0.00
 6 22 3 9.34 0.00
 7 22 3 -5.39 0.00
 8 22 3 2.05 0.00
 9 22 3 -0.21 0.00
 10 22 3 -3.50 0.00
 11 22 3 -3.97 0.00
 12 22 3 -8.17 0.00
 13 22 3 -4.19 0.00
 14 22 3 8.34 0.00
 15 22 3 0.11 0.00
 16 22 3 -4.48 0.00
 17 22 3 2.75 0.00
 18 22 3 3.35 0.00
 19 22 3 -0.01 0.00
 20 22 3 -3.91 0.00
 21 22 3 5.68 0.00
 22 22 3 2.37 0.00
 23 22 3 0.05 0.00
 24 22 3 -2.99 0.00
 0 23 3 3.51 0.00
 1 23 3 -4.53 0.00
 2 23 3 -5.71 0.00
 3 23 3 0.73 0.00
 4 23 3 -6.86 0.00
 5 23 3 -8.69 0.00
 6 23 3 2.96 0.00
 7 23 3 -2.79 0.00
 8 23 3 6.37 0.00
 9 23 3 4.00 0.00
 10 23 3 -1.30 0.00
 11 23 3 5.01 0.00
 12 23 3 1.50 0.00
 13 23 3 1.79 0.00
 14 23 3 -2.27 0.00
 15 23 3 1.70 0.00
 16 23 3 -6.31 0.00
 17 23 3 0.20 0.00
 18 23 3 0.39 0.00
 19 23 3 6.84 0.00
 20 23 3 7.37 0.00
 21 23 3 1.17 0.00
 22 23 3 0.66 0.00
 23 23 3 -5.35 0.00
 1 24 3 -14.05 0.00
 2 24 3 2.77 0.00
 3 24 3 11.76 0.00
 4 24 3 -1.68 0.00
 5 24 3 3.26 0.00
 6 24 3 -5.58 0.00
 7 24 3 8.42 0.00
 8 24 3 -2.88 0.00
 9 24 3 -3.33 0.00
 10 24 3 0.71 0.00
 11 24 3 -3.00 0.00
 12 24 3 0.72 0.00
 13 24 3 9.24 0.00
 14 24 3 8.07 0.00
 15 24 3 -3.37 0.00
 16 24 3 -7.60 0.00
 17 24 3 -1.88 0.00
 18 24 3 0.62 0.00
 19 24 3 -4.01 0.00
 20 24 3 -0.22 0.00
 21 24 3 4.28 0.00
 22 24 3 0.17 0.00
 23 24 3 -6.86 0.00
 0 25 3 -6.19 0.00
 1 25 3 5.41 0.00
 2 25 3 6.34 0.00
 3 25 3 2.04 0.00
 4 25 3 11.54 0.00
 5 25 3 0.94 0.00
 6 25 3 -7.87 0.00
 7 25 3 4.54 0.00
 8 25 3 6.42 0.00
 9 25 3 6.69 0.00
 10 25 3 -7.42 0.00
 11 25 3 -10.70 0.00
 12 25 3 -1.19 0.00
 13 25 3 0.72 0.00
 14 25 3 0.08 0.00
 15 25 3 2.62 0.00
 16 25 3 5.59 0.00
 17 25 3 -1.96 0.00
 18 25 3 -1.41 0.00
 19 25 3 -7.48 0.00
 20 25 3 -5.51 0.00
 21 25 3 3.09 0.00
 22 25 3 -2.49 0.00
 1 26 3 1.18 0.00
 2 26 3 -4.65 0.00
 3 26 3 2.76 0.00
 4 26 3 0.93 0.00
 5 26 3 -12.18 0.00
 6 26 3 3.59 0.00
 7 26 3 -6.83 0.00
 8 26 3 3.15 0.00
 9 26 3 2.05 0.00
 10 26 3 -0.67 0.00
 11 26 3 2.97 0.00
 12 26 3 -2.76 0.00
 13 26 3 -8.93 0.00
 14 26 3 1.76 0.00
 15 26 3 5.76 0.00
 16 26 3 -2.30 0.00
 17 26 3 0.40 0.00
 18 26 3 4.69 0.00
 19 26 3 1.43 0.00
 20 26 3 -0.21 0.00
 21 26 3 2.53 0.00
 0 27 3 0.24 0.00
 1 27 3 -6.39 0.00
 2 27 3 -0.29 0.00
 3 27 3 2.62 0.00
 4 27 3 -8.13 0.00
 5 27 3 0.34 0.00
 6 27 3 0.69 0.00
 7 27 3 -3.59 0.00
 8 27 3 0.81 0.00
 9 27 3 -4.58 0.00
 10 27 3 3.84 0.00
 11 27 3 7.70 0.00
 12 27 3 -2.32 0.00
 13 27 3 -6.92 0.00
 14 27 3 1.63 0.00
 15 27 3 3.93 0.00
 16 27 3 -0.81 0.00
 17 27 3 -3.93 0.00
 18 27 3 0.99 0.00
 19 27 3 4.27 0.00
 20 27 3 3.92 0.00
 1 28 3 2.86 0.00
 2 28 3 -1.19 0.00
 3 28 3 -0.52 0.00
 4 28 3 1.59 0.00
 5 28 3 4.97 0.00
 6 28 3 -0.96 0.00
 7 28 3 6.94 0.00
 8 28 3 -1.45 0.00
 9 28 3 2.07 0.00
 10 28 3 3.81 0.00
 11 28 3 -0.84 0.00
 12 28 3 2.04 0.00
 13 28 3 3.80 0.00
 14 28 3 -1.78 0.00
 15 28 3 -1.44 0.00
 16 28 3 -5.32 0.00
 17 28 3 1.78 0.00
 18 28 3 4.91 0.00
 19 28 3 -5.70 0.00
 20 28 3 -5.39 0.00
 0 29 3 -2.68 0.00
 1 29 3 2.76 0.00
 2 29 3 2.77 0.00
 3 29 3 -1.04 0.00
 4 29 3 -2.18 0.00
 5 29 3 -3.88 0.00
 6 29 3 2.87 0.00
 7 29 3 7.95 0.00
 8 29 3 -5.37 0.00
 9 29 3 -7.93 0.00
 10 29 3 -0.45 0.00
 11 29 3 7.08 0.00
 12 29 3 7.86 0.00
 13 29 3 -4.45 0.00
 14 29 3 -3.63 0.00
 15 29 3 4.35 0.00
 16 29 3 1.68 0.00
 17 29 3 3.27 0.00
 18 29 3 -5.91 0.00
 19 29 3 -0.87 0.00
 1 30 3 -1.22 0.00
 2 30 3 -1.75 0.00
 3 30 3 2.22 0.00
 4 30 3 9.58 0.00
 5 30 3 -7.41 0.00
 6 30 3 -9.29 0.00
 7 30 3 1.00 0.00
 8 30 3 0.96 0.00
 9 30 3 -1.87 0.00
 10 30 3 -3.58 0.00
 11 30 3 0.03 0.00
 12 30 3 -4.48 0.00
 13 30 3 -4.65 0.00
 14 30 3 5.76 0.00
 15 30 3 -3.69 0.00
 16 30 3 1.05 0.00
 17 30 3 4.31 0.00
 18 30 3 1.47 0.00
 0 31 3 1.49 0.00
 1 31 3 -0.35 0.00
 2 31 3 -0.25 0.00
 3 31 3 -1.74 0.00
 4 31 3 1.84 0.00
 5 31 3 4.37 0.00
 6 31 3 2.21 0.00
 7 31 3 -4.63 0.00
 8 31 3 2.89 0.00
 9 31 3 -1.94 0.00
 10 31 3 -6.82 0.00
 11 31 3 5.92 0.00
 12 31 3 1.40 0.00
 13 31 3 -2.57 0.00
 14 31 3 -6.46 0.00
 15 31 3 -2.30 0.00
 16 31 3 3.33 0.00
 17 31 3 -7.40 0.00
 1 32 3 0.77 0.00
 2 32 3 -2.64 0.00
 3 32 3 -1.77 0.00
 4 32 3 0.15 0.00
 5 32 3 1.05 0.00
 6 32 3 -2.93 0.00
 7 32 3 0.64 0.00
 8 32 3 9.08 0.00
 9 32 3 -4.58 0.00
 10 32 3 -3.57 0.00
 11 32 3 2.24 0.00
 12 32 3 2.33 0.00
 13 32 3 4.23 0.00
 14 32 3 2.07 0.00
 15 32 3 4.08 0.00
 0 33 3 -9.52 0.00
 1 33 3 3.62 0.00
 2 33 3 2.27 0.00
 3 33 3 -3.16 0.00
 4 33 3 1.49 0.00
 5 33 3 -0.07 0.00
 6 33 3 -2.84 0.00
 7 33 3 -0.17 0.00
 8 33 3 2.25 0.00
 9 33 3 8.58 0.00
 10 33 3 1.79 0.00
 11 33 3 -8.78 0.00
 12 33 3 1.46 0.00
 13 33 3 0.46 0.00
 14 33 3 3.72 0.00
 1 34 3 7.87 0.00
 2 34 3 -0.87 0.00
 3 34 3 -0.72 0.00
 4 34 3 -2.23 0.00
 5 34 3 2.07 0.00
 6 34 3 1.62 0.00
 7 34 3 1.41 0.00
 8 34 3 1.89 0.00
 9 34 3 -1.04 0.00
 10 34 3 -2.68 0.00
 11 34 3 3.19 0.00
 12 34 3 1.77 0.00
 13 34 3 -6.33 0.00
 0 35 3 7.23 0.00
 1 35 3 -7.90 0.00
 2 35 3 0.19 0.00
 3 35 3 10.82 0.00
 4 35 3 -1.88 0.00
 5 35 3 -3.73 0.00
 6 35 3 -2.77 0.00
 7 35 3 3.82 0.00
 8 35 3 -1.87 0.00
 9 35 3 -6.32 0.00
 10 35 3 2.23 0.00
 11 35 3 0.61 0.00
 1 36 3 -10.89 0.00
 2 36 3 1.08 0.00
 3 36 3 -1.19 0.00
 4 36 3 1.44 0.00
 5 36 3 -0.19 0.00
 6 36 3 3.58 0.00
 7 36 3 1.12 0.00
 8 36 3 -6.08 0.00
 9 36 3 0.67 0.00
 0 37 3 -4.11 0.00
 1 37 3 6.12 0.00
 2 37 3 2.55 0.00
 3 37 3 -7.55 0.00
 4 37 3 -5.63 0.00
 5 37 3 -3.98 0.00
 0 0 4 86.13 0.00
 2 0 4 89.05 0.00
 4 0 4 90.52 0.00
 6 0 4 -6.39 0.00
 8 0 4 15.14 0.00
 10 0 4 -25.24 0.00
 12 0 4 2.36 0.00
 14 0 4 33.42 0.00
 16 0 4 -31.44 0.00
 18 0 4 3.09 0.00
 20 0 4 -15.43 0.00
 22 0 4 4.52 0.00
 24 0 4 -13.18 0.00
 26 0 4 8.84 0.00
 28 0 4 1.35 0.00
 1 1 4 87.63 0.00
 2 1 4 -61.94 0.00
 3 1 4 -30.13 0.00
 4 1 4 -16.78 0.00
 5 1 4 37.90 0.00
 6 1 4 38.88 0.00
 7 1 4 13.99 0.00
 8 1 4 -72.83 0.00
 9 1 4 -36.69 0.00
 10 1 4 -33.28 0.00
 11 1 4 27.18 0.00
 12 1 4 -40.76 0.00
 13 1 4 -11.85 0.00
 14 1 4 9.21 0.00
 15 1 4 -1.53 0.00
 16 1 4 -2.31 0.00
 17 1 4 2.39 0.00
 18 1 4 4.70 0.00
 19 1 4 11.01 0.00
 20 1 4 -0.66 0.00
 21 1 4 -14.17 0.00
 22 1 4 2.50 0.00
 23 1 4 12.03 0.00
 24 1 4 8.43 0.00
 25 1 4 -4.65 0.00
 26 1 4 5.68 0.00
 27 1 4 -0.83 0.00
 28 1 4 -1.48 0.00
 29 1 4 5.81 0.00
 0 2 4 -225.28 0.00
 1 2 4 -27.85 0.00
 2 2 4 37.01 0.00
 3 2 4 -7.49 0.00
 4 2 4 -89.71 0.00
 5 2 4 33.76 0.00
 7 2 4 33.07 0.00
 8 2 4 34.00 0.00
 9 2 4 -4.50 0.00
 10 2 4 12.17 0.00
 11 2 4 7.88 0.00
 12 2 4 -14.20 0.00
 13 2 4 -1.33 0.00
 14 2 4 -8.56 0.00
 15 2 4 -3.22 0.00
 16 2 4 14.76 0.00
 17 2 4 -11.83 0.00
 18 2 4 9.45 0.00
 19 2 4 2.75 0.00
 20 2 4 7.06 0.00
 21 2 4 -0.52 0.00
 22 2 4 -3.70 0.00
 23 2 4 -3.39 0.00
 24 2 4 8.77 0.00
 25 2 4 -3.94 0.00
 26 2 4 -3.52 0.00
 27 2 4 5.45 0.00
 28 2 4 -6.09 0.00
 29 2 4 -0.80 0.00
 1 3 4 2.79 0.00
 2 3 4 61.18 0.00
 3 3 4 -77.16 0.00
 4 3 4 21.84 0.00
 5 3 4 -0.46 0.00
 6 3 4 4.75 0.00
 7 3 4 -54.53 0.00
 8 3 4 13.27 0.00
 9 3 4 70.30 0.00
 10 3 4 60.60 0.00
 11 3 4 -48.91 0.00
 12 3 4 6.05 0.00
 13 3 4 18.53 0.00
 14 3 4 0.72 0.00
 15 3 4 9.18 0.00
 16 3 4 0.48 0.00
 17 3 4 -21.69 0.00
 18 3 4 7.86 0.00
 19 3 4 8.57 0.00
 20 3 4 -11.64 0.00
 21 3 4 -7.00 0.00
 22 3 4 8.90 0.00
 23 3 4 5.35 0.00
 24 3 4 -8.68 0.00
 26 3 4 -5.56 0.00
 27 3 4 -5.38 0.00
 28 3 4 3.17 0.00
 29 3 4 10.32 0.00
 0 4 4 64.71 0.00
 1 4 4 16.60 0.00
 2 4 4 19.81 0.00
 3 4 4 14.90 0.00
 4 4 4 26.53 0.00
 5 4 4 -70.97 0.00
 6 4 4 66.12 0.00
 7 4 4 -5.13 0.00
 8 4 4 -22.61 0.00
 9 4 4 -13.88 0.00
 10 4 4 -12.99 0.00
 11 4 4 -7.12 0.00
 12 4 4 11.60 0.00
 13 4 4 -1.91 0.00
 14 4 4 -5.82 0.00
 15 4 4 12.80 0.00
 16 4 4 -14.24 0.00
 17 4 4 2.32 0.00
 18 4 4 -8.49 0.00
 19 4 4 2.45 0.00
 20 4 4 4.57 0.00
 21 4 4 8.44 0.00
 22 4 4 -9.77 0.00
 23 4 4 1.87 0.00
 24 4 4 8.63 0.00
 25 4 4 -2.83 0.00
 26 4 4 -0.83 0.00
 27 4 4 6.39 0.00
 28 4 4 4.69 0.00
 29 4 4 -12.55 0.00
 1 5 4 21.32 0.00
 2 5 4 -27.51 0.00
 3 5 4 17.35 0.00
 4 5 4 -57.70 0.00
 5 5 4 52.61 0.00
 6 5 4 -12.06 0.00
 7 5 4 -39.41 0.00
 8 5 4 14.06 0.00
 9 5 4 44.15 0.00
 10 5 4 -61.18 0.00
 11 5 4 -25.03 0.00
 12 5 4 25.04 0.00
 13 5 4 17.77 0.00
 14 5 4 -12.59 0.00
 15 5 4 -4.98 0.00
 16 5 4 -0.82 0.00
 17 5 4 5.38 0.00
 18 5 4 -3.01 0.00
 19 5 4 -3.83 0.00
 20 5 4 -0.86 0.00
 21 5 4 5.10 0.00
 22 5 4 2.59 0.00
 23 5 4 -5.42 0.00
 24 5 4 -1.94 0.00
 25 5 4 5.02 0.00
 26 5 4 6.30 0.00
 27 5 4 0.88 0.00
 28 5 4 -9.12 0.00
 29 5 4 -11.08 0.00
 0 6 4 45.07 0.00
 1 6 4 -26.14 0.00
 2 6 4 -42.90 0.00
 3 6 4 99.47 0.00
 4 6 4 1.42 0.00
 5 6 4 -21.97 0.00
 6 6 4 -29.47 0.00
 7 6 4 13.59 0.00
 8 6 4 0.82 0.00
 9 6 4 6.73 0.00
 10 6 4 6.59 0.00
 11 6 4 13.88 0.00
 12 6 4 3.06 0.00
 13 6 4 -10.41 0.00
 14 6 4 13.40 0.00
 15 6 4 7.06 0.00
 16 6 4 0.21 0.00
 17 6 4 -9.28 0.00
 18 6 4 23.04 0.00
 19 6 4 -1.76 0.00
 20 6 4 -22.51 0.00
 21 6 4 -11.56 0.00
 22 6 4 16.25 0.00
 23 6 4 -1.09 0.00
 24 6 4 -13.86 0.00
 25 6 4 2.74 0.00
 26 6 4 8.25 0.00
 27 6 4 -0.38 0.00
 28 6 4 -23.71 0.00
 29 6 4 0.94 0.00
 1 7 4 32.91 0.00
 2 7 4 52.90 0.00
 3 7 4 -37.64 0.00
 4 7 4 -8.37 0.00
 5 7 4 38.54 0.00
 6 7 4 38.48 0.00
 7 7 4 -9.09 0.00
 8 7 4 6.26 0.00
 9 7 4 -26.94 0.00
 10 7 4 -3.25 0.00
 11 7 4 -5.93 0.00
 12 7 4 7.52 0.00
 13 7 4 2.84 0.00
 14 7 4 -5.36 0.00
 15 7 4 -21.43 0.00
 16 7 4 0.58 0.00
 17 7 4 18.89 0.00
 18 7 4 6.75 0.00
 19 7 4 -6.66 0.00
 20 7 4 -3.65 0.00
 21 7 4 2.50 0.00
 22 7 4 -7.58 0.00
 23 7 4 2.21 0.00
 24 7 4 5.98 0.00
 25 7 4 -2.88 0.00
 26 7 4 4.14 0.00
 27 7 4 6.89 0.00
 28 7 4 -5.84 0.00
 29 7 4 6.22 0.00
 0 8 4 -2.18 0.00
 1 8 4 -10.35 0.00
 2 8 4 -12.86 0.00
 3 8 4 -83.37 0.00
 4 8 4 20.19 0.00
 5 8 4 14.03 0.00
 6 8 4 -33.40 0.00
 7 8 4 27.29 0.00
 8 8 4 29.53 0.00
 9 8 4 -18.77 0.00
 10 8 4 -15.23 0.00
 11 8 4 14.29 0.00
 12 8 4 -13.21 0.00
 13 8 4 -21.08 0.00
 14 8 4 -1.26 0.00
 15 8 4 12.42 0.00
 16 8 4 -7.33 0.00
 17 8 4 -7.66 0.00
 18 8 4 -2.40 0.00
 19 8 4 15.32 0.00
 20 8 4 -0.34 0.00
 21 8 4 -0.31 0.00
 22 8 4 6.18 0.00
 23 8 4 4.46 0.00
 24 8 4 -2.45 0.00
 25 8 4 -5.90 0.00
 26 8 4 4.99 0.00
 27 8 4 5.82 0.00
 28 8 4 9.53 0.00
 1 9 4 7.91 0.00
 2 9 4 21.52 0.00
 3 9 4 -27.89 0.00
 4 9 4 -30.20 0.00
 5 9 4 -16.79 0.00
 6 9 4 5.82 0.00
 7 9 4 -2.20 0.00
 8 9 4 -27.95 0.00
 9 9 4 20.02 0.00
 10 9 4 21.15 0.00
 11 9 4 18.87 0.00
 12 9 4 -4.18 0.00
 13 9 4 8.66 0.00
 14 9 4 -6.56 0.00
 15 9 4 -3.77 0.00
 16 9 4 8.71 0.00
 17 9 4 6.88 0.00
 18 9 4 0.53 0.00
 19 9 4 -10.46 0.00
 20 9 4 5.00 0.00
 21 9 4 4.71 0.00
 22 9 4 2.51 0.00
 23 9 4 0.08 0.00
 24 9 4 5.05 0.00
 25 9 4 -8.41 0.00
 26 9 4 -13.29 0.00
 27 9 4 -1.29 0.00
 28 9 4 14.60 0.00
 0 10 4 -7.24 0.00
 1 10 4 27.25 0.00
 2 10 4 6.66 0.00
 3 10 4 31.19 0.00
 4 10 4 -2.50 0.00
 5 10 4 -3.35 0.00
 6 10 4 44.19 0.00
 7 10 4 -11.18 0.00
 8 10 4 -17.21 0.00
 9 10 4 -23.57 0.00
 10 10 4 -2.34 0.00
 11 10 4 16.15 0.00
 12 10 4 30.15 0.00
 13 10 4 -2.30 0.00
 14 10 4 -6.91 0.00
 15 10 4 1.10 0.00
 16 10 4 0.44 0.00
 17 10 4 -3.60 0.00
 18 10 4 -4.80 0.00
 19 10 4 -5.32 0.00
 20 10 4 8.80 0.00
 21 10 4 -1.86 0.00
 22 10 4 -8.29 0.00
 23 10 4 2.16 0.00
 24 10 4 1.32 0.00
 25 10 4 -0.70 0.00
 26 10 4 -5.89 0.00
 27 10 4 -2.58 0.00
 28 10 4 0.98 0.00
 1 11 4 -31.63 0.00
 2 11 4 -42.82 0.00
 3 11 4 52.71 0.00
 4 11 4 5.74 0.00
 5 11 4 -23.74 0.00
 6 11 4 16.63 0.00
 7 11 4 14.48 0.00
 8 11 4 2.87 0.00
 9 11 4 -4.10 0.00
 10 11 4 -18.25 0.00
 11 11 4 -26.79 0.00
 12 11 4 14.65 0.00
 13 11 4 -1.75 0.00
 14 11 4 -7.26 0.00
 15 11 4 9.33 0.00
 16 11 4 6.98 0.00
 17 11 4 -16.65 0.00
 18 11 4 -14.81 0.00
 19 11 4 15.10 0.00
 20 11 4 -5.01 0.00
 21 11 4 -8.36 0.00
 22 11 4 -0.20 0.00
 23 11 4 -0.39 0.00
 24 11 4 -1.79 0.00
 26 11 4 2.79 0.00
 27 11 4 -0.76 0.00
 28 11 4 -11.35 0.00
 0 12 4 46.77 0.00
 1 12 4 -13.73 0.00
 2 12 4 -9.28 0.00
 3 12 4 13.84 0.00
 4 12 4 -35.71 0.00
 5 12 4 -20.42 0.00
 6 12 4 5.53 0.00
 7 12 4 19.14 0.00
 8 12 4 -18.85 0.00
 9 12 4 5.14 0.00
 10 12 4 15.95 0.00
 11 12 4 -2.61 0.00
 12 12 4 -23.59 0.00
 13 12 4 2.90 0.00
 14 12 4 -5.61 0.00
 15 12 4 0.39 0.00
 16 12 4 13.25 0.00
 17 12 4 7.04 0.00
 18 12 4 4.82 0.00
 19 12 4 0.93 0.00
 20 12 4 -8.45 0.00
 21 12 4 -1.50 0.00
 22 12 4 0.02 0.00
 23 12 4 1.01 0.00
 24 12 4 11.79 0.00
 25 12 4 -1.05 0.00
 26 12 4 -7.78 0.00
 27 12 4 3.54 0.00
 28 12 4 -0.16 0.00
 1 13 4 -13.62 0.00
 2 13 4 40.75 0.00
 3 13 4 14.82 0.00
 4 13 4 9.39 0.00
 5 13 4 -6.20 0.00
 6 13 4 -33.63 0.00
 7 13 4 12.26 0.00
 8 13 4 15.84 0.00
 9 13 4 -10.42 0.00
 10 13 4 4.14 0.00
 11 13 4 10.17 0.00
 12 13 4 1.19 0.00
 13 13 4 -3.84 0.00
 14 13 4 -6.46 0.00
 15 13 4 -0.15 0.00
 16 13 4 -0.38 0.00
 17 13 4 1.27 0.00
 18 13 4 8.25 0.00
 19 13 4 0.32 0.00
 20 13 4 5.91 0.00
 21 13 4 2.03 0.00
 22 13 4 0.05 0.00
 23 13 4 -3.80 0.00
 24 13 4 -4.83 0.00
 25 13 4 8.26 0.00
 26 13 4 7.11 0.00
 27 13 4 -9.90 0.00
 0 14 4 -11.25 0.00
 1 14 4 -10.16 0.00
 2 14 4 -21.47 0.00
 3 14 4 -19.63 0.00
 4 14 4 41.14 0.00
 5 14 4 15.20 0.00
 6 14 4 0.79 0.00
 7 14 4 -9.00 0.00
 8 14 4 -13.11 0.00
 9 14 4 3.60 0.00
 10 14 4 10.40 0.00
 11 14 4 1.59 0.00
 12 14 4 -2.18 0.00
 13 14 4 -4.40 0.00
 14 14 4 19.38 0.00
 15 14 4 -9.27 0.00
 16 14 4 -15.67 0.00
 17 14 4 2.10 0.00
 18 14 4 -4.59 0.00
 19 14 4 -1.13 0.00
 20 14 4 3.42 0.00
 21 14 4 -2.93 0.00
 22 14 4 4.46 0.00
 23 14 4 7.78 0.00
 24 14 4 -8.37 0.00
 25 14 4 -5.99 0.00
 26 14 4 3.46 0.00
 27 14 4 1.68 0.00
 1 15 4 6.11 0.00
 2 15 4 -35.62 0.00
 3 15 4 -15.07 0.00
 4 15 4 -4.23 0.00
 5 15 4 -7.97 0.00
 6 15 4 38.13 0.00
 7 15 4 -0.14 0.00
 8 15 4 -25.38 0.00
 9 15 4 -3.32 0.00
 10 15 4 8.66 0.00
 11 15 4 18.32 0.00
 12 15 4 -15.63 0.00
 13 15 4 0.58 0.00
 14 15 4 13.10 0.00
 15 15 4 -1.65 0.00
 16 15 4 0.94 0.00
 17 15 4 5.88 0.00
 18 15 4 -6.55 0.00
 19 15 4 -4.67 0.00
 20 15 4 1.41 0.00
 21 15 4 2.02 0.00
 22 15 4 0.31 0.00
 23 15 4 -4.13 0.00
 24 15 4 0.52 0.00
 25 15 4 1.76 0.00
 26 15 4 7.14 0.00
 27 15 4 -2.99 0.00
 0 16 4 5.59 0.00
 1 16 4 22.55 0.00
 2 16 4 18.62 0.00
 3 16 4 -1.29 0.00
 4 16 4 -22.43 0.00
 5 16 4 11.33 0.00
 6 16 4 -1.95 0.00
 7 16 4 -4.36 0.00
 8 16 4 17.14 0.00
 9 16 4 -7.60 0.00
 10 16 4 -0.76 0.00
 11 16 4 -4.67 0.00
 12 16 4 -4.21 0.00
 13 16 4 10.70 0.00
 14 16 4 -11.41 0.00
 15 16 4 1.16 0.00
 16 16 4 8.83 0.00
 17 16 4 1.63 0.00
 18 16 4 2.99 0.00
 19 16 4 -3.83 0.00
 20 16 4 -2.35 0.00
 21 16 4 0.03 0.00
 22 16 4 -0.19 0.00
 23 16 4 -2.66 0.00
 24 16 4 -0.02 0.00
 25 16 4 -1.96 0.00
 26 16 4 -1.79 0.00
 1 17 4 13.71 0.00
 2 17 4 11.59 0.00
 3 17 4 -4.95 0.00
 4 17 4 5.46 0.00
 5 17 4 5.36 0.00
 6 17 4 -17.93 0.00
 7 17 4 9.90 0.00
 8 17 4 -10.99 0.00
 9 17 4 -4.14 0.00
 10 17 4 20.52 0.00
 11 17 4 -18.41 0.00
 12 17 4 2.68 0.00
 13 17 4 -2.18 0.00
 14 17 4 -12.21 0.00
 15 17 4 -1.22 0.00
 16 17 4 5.24 0.00
 17 17 4 0.75 0.00
 18 17 4 -3.18 0.00
 19 17 4 -5.47 0.00
 20 17 4 1.23 0.00
 21 17 4 6.49 0.00
 22 17 4 -3.12 0.00
 23 17 4 -3.26 0.00
 24 17 4 -2.47 0.00
 25 17 4 3.01 0.00
 26 17 4 -9.83 0.00
 0 18 4 -23.07 0.00
 1 18 4 -7.28 0.00
 2 18 4 0.26 0.00
 3 18 4 -3.93 0.00
 4 18 4 2.13 0.00
 5 18 4 -14.66 0.00
 6 18 4 -0.48 0.00
 7 18 4 4.38 0.00
 8 18 4 -9.85 0.00
 9 18 4 10.31 0.00
 10 18 4 -10.67 0.00
 11 18 4 -2.97 0.00
 12 18 4 15.75 0.00
 13 18 4 3.07 0.00
 14 18 4 -1.39 0.00
 15 18 4 -6.37 0.00
 16 18 4 -1.66 0.00
 17 18 4 9.27 0.00
 18 18 4 0.97 0.00
 19 18 4 -5.70 0.00
 20 18 4 -1.02 0.00
 21 18 4 11.71 0.00
 22 18 4 1.10 0.00
 23 18 4 -2.44 0.00
 24 18 4 2.21 0.00
 25 18 4 3.77 0.00
 26 18 4 -2.63 0.00
 1 19 4 14.13 0.00
 2 19 4 -18.93 0.00
 3 19 4 -2.62 0.00
 4 19 4 15.35 0.00
 5 19 4 8.43 0.00
 6 19 4 3.49 0.00
 7 19 4 -15.25 0.00
 8 19 4 12.96 0.00
 9 19 4 7.82 0.00
 10 19 4 -13.51 0.00
 11 19 4 7.95 0.00
 12 19 4 -0.96 0.00
 13 19 4 3.82 0.00
 14 19 4 2.70 0.00
 15 19 4 -2.63 0.00
 16 19 4 4.57 0.00
 17 19 4 6.29 0.00
 18 19 4 -4.97 0.00
 19 19 4 -3.72 0.00
 20 19 4 2.46 0.00
 21 19 4 3.52 0.00
 22 19 4 2.67 0.00
 23 19 4 -3.45 0.00
 24 19 4 1.90 0.00
 25 19 4 1.16 0.00
 0 20 4 26.87 0.00
 1 20 4 -7.73 0.00
 2 20 4 -8.77 0.00
 3 20 4 9.37 0.00
 4 20 4 12.82 0.00
 5 20 4 8.61 0.00
 6 20 4 -9.83 0.00
 7 20 4 -4.56 0.00
 8 20 4 13.15 0.00
 9 20 4 1.31 0.00
 10 20 4 2.19 0.00
 11 20 4 -1.39 0.00
 12 20 4 -9.97 0.00
 13 20 4 -7.49 0.00
 14 20 4 2.29 0.00
 15 20 4 0.70 0.00
 16 20 4 -5.92 0.00
 17 20 4 -4.71 0.00
 18 20 4 6.08 0.00
 19 20 4 -2.62 0.00
 20 20 4 -6.66 0.00
 21 20 4 -3.21 0.00
 22 20 4 3.10 0.00
 23 20 4 -2.49 0.00
 24 20 4 -1.19 0.00
 25 20 4 -0.31 0.00
 1 21 4 0.34 0.00
 2 21 4 5.67 0.00
 3 21 4 -18.75 0.00
 4 21 4 -1.05 0.00
 5 21 4 8.95 0.00
 6 21 4 -13.37 0.00
 7 21 4 -5.01 0.00
 8 21 4 -3.92 0.00
 9 21 4 2.03 0.00
 10 21 4 2.33 0.00
 11 21 4 -3.28 0.00
 12 21 4 0.70 0.00
 13 21 4 -0.80 0.00
 14 21 4 2.36 0.00
 15 21 4 1.54 0.00
 16 21 4 -3.58 0.00
 17 21 4 -0.67 0.00
 18 21 4 -1.55 0.00
 19 21 4 -8.48 0.00
 20 21 4 7.67 0.00
 21 21 4 5.26 0.00
 22 21 4 -3.01 0.00
 23 21 4 3.09 0.00
 24 21 4 -4.93 0.00
 0 22 4 -11.00 0.00
 1 22 4 11.67 0.00
 2 22 4 -3.43 0.00
 3 22 4 -4.75 0.00
 4 22 4 2.82 0.00
 5 22 4 -2.19 0.00
 6 22 4 -5.22 0.00
 7 22 4 1.60 0.00
 8 22 4 5.23 0.00
 9 22 4 -0.81 0.00
 10 22 4 -1.33 0.00
 11 22 4 -2.69 0.00
 12 22 4 2.23 0.00
 13 22 4 8.01 0.00
 14 22 4 3.15 0.00
 15 22 4 2.32 0.00
 16 22 4 7.81 0.00
 17 22 4 7.87 0.00
 18 22 4 -5.55 0.00
 19 22 4 -1.96 0.00
 20 22 4 2.95 0.00
 21 22 4 2.24 0.00
 22 22 4 -0.12 0.00
 23 22 4 -1.21 0.00
 24 22 4 0.42 0.00
 1 23 4 2.42 0.00
 2 23 4 -0.55 0.00
 3 23 4 4.65 0.00
 4 23 4 -0.77 0.00
 5 23 4 7.86 0.00
 6 23 4 7.66 0.00
 7 23 4 -5.09 0.00
 8 23 4 3.69 0.00
 9 23 4 4.47 0.00
 10 23 4 6.41 0.00
 11 23 4 4.04 0.00
 12 23 4 -5.14 0.00
 13 23 4 -4.67 0.00
 14 23 4 -0.89 0.00
 15 23 4 -2.54 0.00
 16 23 4 1.47 0.00
 17 23 4 3.01 0.00
 18 23 4 1.00 0.00
 19 23 4 9.07 0.00
 20 23 4 -4.88 0.00
 21 23 4 -5.22 0.00
 22 23 4 -4.19 0.00
 23 23 4 -3.54 0.00
 0 24 4 -11.17 0.00
 1 24 4 -11.31 0.00
 2 24 4 13.52 0.00
 3 24 4 2.57 0.00
 4 24 4 -3.92 0.00
 5 24 4 -3.52 0.00
 6 24 4 0.34 0.00
 7 24 4 -2.71 0.00
 8 24 4 -6.36 0.00
 9 24 4 -1.57 0.00
 10 24 4 -5.52 0.00
 11 24 4 4.51 0.00
 12 24 4 7.11 0.00
 13 24 4 0.66 0.00
 14 24 4 -13.12 0.00
 15 24 4 -10.40 0.00
 16 24 4 -1.97 0.00
 17 24 4 -0.58 0.00
 18 24 4 -0.10 0.00
 19 24 4 -0.46 0.00
 20 24 4 2.04 0.00
 21 24 4 1.13 0.00
 22 24 4 -3.67 0.00
 1 25 4 2.78 0.00
 2 25 4 -2.72 0.00
 3 25 4 -1.66 0.00
 4 25 4 -0.21 0.00
 5 25 4 -7.67 0.00
 6 25 4 1.07 0.00
 7 25 4 5.78 0.00
 8 25 4 -4.26 0.00
 9 25 4 -9.48 0.00
 10 25 4 -8.42 0.00
 11 25 4 -0.64 0.00
 12 25 4 4.44 0.00
 13 25 4 0.52 0.00
 14 25 4 3.41 0.00
 15 25 4 5.38 0.00
 16 25 4 -3.00 0.00
 17 25 4 -6.05 0.00
 18 25 4 -1.19 0.00
 19 25 4 -3.88 0.00
 20 25 4 6.83 0.00
 21 25 4 2.23 0.00
 22 25 4 2.14 0.00
 0 26 4 5.33 0.00
 1 26 4 2.23 0.00
 2 26 4 -4.23 0.00
 3 26 4 7.59 0.00
 4 26 4 -3.56 0.00
 5 26 4 -0.06 0.00
 6 26 4 1.18 0.00
 7 26 4 5.72 0.00
 8 26 4 10.40 0.00
 9 26 4 -3.50 0.00
 10 26 4 -0.56 0.00
 11 26 4 2.46 0.00
 12 26 4 0.41 0.00
 13 26 4 -0.50 0.00
 14 26 4 10.44 0.00
 15 26 4 -1.42 0.00
 16 26 4 -0.35 0.00
 17 26 4 5.21 0.00
 18 26 4 4.17 0.00
 19 26 4 -0.52 0.00
 20 26 4 0.75 0.00
 21 26 4 -3.36 0.00
 1 27 4 2.17 0.00
 2 27 4 3.36 0.00
 3 27 4 -3.90 0.00
 4 27 4 -2.89 0.00
 5 27 4 4.80 0.00
 6 27 4 1.09 0.00
 7 27 4 2.28 0.00
 8 27 4 -0.65 0.00
 9 27 4 0.09 0.00
 10 27 4 7.07 0.00
 11 27 4 -1.46 0.00
 12 27 4 -6.81 0.00
 13 27 4 4.36 0.00
 14 27 4 4.54 0.00
 15 27 4 -0.81 0.00
 16 27 4 -4.92 0.00
 17 27 4 -0.53 0.00
 18 27 4 1.11 0.00
 19 27 4 3.83 0.00
 20 27 4 -0.75 0.00
 0 28 4 9.59 0.00
 1 28 4 -2.49 0.00
 2 28 4 -5.00 0.00
 3 28 4 2.54 0.00
 4 28 4 6.16 0.00
 5 28 4 -4.13 0.00
 6 28 4 -3.03 0.00
 7 28 4 2.54 0.00
 8 28 4 -1.55 0.00
 9 28 4 -1.79 0.00
 10 28 4 -3.94 0.00
 11 28 4 -1.69 0.00
 12 28 4 -2.27 0.00
 13 28 4 -2.49 0.00
 14 28 4 -6.47 0.00
 15 28 4 -1.06 0.00
 16 28 4 0.04 0.00
 17 28 4 4.65 0.00
 18 28 4 -9.01 0.00
 19 28 4 -3.87 0.00
 1 29 4 4.90 0.00
 2 29 4 -0.18 0.00
 3 29 4 -4.75 0.00
 4 29 4 -1.35 0.00
 5 29 4 -0.73 0.00
 6 29 4 5.07 0.00
 7 29 4 -2.32 0.00
 8 29 4 -9.13 0.00
 9 29 4 5.95 0.00
 10 29 4 7.49 0.00
 11 29 4 2.96 0.00
 12 29 4 -4.99 0.00
 13 29 4 -5.13 0.00
 14 29 4 4.71 0.00
 15 29 4 0.25 0.00
 16 29 4 2.65 0.00
 17 29 4 -3.77 0.00
 18 29 4 -2.00 0.00
 0 30 4 -3.80 0.00
 1 30 4 -0.50 0.00
 2 30 4 -1.30 0.00
 3 30 4 0.17 0.00
 4 30 4 -1.62 0.00
 5 30 4 -9.81 0.00
 6 30 4 1.30 0.00
 7 30 4 2.33 0.00
 8 30 4 0.24 0.00
 9 30 4 1.90 0.00
 10 30 4 2.12 0.00
 11 30 4 1.32 0.00
 12 30 4 2.29 0.00
 13 30 4 7.75 0.00
 14 30 4 2.33 0.00
 15 30 4 -0.17 0.00
 16 30 4 8.61 0.00
 17 30 4 -3.34 0.00
 1 31 4 -0.58 0.00
 2 31 4 -2.16 0.00
 3 31 4 4.46 0.00
 4 31 4 6.74 0.00
 5 31 4 3.02 0.00
 6 31 4 -3.31 0.00
 7 31 4 -1.56 0.00
 8 31 4 2.48 0.00
 9 31 4 -7.18 0.00
 10 31 4 4.06 0.00
 11 31 4 1.22 0.00
 12 31 4 -4.20 0.00
 13 31 4 -2.22 0.00
 14 31 4 -3.23 0.00
 15 31 4 5.51 0.00
 16 31 4 -4.04 0.00
 0 32 4 3.17 0.00
 1 32 4 2.59 0.00
 2 32 4 -1.05 0.00
 3 32 4 2.01 0.00
 4 32 4 3.43 0.00
 5 32 4 3.20 0.00
 6 32 4 -2.18 0.00
 7 32 4 5.65 0.00
 8 32 4 0.99 0.00
 9 32 4 -5.94 0.00
 10 32 4 -3.04 0.00
 11 32 4 -4.74 0.00
 12 32 4 1.33 0.00
 13 32 4 -2.60 0.00
 14 32 4 -3.79 0.00
 15 32 4 -2.73 0.00
 1 33 4 3.08 0.00
 2 33 4 -5.88 0.00
 3 33 4 -0.57 0.00
 4 33 4 -4.22 0.00
 5 33 4 -4.98 0.00
 6 33 4 -1.14 0.00
 7 33 4 -0.76 0.00
 8 33 4 1.93 0.00
 9 33 4 5.66 0.00
 10 33 4 -9.20 0.00
 11 33 4 -1.36 0.00
 12 33 4 6.37 0.00
 13 33 4 -0.29 0.00
 14 33 4 5.47 0.00
 0 34 4 4.52 0.00
 1 34 4 -3.27 0.00
 2 34 4 -1.16 0.00
 3 34 4 -2.87 0.00
 4 34 4 -2.59 0.00
 5 34 4 1.35 0.00
 6 34 4 -0.70 0.00
 7 34 4 -1.74 0.00
 8 34 4 1.41 0.00
 9 34 4 3.11 0.00
 10 34 4 0.79 0.00
 11 34 4 1.86 0.00
 12 34 4 0.53 0.00
 1 35 4 -1.99 0.00
 2 35 4 17.12 0.00
 3 35 4 -2.90 0.00
 4 35 4 -5.48 0.00
 5 35 4 4.49 0.00
 6 35 4 7.34 0.00
 7 35 4 -2.10 0.00
 8 35 4 -2.53 0.00
 9 35 4 4.93 0.00
 10 35 4 1.77 0.00
 0 36 4 -14.54 0.00
 1 36 4 3.53 0.00
 2 36 4 7.90 0.00
 3 36 4 -1.39 0.00
 4 36 4 0.31 0.00
 5 36 4 3.66 0.00
 6 36 4 3.29 0.00
 7 36 4 -5.96 0.00
 8 36 4 -2.75 0.00
 1 37 4 7.94 0.00
 2 37 4 -10.63 0.00
 3 37 4 -7.40 0.00
 4 37 4 -2.04 0.00
 1 0 5 4.53 0.00
 3 0 5 8.48 0.00
 5 0 5 -37.69 0.00
 7 0 5 39.31 0.00
 9 0 5 -21.79 0.00
 11 0 5 20.22 0.00
 13 0 5 25.89 0.00
 15 0 5 -16.89 0.00
 17 0 5 19.75 0.00
 19 0 5 -8.63 0.00
 21 0 5 19.45 0.00
 23 0 5 -7.18 0.00
 25 0 5 3.37 0.00
 27 0 5 -5.67 0.00
 0 1 5 41.37 0.00
 1 1 5 1.14 0.00
 2 1 5 -4.81 0.00
 3 1 5 44.78 0.00
 4 1 5 -7.08 0.00
 5 1 5 48.86 0.00
 6 1 5 -16.08 0.00
 7 1 5 -39.23 0.00
 8 1 5 -25.70 0.00
 9 1 5 40.48 0.00
 10 1 5 23.61 0.00
 11 1 5 -1.54 0.00
 12 1 5 -16.71 0.00
 13 1 5 24.95 0.00
 14 1 5 4.09 0.00
 15 1 5 6.58 0.00
 16 1 5 3.70 0.00
 17 1 5 5.35 0.00
 18 1 5 12.59 0.00
 19 1 5 -9.27 0.00
 20 1 5 -15.42 0.00
 21 1 5 -6.39 0.00
 22 1 5 17.11 0.00
 23 1 5 -0.52 0.00
 24 1 5 -7.59 0.00
 25 1 5 -5.62 0.00
 26 1 5 3.76 0.00
 27 1 5 -3.60 0.00
 28 1 5 -1.84 0.00
 29 1 5 1.51 0.00
 1 2 5 73.44 0.00
 2 2 5 60.63 0.00
 3 2 5 -26.00 0.00
 4 2 5 35.93 0.00
 5 2 5 -10.29 0.00
 6 2 5 1.45 0.00
 7 2 5 21.18 0.00
 8 2 5 0.37 0.00
 9 2 5 -5.70 0.00
 10 2 5 -0.66 0.00
 11 2 5 -13.04 0.00
 12 2 5 2.56 0.00
 13 2 5 -16.91 0.00
 14 2 5 -3.80 0.00
 15 2 5 7.25 0.00
 16 2 5 -4.09 0.00
 17 2 5 -8.19 0.00
 18 2 5 9.96 0.00
 19 2 5 -7.44 0.00
 20 2 5 4.69 0.00
 21 2 5 -6.55 0.00
 22 2 5 -5.56 0.00
 23 2 5 3.58 0.00
 24 2 5 3.34 0.00
 25 2 5 -7.11 0.00
 26 2 5 5.71 0.00
 27 2 5 8.30 0.00
 28 2 5 -5.53 0.00
 29 2 5 4.62 0.00
 0 3 5 -75.68 0.00
 1 3 5 2.49 0.00
 2 3 5 2.30 0.00
 3 3 5 -25.11 0.00
 4 3 5 44.76 0.00
 5 3 5 -15.45 0.00
 6 3 5 14.92 0.00
 7 3 5 -20.19 0.00
 8 3 5 54.71 0.00
 9 3 5 18.19 0.00
 10 3 5 -37.69 0.00
 11 3 5 -31.59 0.00
 12 3 5 24.83 0.00
 13 3 5 -6.91 0.00
 14 3 5 1.00 0.00
 15 3 5 -3.80 0.00
 16 3 5 -23.84 0.00
 17 3 5 -1.26 0.00
 18 3 5 3.18 0.00
 19 3 5 -8.80 0.00
 20 3 5 -10.95 0.00
 21 3 5 20.10 0.00
 22 3 5 1.45 0.00
 23 3 5 -6.46 0.00
 24 3 5 -10.54 0.00
 26 3 5 1.97 0.00
 27 3 5 5.44 0.00
 28 3 5 9.13 0.00
 29 3 5 -4.52 0.00
 1 4 5 -88.67 0.00
 2 4 5 -47.39 0.00
 3 4 5 31.67 0.00
 4 4 5 -72.18 0.00
 5 4 5 23.19 0.00
 6 4 5 21.86 0.00
 7 4 5 -42.00 0.00
 8 4 5 -2.42 0.00
 9 4 5 7.93 0.00
 10 4 5 -21.95 0.00
 11 4 5 10.45 0.00
 12 4 5 6.81 0.00
 13 4 5 -4.51 0.00
 14 4 5 -1.53 0.00
 15 4 5 8.80 0.00
 16 4 5 5.09 0.00
 17 4 5 1.74 0.00
 18 4 5 -9.80 0.00
 19 4 5 14.08 0.00
 20 4 5 0.59 0.00
 21 4 5 -7.09 0.00
 22 4 5 -3.62 0.00
 23 4 5 12.81 0.00
 24 4 5 1.12 0.00
 25 4 5 -6.06 0.00
 26 4 5 2.02 0.00
 27 4 5 2.32 0.00
 28 4 5 -8.15 0.00
 29 4 5 -4.73 0.00
 0 5 5 20.55 0.00
 1 5 5 -5.76 0.00
 2 5 5 -5.03 0.00
 3 5 5 -15.80 0.00
 4 5 5 -38.90 0.00
 5 5 5 11.23 0.00
 6 5 5 -52.68 0.00
 7 5 5 27.56 0.00
 8 5 5 20.08 0.00
 9 5 5 -30.30 0.00
 10 5 5 -17.26 0.00
 11 5 5 33.98 0.00
 12 5 5 0.11 0.00
 13 5 5 -2.68 0.00
 14 5 5 -8.25 0.00
 15 5 5 1.02 0.00
 16 5 5 16.53 0.00
 17 5 5 5.68 0.00
 18 5 5 2.25 0.00
 19 5 5 3.00 0.00
 20 5 5 17.42 0.00
 21 5 5 -3.78 0.00
 22 5 5 -4.66 0.00
 23 5 5 -2.68 0.00
 24 5 5 14.35 0.00
 25 5 5 3.43 0.00
 26 5 5 -3.71 0.00
 27 5 5 -2.17 0.00
 28 5 5 -10.22 0.00
 29 5 5 9.43 0.00
 1 6 5 -27.98 0.00
 2 6 5 100.56 0.00
 3 6 5 35.02 0.00
 4 6 5 -46.25 0.00
 5 6 5 -32.34 0.00
 6 6 5 7.36 0.00
 7 6 5 39.12 0.00
 8 6 5 13.93 0.00
 9 6 5 -5.94 0.00
 10 6 5 19.47 0.00
 11 6 5 6.79 0.00
 12 6 5 14.43 0.00
 13 6 5 0.99 0.00
 14 6 5 -9.95 0.00
 15 6 5 -4.07 0.00
 16 6 5 6.02 0.00
 17 6 5 -1.01 0.00
 18 6 5 -1.17 0.00
 19 6 5 -15.02 0.00
 20 6 5 -1.39 0.00
 21 6 5 10.98 0.00
 22 6 5 3.46 0.00
 23 6 5 -12.26 0.00
 24 6 5 -2.24 0.00
 25 6 5 7.71 0.00
 26 6 5 -5.12 0.00
 27 6 5 -12.82 0.00
 28 6 5 -0.53 0.00
 29 6 5 13.25 0.00
 0 7 5 45.35 0.00
 1 7 5 37.43 0.00
 2 7 5 0.22 0.00
 3 7 5 -14.78 0.00
 4 7 5 66.69 0.00
 5 7 5 30.81 0.00
 6 7 5 7.96 0.00
 7 7 5 -13.98 0.00
 8 7 5 -35.26 0.00
 9 7 5 3.53 0.00
 10 7 5 11.19 0.00
 11 7 5 -7.28 0.00
 12 7 5 16.18 0.00
 13 7 5 -0.39 0.00
 14 7 5 -7.55 0.00
 15 7 5 -6.88 0.00
 16 7 5 3.08 0.00
 17 7 5 2.01 0.00
 18 7 5 -12.90 0.00
 19 7 5 -7.42 0.00
 20 7 5 -9.84 0.00
 21 7 5 -3.54 0.00
 22 7 5 -3.94 0.00
 23 7 5 8.64 0.00
 24 7 5 -3.43 0.00
 25 7 5 -3.98 0.00
 26 7 5 -1.68 0.00
 27 7 5 -7.20 0.00
 28 7 5 5.56 0.00
 1 8 5 19.90 0.00
 2 8 5 -51.11 0.00
 3 8 5 6.94 0.00
 4 8 5 44.27 0.00
 5 8 5 -60.05 0.00
 6 8 5 25.57 0.00
 7 8 5 46.02 0.00
 8 8 5 -26.01 0.00
 9 8 5 -47.25 0.00
 10 8 5 -28.24 0.00
 11 8 5 4.80 0.00
 12 8 5 -20.01 0.00
 13 8 5 -0.74 0.00
 14 8 5 5.61 0.00
 15 8 5 -0.34 0.00
 16 8 5 -0.39 0.00
 17 8 5 -2.08 0.00
 18 8 5 1.56 0.00
 19 8 5 6.13 0.00
 20 8 5 -3.78 0.00
 21 8 5 -1.34 0.00
 22 8 5 3.39 0.00
 23 8 5 -2.04 0.00
 24 8 5 3.72 0.00
 25 8 5 3.37 0.00
 26 8 5 10.98 0.00
 27 8 5 4.31 0.00
 28 8 5 -2.15 0.00
 0 9 5 -3.94 0.00
 1 9 5 -23.88 0.00
 2 9 5 -52.04 0.00
 3 9 5 -27.54 0.00
 4 9 5 -30.16 0.00
 5 9 5 4.11 0.00
 6 9 5 7.36 0.00
 7 9 5 -34.52 0.00
 8 9 5 30.03 0.00
 9 9 5 27.22 0.00
 10 9 5 8.13 0.00
 11 9 5 -12.22 0.00
 12 9 5 -15.32 0.00
 13 9 5 1.99 0.00
 14 9 5 -4.59 0.00
 15 9 5 11.34 0.00
 16 9 5 6.02 0.00
 17 9 5 2.98 0.00
 18 9 5 12.34 0.00
 19 9 5 -0.04 0.00
 20 9 5 1.36 0.00
 21 9 5 5.52 0.00
 22 9 5 6.44 0.00
 23 9 5 -2.16 0.00
 25 9 5 -6.85 0.00
 26 9 5 5.13 0.00
 27 9 5 19.44 0.00
 28 9 5 0.97 0.00
 1 10 5 4.13 0.00
 2 10 5 19.61 0.00
 3 10 5 -1.99 0.00
 4 10 5 -28.63 0.00
 5 10 5 41.46 0.00
 6 10 5 -20.71 0.00
 7 10 5 -9.91 0.00
 8 10 5 5.65 0.00
 9 10 5 11.91 0.00
 10 10 5 38.05 0.00
 11 10 5 23.18 0.00
 12 10 5 12.44 0.00
 13 10 5 -12.92 0.00
 14 10 5 -0.58 0.00
 15 10 5 5.90 0.00
 16 10 5 -3.80 0.00
 17 10 5 -1.11 0.00
 18 10 5 3.60 0.00
 19 10 5 12.51 0.00
 20 10 5 5.18 0.00
 21 10 5 -12.26 0.00
 22 10 5 -4.53 0.00
 23 10 5 8.53 0.00
 24 10 5 -7.17 0.00
 25 10 5 -1.87 0.00
 26 10 5 -5.08 0.00
 27 10 5 -1.85 0.00
 28 10 5 -4.70 0.00
 0 11 5 2.87 0.00
 1 11 5 6.10 0.00
 2 11 5 31.19 0.00
 3 11 5 44.57 0.00
 4 11 5 -1.94 0.00
 5 11 5 5.28 0.00
 6 11 5 9.96 0.00
 7 11 5 7.37 0.00
 8 11 5 -23.84 0.00
 9 11 5 -4.48 0.00
 10 11 5 -19.22 0.00
 11 11 5 13.33 0.00
 12 11 5 12.71 0.00
 13 11 5 -16.39 0.00
 14 11 5 7.32 0.00
 15 11 5 1.31 0.00
 16 11 5 -18.19 0.00
 17 11 5 -11.81 0.00
 18 11 5 2.17 0.00
 19 11 5 0.53 0.00
 20 11 5 -12.36 0.00
 21 11 5 -0.11 0.00
 22 11 5 4.63 0.00
 23 11 5 0.41 0.00
 24 11 5 -3.92 0.00
 25 11 5 1.06 0.00
 26 11 5 -3.35 0.00
 27 11 5 -9.08 0.00
 28 11 5 -6.17 0.00
 1 12 5 -25.85 0.00
 2 12 5 -7.12 0.00
 3 12 5 -15.73 0.00
 4 12 5 -6.61 0.00
 5 12 5 3.32 0.00
 6 12 5 23.92 0.00
 7 12 5 -33.28 0.00
 8 12 5 -11.62 0.00
 9 12 5 8.75 0.00
 10 12 5 -13.09 0.00
 11 12 5 -23.83 0.00
 12 12 5 -6.65 0.00
 13 12 5 3.03 0.00
 14 12 5 -2.32 0.00
 15 12 5 3.90 0.00
 16 12 5 6.01 0.00
 17 12 5 -6.98 0.00
 18 12 5 -7.21 0.00
 19 12 5 -3.96 0.00
 20 12 5 -4.23 0.00
 21 12 5 -1.58 0.00
 22 12 5 3.19 0.00
 23 12 5 5.67 0.00
 24 12 5 1.11 0.00
 25 12 5 -6.37 0.00
 26 12 5 6.29 0.00
 27 12 5 -0.95 0.00
 0 13 5 24.46 0.00
 1 13 5 -2.39 0.00
 2 13 5 -4.71 0.00
 3 13 5 -27.57 0.00
 4 13 5 -2.04 0.00
 5 13 5 -27.21 0.00
 6 13 5 8.41 0.00
 7 13 5 24.32 0.00
 8 13 5 -7.74 0.00
 9 13 5 -17.56 0.00
 10 13 5 20.26 0.00
 11 13 5 4.52 0.00
 12 13 5 -5.32 0.00
 13 13 5 6.82 0.00
 14 13 5 0.58 0.00
 15 13 5 3.46 0.00
 16 13 5 11.59 0.00
 17 13 5 6.62 0.00
 18 13 5 2.26 0.00
 19 13 5 4.01 0.00
 20 13 5 5.32 0.00
 21 13 5 -0.66 0.00
 22 13 5 3.03 0.00
 23 13 5 -3.00 0.00
 24 13 5 2.53 0.00
 25 13 5 4.97 0.00
 26 13 5 -2.18 0.00
 27 13 5 -3.53 0.00
 1 14 5 1.65 0.00
 2 14 5 0.07 0.00
 3 14 5 33.62 0.00
 4 14 5 27.49 0.00
 5 14 5 -9.40 0.00
 6 14 5 -10.42 0.00
 7 14 5 15.44 0.00
 8 14 5 -1.80 0.00
 9 14 5 18.00 0.00
 10 14 5 7.27 0.00
 11 14 5 -3.73 0.00
 12 14 5 -8.27 0.00
 13 14 5 18.64 0.00
 14 14 5 -3.41 0.00
 15 14 5 -13.38 0.00
 16 14 5 6.60 0.00
 17 14 5 6.36 0.00
 18 14 5 -1.69 0.00
 19 14 5 -0.05 0.00
 20 14 5 2.38 0.00
 21 14 5 2.18 0.00
 22 14 5 7.63 0.00
 23 14 5 -5.54 0.00
 24 14 5 -7.69 0.00
 25 14 5 4.16 0.00
 26 14 5 3.10 0.00
 27 14 5 -0.01 0.00
 0 15 5 -3.82 0.00
 1 15 5 -0.87 0.00
 2 15 5 -28.35 0.00
 3 15 5 17.31 0.00
 4 15 5 -3.17 0.00
 5 15 5 26.69 0.00
 6 15 5 5.56 0.00
 7 15 5 -28.79 0.00
 8 15 5 -5.09 0.00
 9 15 5 16.34 0.00
 10 15 5 9.91 0.00
 11 15 5 -15.22 0.00
 12 15 5 -11.77 0.00
 13 15 5 3.75 0.00
 14 15 5 -4.54 0.00
 15 15 5 -9.77 0.00
 16 15 5 -1.52 0.00
 17 15 5 -0.85 0.00
 18 15 5 -3.85 0.00
 19 15 5 -5.07 0.00
 20 15 5 -7.39 0.00
 21 15 5 -2.10 0.00
 22 15 5 -0.18 0.00
 23 15 5 -0.28 0.00
 24 15 5 -0.24 0.00
 25 15 5 6.39 0.00
 26 15 5 -5.22 0.00
 1 16 5 6.61 0.00
 2 16 5 -10.84 0.00
 3 16 5 -25.57 0.00
 4 16 5 -6.93 0.00
 5 16 5 -0.57 0.00
 6 16 5 -3.52 0.00
 7 16 5 -2.67 0.00
 8 16 5 -5.35 0.00
 9 16 5 -16.29 0.00
 10 16 5 12.98 0.00
 11 16 5 -1.36 0.00
 12 16 5 7.22 0.00
 13 16 5 -12.05 0.00
 14 16 5 5.24 0.00
 15 16 5 5.22 0.00
 16 16 5 -7.18 0.00
 17 16 5 4.05 0.00
 18 16 5 1.09 0.00
 19 16 5 -3.22 0.00
 20 16 5 -2.97 0.00
 21 16 5 5.18 0.00
 22 16 5 -1.46 0.00
 23 16 5 0.47 0.00
 24 16 5 -1.57 0.00
 25 16 5 0.76 0.00
 26 16 5 3.15 0.00
 0 17 5 20.36 0.00
 1 17 5 -1.75 0.00
 2 17 5 5.34 0.00
 3 17 5 -6.16 0.00
 4 17 5 17.24 0.00
 5 17 5 -11.62 0.00
 6 17 5 3.51 0.00
 7 17 5 0.63 0.00
 8 17 5 -5.82 0.00
 9 17 5 18.06 0.00
 10 17 5 -10.64 0.00
 11 17 5 -1.63 0.00
 12 17 5 11.23 0.00
 13 17 5 0.25 0.00
 14 17 5 4.73 0.00
 15 17 5 8.38 0.00
 16 17 5 -3.40 0.00
 17 17 5 2.69 0.00
 18 17 5 2.01 0.00
 19 17 5 1.43 0.00
 20 17 5 5.36 0.00
 21 17 5 4.37 0.00
 22 17 5 -2.11 0.00
 23 17 5 -0.39 0.00
 24 17 5 4.31 0.00
 25 17 5 -6.00 0.00
 26 17 5 -1.27 0.00
 1 18 5 6.61 0.00
 2 18 5 -2.59 0.00
 3 18 5 3.12 0.00
 4 18 5 -5.81 0.00
 5 18 5 12.79 0.00
 6 18 5 17.30 0.00
 7 18 5 -2.00 0.00
 8 18 5 -4.39 0.00
 9 18 5 2.26 0.00
 10 18 5 -8.49 0.00
 11 18 5 20.34 0.00
 12 18 5 -8.33 0.00
 13 18 5 -8.00 0.00
 14 18 5 1.77 0.00
 15 18 5 2.97 0.00
 16 18 5 2.22 0.00
 17 18 5 1.18 0.00
 18 18 5 -1.39 0.00
 19 18 5 -8.90 0.00
 20 18 5 8.15 0.00
 21 18 5 2.73 0.00
 22 18 5 -4.32 0.00
 23 18 5 -4.24 0.00
 24 18 5 -0.28 0.00
 25 18 5 -5.47 0.00
 0 19 5 3.18 0.00
 1 19 5 -1.91 0.00
 2 19 5 -6.95 0.00
 3 19 5 10.97 0.00
 4 19 5 -6.22 0.00
 5 19 5 -2.55 0.00
 6 19 5 -23.46 0.00
 7 19 5 8.75 0.00
 8 19 5 17.21 0.00
 9 19 5 -19.58 0.00
 10 19 5 3.49 0.00
 11 19 5 -0.85 0.00
 12 19 5 -7.30 0.00
 13 19 5 4.00 0.00
 14 19 5 -2.29 0.00
 15 19 5 -9.09 0.00
 16 19 5 11.55 0.00
 17 19 5 -2.72 0.00
 18 19 5 -6.09 0.00
 19 19 5 -1.44 0.00
 20 19 5 0.53 0.00
 21 19 5 -2.48 0.00
 22 19 5 -0.93 0.00
 23 19 5 1.44 0.00
 24 19 5 -1.63 0.00
 25 19 5 2.22 0.00
 1 20 5 -17.45 0.00
 2 20 5 15.29 0.00
 3 20 5 9.19 0.00
 4 20 5 4.86 0.00
 5 20 5 -17.59 0.00
 6 20 5 -8.65 0.00
 7 20 5 9.68 0.00
 8 20 5 -2.06 0.00
 9 20 5 -10.22 0.00
 10 20 5 12.06 0.00
 11 20 5 -7.76 0.00
 12 20 5 -5.87 0.00
 13 20 5 2.35 0.00
 14 20 5 3.67 0.00
 15 20 5 -4.59 0.00
 16 20 5 -7.00 0.00
 17 20 5 6.50 0.00
 18 20 5 4.92 0.00
 19 20 5 -5.54 0.00
 20 20 5 -6.69 0.00
 21 20 5 9.15 0.00
 22 20 5 2.24 0.00
 23 20 5 -1.08 0.00
 24 20 5 1.56 0.00
 0 21 5 -13.09 0.00
 1 21 5 2.31 0.00
 2 21 5 -5.58 0.00
 3 21 5 -8.23 0.00
 4 21 5 20.58 0.00
 5 21 5 -4.54 0.00
 6 21 5 -0.54 0.00
 7 21 5 1.27 0.00
 8 21 5 2.80 0.00
 9 21 5 7.94 0.00
 10 21 5 -6.36 0.00
 11 21 5 -0.18 0.00
 12 21 5 5.04 0.00
 13 21 5 4.23 0.00
 14 21 5 -2.51 0.00
 15 21 5 -3.05 0.00
 16 21 5 -6.75 0.00
 17 21 5 6.35 0.00
 18 21 5 -5.67 0.00
 19 21 5 6.04 0.00
 20 21 5 8.77 0.00
 21 21 5 -4.70 0.00
 22 21 5 2.45 0.00
 23 21 5 -0.88 0.00
 24 21 5 -3.86 0.00
 1 22 5 5.72 0.00
 2 22 5 -16.67 0.00
 3 22 5 4.85 0.00
 4 22 5 -4.68 0.00
 5 22 5 -2.58 0.00
 6 22 5 7.34 0.00
 7 22 5 9.29 0.00
 8 22 5 -3.54 0.00
 9 22 5 -1.82 0.00
 10 22 5 -4.79 0.00
 11 22 5 5.79 0.00
 12 22 5 3.89 0.00
 13 22 5 2.04 0.00
 14 22 5 3.38 0.00
 15 22 5 5.41 0.00
 16 22 5 0.56 0.00
 17 22 5 -9.19 0.00
 18 22 5 -1.21 0.00
 19 22 5 4.70 0.00
 20 22 5 0.67 0.00
 21 22 5 -1.39 0.00
 22 22 5 -0.27 0.00
 23 22 5 -4.08 0.00
 0 23 5 9.43 0.00
 1 23 5 -0.50 0.00
 2 23 5 8.75 0.00
 3 23 5 6.75 0.00
 4 23 5 -4.30 0.00
 5 23 5 7.73 0.00
 6 23 5 -10.43 0.00
 7 23 5 -5.35 0.00
 8 23 5 10.69 0.00
 9 23 5 4.80 0.00
 10 23 5 -4.13 0.00
 11 23 5 -9.79 0.00
 12 23 5 -1.98 0.00
 13 23 5 3.47 0.00
 14 23 5 1.60 0.00
 15 23 5 0.75 0.00
 16 23 5 4.68 0.00
 17 23 5 -4.47 0.00
 18 23 5 7.73 0.00
 19 23 5 -4.69 0.00
 20 23 5 -10.17 0.00
 21 23 5 1.54 0.00
 22 23 5 -5.69 0.00
 23 23 5 2.53 0.00
 1 24 5 8.06 0.00
 2 24 5 15.46 0.00
 3 24 5 -11.64 0.00
 4 24 5 -2.77 0.00
 5 24 5 1.75 0.00
 6 24 5 -2.02 0.00
 7 24 5 -4.00 0.00
 8 24 5 3.13 0.00
 9 24 5 -6.60 0.00
 10 24 5 4.91 0.00
 11 24 5 6.50 0.00
 12 24 5 -0.82 0.00
 13 24 5 -14.31 0.00
 14 24 5 -4.33 0.00
 15 24 5 6.90 0.00
 16 24 5 0.04 0.00
 17 24 5 -0.20 0.00
 18 24 5 1.60 0.00
 19 24 5 -0.08 0.00
 20 24 5 1.16 0.00
 21 24 5 2.57 0.00
 22 24 5 -0.73 0.00
 0 25 5 -11.82 0.00
 1 25 5 -4.68 0.00
 2 25 5 -1.83 0.00
 3 25 5 -0.95 0.00
 4 25 5 -5.46 0.00
 5 25 5 -7.28 0.00
 6 25 5 5.47 0.00
 7 25 5 -1.70 0.00
 8 25 5 -5.43 0.00
 9 25 5 0.87 0.00
 10 25 5 -1.14 0.00
 11 25 5 3.39 0.00
 12 25 5 3.28 0.00
 13 25 5 -0.39 0.00
 14 25 5 5.39 0.00
 15 25 5 -0.84 0.00
 16 25 5 -7.88 0.00
 17 25 5 2.92 0.00
 18 25 5 -0.58 0.00
 19 25 5 3.66 0.00
 20 25 5 6.88 0.00
 21 25 5 -0.71 0.00
 1 26 5 -3.12 0.00
 2 26 5 -0.21 0.00
 3 26 5 7.63 0.00
 4 26 5 -4.17 0.00
 5 26 5 0.14 0.00
 6 26 5 3.96 0.00
 7 26 5 7.31 0.00
 8 26 5 -3.89 0.00
 9 26 5 -1.17 0.00
 10 26 5 2.09 0.00
 11 26 5 5.02 0.00
 12 26 5 -6.77 0.00
 13 26 5 2.61 0.00
 14 26 5 0.72 0.00
 15 26 5 -4.69 0.00
 16 26 5 3.48 0.00
 17 26 5 4.40 0.00
 18 26 5 -1.86 0.00
 19 26 5 -4.37 0.00
 20 26 5 -2.99 0.00
 21 26 5 -5.17 0.00
 0 27 5 1.33 0.00
 1 27 5 0.89 0.00
 2 27 5 3.55 0.00
 3 27 5 5.87 0.00
 4 27 5 2.69 0.00
 5 27 5 6.10 0.00
 6 27 5 -0.29 0.00
 7 27 5 -2.86 0.00
 8 27 5 0.02 0.00
 9 27 5 2.34 0.00
 10 27 5 0.80 0.00
 11 27 5 -4.15 0.00
 12 27 5 2.48 0.00
 13 27 5 4.50 0.00
 14 27 5 -5.50 0.00
 15 27 5 -6.84 0.00
 16 27 5 -1.36 0.00
 17 27 5 0.82 0.00
 18 27 5 2.46 0.00
 19 27 5 1.07 0.00
 20 27 5 -3.78 0.00
 1 28 5 -10.96 0.00
 2 28 5 2.58 0.00
 3 28 5 1.24 0.00
 4 28 5 -0.53 0.00
 5 28 5 -6.95 0.00
 6 28 5 0.97 0.00
 7 28 5 1.15 0.00
 8 28 5 -5.83 0.00
 9 28 5 -5.50 0.00
 10 28 5 2.02 0.00
 11 28 5 -2.97 0.00
 12 28 5 -0.03 0.00
 13 28 5 -1.02 0.00
 14 28 5 2.97 0.00
 15 28 5 4.16 0.00
 16 28 5 2.18 0.00
 17 28 5 -5.66 0.00
 18 28 5 -2.26 0.00
 19 28 5 6.57 0.00
 0 29 5 6.63 0.00
 1 29 5 0.83 0.00
 2 29 5 -5.14 0.00
 3 29 5 -5.32 0.00
 4 29 5 2.03 0.00
 5 29 5 -1.87 0.00
 6 29 5 3.02 0.00
 7 29 5 -3.29 0.00
 8 29 5 2.93 0.00
 9 29 5 7.32 0.00
 10 29 5 -4.77 0.00
 11 29 5 -4.89 0.00
 12 29 5 -2.19 0.00
 13 29 5 3.87 0.00
 14 29 5 1.10 0.00
 15 29 5 1.34 0.00
 16 29 5 0.90 0.00
 17 29 5 -1.79 0.00
 18 29 5 4.12 0.00
 1 30 5 6.29 0.00
 2 30 5 -6.98 0.00
 3 30 5 4.91 0.00
 4 30 5 -0.61 0.00
 5 30 5 -1.50 0.00
 6 30 5 2.27 0.00
 7 30 5 1.17 0.00
 8 30 5 5.89 0.00
 9 30 5 3.80 0.00
 10 30 5 1.24 0.00
 11 30 5 4.60 0.00
 12 30 5 1.58 0.00
 13 30 5 -2.93 0.00
 14 30 5 -1.30 0.00
 15 30 5 5.58 0.00
 16 30 5 -7.08 0.00
 17 30 5 -3.48 0.00
 0 31 5 -1.76 0.00
 1 31 5 -3.42 0.00
 2 31 5 -0.77 0.00
 3 31 5 9.57 0.00
 4 31 5 -2.05 0.00
 5 31 5 -5.70 0.00
 6 31 5 -5.82 0.00
 7 31 5 3.59 0.00
 8 31 5 -2.25 0.00
 9 31 5 -2.89 0.00
 10 31 5 5.97 0.00
 11 31 5 -0.78 0.00
 12 31 5 2.21 0.00
 13 31 5 -1.74 0.00
 14 31 5 3.70 0.00
 15 31 5 -0.49 0.00
 16 31 5 -2.73 0.00
 1 32 5 -4.69 0.00
 2 32 5 0.09 0.00
 3 32 5 3.00 0.00
 4 32 5 6.73 0.00
 5 32 5 -2.86 0.00
 6 32 5 -2.02 0.00
 7 32 5 5.28 0.00
 8 32 5 -4.82 0.00
 9 32 5 -8.40 0.00
 10 32 5 -3.98 0.00
 11 32 5 3.31 0.00
 12 32 5 -0.45 0.00
 13 32 5 -5.83 0.00
 14 32 5 5.51 0.00
 0 33 5 4.10 0.00
 1 33 5 -2.99 0.00
 2 33 5 0.85 0.00
 3 33 5 0.53 0.00
 4 33 5 0.69 0.00
 5 33 5 1.38 0.00
 6 33 5 0.73 0.00
 7 33 5 2.78 0.00
 8 33 5 5.83 0.00
 9 33 5 -5.11 0.00
 10 33 5 -8.34 0.00
 11 33 5 6.88 0.00
 12 33 5 -2.75 0.00
 13 33 5 -0.64 0.00
 1 34 5 -2.18 0.00
 2 34 5 -0.64 0.00
 3 34 5 -4.72 0.00
 4 34 5 -1.95 0.00
 5 34 5 -1.93 0.00
 6 34 5 -1.50 0.00
 7 34 5 2.13 0.00
 8 34 5 4.20 0.00
 9 34 5 -3.44 0.00
 10 34 5 -2.65 0.00
 11 34 5 5.84 0.00
 0 35 5 -0.52 0.00
 1 35 5 9.81 0.00
 2 35 5 -3.81 0.00
 3 35 5 -11.69 0.00
 4 35 5 6.22 0.00
 5 35 5 3.46 0.00
 6 35 5 -6.90 0.00
 7 35 5 -1.50 0.00
 8 35 5 7.65 0.00
 9 35 5 -0.66 0.00
 1 36 5 9.47 0.00
 2 36 5 -2.29 0.00
 3 36 5 0.77 0.00
 4 36 5 4.25 0.00
 5 36 5 4.05 0.00
 6 36 5 -3.91 0.00
 7 36 5 -1.54 0.00
 0 37 5 10.63 0.00
 1 37 5 -5.26 0.00
 0 0 6 -59.35 0.00
 2 0 6 -42.12 0.00
 4 0 6 -16.47 0.00
 6 0 6 -5.74 0.00
 8 0 6 -48.33 0.00
 10 0 6 3.98 0.00
 12 0 6 20.68 0.00
 14 0 6 -13.97 0.00
 16 0 6 14.08 0.00
 18 0 6 -11.10 0.00
 20 0 6 22.90 0.00
 22 0 6 -6.99 0.00
 24 0 6 -0.04 0.00
 26 0 6 2.79 0.00
 28 0 6 -1.04 0.00
 1 1 6 21.40 0.00
 2 1 6 16.47 0.00
 3 1 6 -52.13 0.00
 4 1 6 36.51 0.00
 5 1 6 0.58 0.00
 6 1 6 9.13 0.00
 7 1 6 -10.15 0.00
 8 1 6 67.51 0.00
 9 1 6 17.20 0.00
 10 1 6 -14.96 0.00
 11 1 6 -13.96 0.00
 12 1 6 18.74 0.00
 13 1 6 6.18 0.00
 14 1 6 12.85 0.00
 15 1 6 -1.49 0.00
 16 1 6 5.96 0.00
 17 1 6 5.18 0.00
 18 1 6 -7.31 0.00
 19 1 6 -14.87 0.00
 20 1 6 0.49 0.00
 21 1 6 9.33 0.00
 22 1 6 8.83 0.00
 23 1 6 -6.62 0.00
 24 1 6 -4.26 0.00
 25 1 6 0.48 0.00
 26 1 6 -3.13 0.00
 27 1 6 -4.04 0.00
 28 1 6 1.38 0.00
 29 1 6 3.17 0.00
 0 2 6 108.74 0.00
 1 2 6 38.66 0.00
 2 2 6 3.41 0.00
 3 2 6 -20.52 0.00
 4 2 6 23.23 0.00
 5 2 6 -43.35 0.00
 6 2 6 8.71 0.00
 7 2 6 -5.80 0.00
 8 2 6 40.34 0.00
 9 2 6 -16.98 0.00
 10 2 6 -9.11 0.00
 11 2 6 0.24 0.00
 12 2 6 -15.30 0.00
 13 2 6 -1.11 0.00
 14 2 6 7.56 0.00
 15 2 6 3.54 0.00
 16 2 6 -6.28 0.00
 17 2 6 9.33 0.00
 18 2 6 -1.47 0.00
 19 2 6 7.26 0.00
 20 2 6 -4.24 0.00
 21 2 6 -2.59 0.00
 22 2 6 -1.87 0.00
 23 2 6 8.41 0.00
 24 2 6 -5.75 0.00
 25 2 6 0.71 0.00
 26 2 6 11.81 0.00
 27 2 6 -3.93 0.00
 28 2 6 -5.95 0.00
 29 2 6 1.81 0.00
 1 3 6 80.74 0.00
 2 3 6 3.73 0.00
 3 3 6 29.40 0.00
 4 3 6 -23.91 0.00
 5 3 6 29.11 0.00
 6 3 6 -43.24 0.00
 7 3 6 11.02 0.00
 8 3 6 -5.91 0.00
 9 3 6 -18.13 0.00
 10 3 6 -23.91 0.00
 11 3 6 13.70 0.00
 12 3 6 -3.49 0.00
 13 3 6 3.12 0.00
 14 3 6 -5.99 0.00
 15 3 6 -10.05 0.00
 16 3 6 -12.63 0.00
 17 3 6 8.85 0.00
 18 3 6 1.80 0.00
 19 3 6 3.64 0.00
 20 3 6 15.46 0.00
 21 3 6 4.56 0.00
 22 3 6 -15.49 0.00
 23 3 6 -0.34 0.00
 24 3 6 4.07 0.00
 25 3 6 6.65 0.00
 26 3 6 2.67 0.00
 27 3 6 3.32 0.00
 28 3 6 0.54 0.00
 29 3 6 -2.87 0.00
 0 4 6 -144.21 0.00
 1 4 6 -31.04 0.00
 2 4 6 24.63 0.00
 3 4 6 27.36 0.00
 4 4 6 6.72 0.00
 5 4 6 53.81 0.00
 6 4 6 -55.68 0.00
 7 4 6 19.23 0.00
 8 4 6 19.68 0.00
 9 4 6 -1.93 0.00
 10 4 6 -8.41 0.00
 11 4 6 19.87 0.00
 12 4 6 10.45 0.00
 13 4 6 -10.35 0.00
 14 4 6 10.77 0.00
 15 4 6 11.62 0.00
 16 4 6 -9.03 0.00
 17 4 6 -26.04 0.00
 18 4 6 10.10 0.00
 19 4 6 -1.23 0.00
 20 4 6 -9.26 0.00
 21 4 6 -8.11 0.00
 22 4 6 12.26 0.00
 23 4 6 -3.54 0.00
 24 4 6 -8.12 0.00
 25 4 6 -3.40 0.00
 26 4 6 0.38 0.00
 27 4 6 0.33 0.00
 28 4 6 -7.41 0.00
 1 5 6 -23.05 0.00
 2 5 6 0.16 0.00
 3 5 6 -46.77 0.00
 4 5 6 -4.02 0.00
 5 5 6 -12.74 0.00
 6 5 6 56.11 0.00
 7 5 6 -0.21 0.00
 8 5 6 -20.36 0.00
 9 5 6 -3.31 0.00
 10 5 6 32.07 0.00
 11 5 6 -20.58 0.00
 12 5 6 -4.10 0.00
 13 5 6 -4.26 0.00
 14 5 6 9.91 0.00
 15 5 6 9.86 0.00
 16 5 6 3.51 0.00
 17 5 6 -12.38 0.00
 18 5 6 0.51 0.00
 19 5 6 9.02 0.00
 20 5 6 -9.77 0.00
 21 5 6 -16.44 0.00
 22 5 6 -0.10 0.00
 23 5 6 11.65 0.00
 24 5 6 4.42 0.00
 25 5 6 -10.78 0.00
 26 5 6 -3.71 0.00
 27 5 6 -3.16 0.00
 28 5 6 3.87 0.00
 0 6 6 32.74 0.00
 1 6 6 21.48 0.00
 2 6 6 30.37 0.00
 3 6 6 -83.28 0.00
 4 6 6 -27.20 0.00
 5 6 6 -12.61 0.00
 6 6 6 36.73 0.00
 7 6 6 -0.41 0.00
 8 6 6 -21.79 0.00
 9 6 6 -4.51 0.00
 10 6 6 1.82 0.00
 11 6 6 1.00 0.00
 12 6 6 -9.60 0.00
 13 6 6 -27.16 0.00
 14 6 6 -6.36 0.00
 15 6 6 21.68 0.00
 16 6 6 1.13 0.00
 17 6 6 -3.08 0.00
 18 6 6 -2.38 0.00
 19 6 6 13.23 0.00
 20 6 6 6.79 0.00
 21 6 6 9.02 0.00
 22 6 6 -6.09 0.00
 23 6 6 1.55 0.00
 24 6 6 7.86 0.00
 25 6 6 -0.85 0.00
 26 6 6 -3.63 0.00
 27 6 6 4.65 0.00
 28 6 6 13.02 0.00
 1 7 6 -16.39 0.00
 2 7 6 -6.60 0.00
 3 7 6 28.03 0.00
 4 7 6 -0.40 0.00
 5 7 6 -4.55 0.00
 6 7 6 -16.62 0.00
 7 7 6 -27.53 0.00
 8 7 6 -3.31 0.00
 9 7 6 42.73 0.00
 10 7 6 -15.77 0.00
 11 7 6 20.11 0.00
 12 7 6 4.32 0.00
 13 7 6 2.23 0.00
 14 7 6 -11.55 0.00
 15 7 6 0.95 0.00
 16 7 6 4.60 0.00
 17 7 6 1.29 0.00
 18 7 6 1.05 0.00
 19 7 6 -3.03 0.00
 20 7 6 1.82 0.00
 21 7 6 3.50 0.00
 22 7 6 10.62 0.00
 23 7 6 -0.97 0.00
 24 7 6 -4.85 0.00
 25 7 6 -5.00 0.00
 26 7 6 -3.62 0.00
 27 7 6 3.65 0.00
 28 7 6 0.99 0.00
 0 8 6 33.25 0.00
 1 8 6 8.50 0.00
 2 8 6 -22.63 0.00
 3 8 6 69.82 0.00
 4 8 6 -36.35 0.00
 5 8 6 10.23 0.00
 6 8 6 62.19 0.00
 7 8 6 -22.08 0.00
 8 8 6 -40.61 0.00
 9 8 6 -17.27 0.00
 10 8 6 29.90 0.00
 11 8 6 16.38 0.00
 12 8 6 3.25 0.00
 13 8 6 9.08 0.00
 14 8 6 0.82 0.00
 15 8 6 1.38 0.00
 16 8 6 0.87 0.00
 17 8 6 -10.90 0.00
 18 8 6 3.42 0.00
 19 8 6 -4.25 0.00
 20 8 6 -5.02 0.00
 21 8 6 -7.19 0.00
 22 8 6 -0.54 0.00
 23 8 6 3.48 0.00
 24 8 6 -0.98 0.00
 25 8 6 -0.88 0.00
 26 8 6 0.06 0.00
 27 8 6 -5.87 0.00
 28 8 6 -13.08 0.00
 1 9 6 -16.53 0.00
 2 9 6 15.91 0.00
 3 9 6 8.68 0.00
 4 9 6 8.82 0.00
 5 9 6 25.56 0.00
 6 9 6 -20.17 0.00
 7 9 6 7.70 0.00
 8 9 6 32.19 0.00
 9 9 6 -23.76 0.00
 10 9 6 -10.81 0.00
 11 9 6 -32.49 0.00
 12 9 6 7.64 0.00
 13 9 6 -2.10 0.00
 14 9 6 4.07 0.00
 15 9 6 -2.81 0.00
 16 9 6 -5.73 0.00
 17 9 6 7.89 0.00
 18 9 6 -4.17 0.00
 19 9 6 -9.54 0.00
 20 9 6 -0.21 0.00
 21 9 6 6.29 0.00
 22 9 6 -9.13 0.00
 23 9 6 0.15 0.00
 24 9 6 0.07 0.00
 25 9 6 8.81 0.00
 26 9 6 11.63 0.00
 27 9 6 0.77 0.00
 28 9 6 -10.73 0.00
 0 10 6 -13.80 0.00
 1 10 6 -8.40 0.00
 2 10 6 -7.29 0.00
 3 10 6 -51.11 0.00
 4 10 6 25.98 0.00
 5 10 6 -2.27 0.00
 6 10 6 -23.79 0.00
 7 10 6 23.45 0.00
 8 10 6 -4.36 0.00
 9 10 6 16.82 0.00
 10 10 6 -0.02 0.00
 11 10 6 -3.29 0.00
 12 10 6 -15.00 0.00
 13 10 6 -10.54 0.00
 14 10 6 5.76 0.00
 15 10 6 -2.87 0.00
 16 10 6 -4.57 0.00
 17 10 6 11.57 0.00
 18 10 6 6.15 0.00
 19 10 6 4.76 0.00
 20 10 6 -12.46 0.00
 21 10 6 -3.03 0.00
 22 10 6 11.51 0.00
 23 10 6 -1.55 0.00
 24 10 6 -3.44 0.00
 25 10 6 0.16 0.00
 26 10 6 -1.79 0.00
 27 10 6 3.11 0.00
 28 10 6 10.93 0.00
 1 11 6 2.50 0.00
 2 11 6 4.54 0.00
 3 11 6 -5.40 0.00
 4 11 6 -25.71 0.00
 5 11 6 -7.75 0.00
 6 11 6 16.36 0.00
 7 11 6 -12.97 0.00
 8 11 6 -5.85 0.00
 9 11 6 11.54 0.00
 10 11 6 4.82 0.00
 11 11 6 21.91 0.00
 12 11 6 -17.83 0.00
 13 11 6 9.28 0.00
 14 11 6 13.53 0.00
 15 11 6 -9.55 0.00
 16 11 6 -1.83 0.00
 17 11 6 3.88 0.00
 18 11 6 6.24 0.00
 19 11 6 -1.79 0.00
 20 11 6 0.87 0.00
 21 11 6 5.90 0.00
 22 11 6 4.77 0.00
 23 11 6 -8.78 0.00
 24 11 6 -0.09 0.00
 25 11 6 0.07 0.00
 26 11 6 -6.22 0.00
 27 11 6 -8.14 0.00
 0 12 6 0.26 0.00
 1 12 6 -5.05 0.00
 2 12 6 12.21 0.00
 3 12 6 15.32 0.00
 4 12 6 -4.25 0.00
 5 12 6 12.20 0.00
 6 12 6 -12.04 0.00
 7 12 6 -18.56 0.00
 8 12 6 24.01 0.00
 9 12 6 -8.31 0.00
 10 12 6 -4.24 0.00
 11 12 6 -1.05 0.00
 12 12 6 5.67 0.00
 13 12 6 2.16 0.00
 14 12 6 -0.73 0.00
 15 12 6 0.17 0.00
 16 12 6 0.41 0.00
 17 12 6 -5.79 0.00
 18 12 6 2.32 0.00
 19 12 6 -5.59 0.00
 20 12 6 -0.75 0.00
 21 12 6 3.94 0.00
 22 12 6 3.82 0.00
 23 12 6 1.21 0.00
 24 12 6 -0.55 0.00
 25 12 6 4.23 0.00
 26 12 6 -2.94 0.00
 27 12 6 -5.69 0.00
 1 13 6 -27.66 0.00
 2 13 6 -0.16 0.00
 3 13 6 4.72 0.00
 4 13 6 3.26 0.00
 5 13 6 -1.50 0.00
 6 13 6 16.35 0.00
 7 13 6 -5.93 0.00
 8 13 6 -33.85 0.00
 9 13 6 16.58 0.00
 10 13 6 21.07 0.00
 11 13 6 -16.46 0.00
 12 13 6 3.18 0.00
 13 13 6 -0.21 0.00
 14 13 6 -10.49 0.00
 15 13 6 8.50 0.00
 16 13 6 -0.76 0.00
 17 13 6 -4.31 0.00
 18 13 6 1.22 0.00
 19 13 6 2.25 0.00
 20 13 6 -2.11 0.00
 21 13 6 -0.32 0.00
 22 13 6 -3.29 0.00
 23 13 6 -4.67 0.00
 24 13 6 3.09 0.00
 25 13 6 3.49 0.00
 26 13 6 -0.76 0.00
 27 13 6 3.67 0.00
 0 14 6 -6.95 0.00
 1 14 6 12.35 0.00
 2 14 6 6.04 0.00
 3 14 6 17.56 0.00
 4 14 6 -12.86 0.00
 5 14 6 -18.58 0.00
 6 14 6 21.07 0.00
 7 14 6 2.11 0.00
 8 14 6 -13.13 0.00
 9 14 6 11.16 0.00
 10 14 6 -11.38 0.00
 11 14 6 -7.00 0.00
 12 14 6 16.97 0.00
 13 14 6 4.94 0.00
 14 14 6 -14.34 0.00
 15 14 6 4.82 0.00
 16 14 6 8.10 0.00
 17 14 6 0.37 0.00
 18 14 6 -8.49 0.00
 19 14 6 2.00 0.00
 20 14 6 6.48 0.00
 21 14 6 1.28 0.00
 22 14 6 -6.08 0.00
 23 14 6 -6.39 0.00
 24 14 6 3.30 0.00
 25 14 6 1.57 0.00
 26 14 6 -5.54 0.00
 1 15 6 -4.89 0.00
 2 15 6 -6.82 0.00
 3 15 6 18.43 0.00
 4 15 6 10.59 0.00
 5 15 6 8.40 0.00
 6 15 6 -18.63 0.00
 7 15 6 -6.27 0.00
 8 15 6 25.12 0.00
 9 15 6 0.31 0.00
 10 15 6 -17.92 0.00
 11 15 6 -11.49 0.00
 12 15 6 5.35 0.00
 13 15 6 -1.06 0.00
 14 15 6 -1.04 0.00
 15 15 6 -3.58 0.00
 16 15 6 9.16 0.00
 17 15 6 1.14 0.00
 18 15 6 -11.22 0.00
 19 15 6 -7.46 0.00
 20 15 6 2.22 0.00
 21 15 6 9.31 0.00
 22 15 6 -0.38 0.00
 23 15 6 -2.05 0.00
 24 15 6 3.39 0.00
 25 15 6 -0.01 0.00
 26 15 6 -7.59 0.00
 0 16 6 12.28 0.00
 1 16 6 -16.52 0.00
 2 16 6 -13.56 0.00
 3 16 6 -14.83 0.00
 4 16 6 3.33 0.00
 5 16 6 8.08 0.00
 6 16 6 -4.77 0.00
 7 16 6 -3.50 0.00
 8 16 6 1.22 0.00
 9 16 6 7.53 0.00
 10 16 6 8.67 0.00
 11 16 6 -4.46 0.00
 12 16 6 -12.47 0.00
 13 16 6 3.73 0.00
 14 16 6 5.14 0.00
 15 16 6 -11.99 0.00
 16 16 6 4.84 0.00
 17 16 6 7.51 0.00
 18 16 6 -4.97 0.00
 19 16 6 -2.74 0.00
 20 16 6 2.59 0.00
 21 16 6 4.23 0.00
 22 16 6 -3.18 0.00
 23 16 6 1.35 0.00
 24 16 6 2.53 0.00
 25 16 6 2.62 0.00
 26 16 6 4.79 0.00
 1 17 6 -4.07 0.00
 2 17 6 1.58 0.00
 3 17 6 -0.81 0.00
 4 17 6 1.26 0.00
 5 17 6 -10.81 0.00
 6 17 6 -2.86 0.00
 7 17 6 2.69 0.00
 8 17 6 6.75 0.00
 9 17 6 -2.01 0.00
 10 17 6 -1.50 0.00
 11 17 6 18.01 0.00
 12 17 6 1.85 0.00
 13 17 6 2.10 0.00
 14 17 6 -2.04 0.00
 15 17 6 -3.26 0.00
 16 17 6 0.68 0.00
 17 17 6 7.87 0.00
 18 17 6 0.55 0.00
 19 17 6 -2.48 0.00
 20 17 6 8.27 0.00
 21 17 6 -1.32 0.00
 22 17 6 -3.17 0.00
 23 17 6 2.52 0.00
 24 17 6 -1.23 0.00
 25 17 6 -3.08 0.00
 0 18 6 -0.42 0.00
 1 18 6 5.87 0.00
 2 18 6 1.70 0.00
 3 18 6 6.90 0.00
 4 18 6 16.52 0.00
 5 18 6 13.04 0.00
 6 18 6 -11.99 0.00
 7 18 6 -10.22 0.00
 8 18 6 1.04 0.00
 9 18 6 0.35 0.00
 10 18 6 6.52 0.00
 11 18 6 -2.69 0.00
 12 18 6 -9.76 0.00
 13 18 6 3.71 0.00
 14 18 6 8.90 0.00
 15 18 6 -3.41 0.00
 16 18 6 -4.03 0.00
 17 18 6 -1.18 0.00
 18 18 6 -5.70 0.00
 19 18 6 -1.30 0.00
 20 18 6 9.55 0.00
 21 18 6 -7.90 0.00
 22 18 6 -4.31 0.00
 23 18 6 -1.92 0.00
 24 18 6 -1.23 0.00
 25 18 6 1.34 0.00
 1 19 6 3.65 0.00
 2 19 6 -5.50 0.00
 3 19 6 -5.50 0.00
 4 19 6 -1.50 0.00
 5 19 6 -9.88 0.00
 6 19 6 6.90 0.00
 7 19 6 18.35 0.00
 8 19 6 -18.75 0.00
 9 19 6 -7.20 0.00
 10 19 6 6.04 0.00
 11 19 6 -13.04 0.00
 12 19 6 3.15 0.00
 13 19 6 1.75 0.00
 14 19 6 -8.67 0.00
 15 19 6 6.43 0.00
 16 19 6 7.98 0.00
 17 19 6 -9.75 0.00
 18 19 6 -4.87 0.00
 19 19 6 0.92 0.00
 20 19 6 -2.63 0.00
 21 19 6 3.38 0.00
 22 19 6 2.19 0.00
 23 19 6 -4.79 0.00
 24 19 6 -4.28 0.00
 0 20 6 -12.32 0.00
 1 20 6 6.45 0.00
 2 20 6 5.15 0.00
 3 20 6 -2.53 0.00
 4 20 6 -15.65 0.00
 5 20 6 -13.52 0.00
 6 20 6 11.23 0.00
 7 20 6 1.02 0.00
 8 20 6 -5.77 0.00
 9 20 6 10.25 0.00
 10 20 6 3.34 0.00
 11 20 6 -9.34 0.00
 12 20 6 4.66 0.00
 13 20 6 7.26 0.00
 14 20 6 -3.94 0.00
 15 20 6 1.30 0.00
 16 20 6 4.80 0.00
 17 20 6 10.23 0.00
 18 20 6 -2.97 0.00
 19 20 6 -5.48 0.00
 20 20 6 6.12 0.00
 21 20 6 11.19 0.00
 22 20 6 -5.89 0.00
 23 20 6 -1.14 0.00
 24 20 6 3.07 0.00
 1 21 6 9.54 0.00
 2 21 6 -3.87 0.00
 3 21 6 11.08 0.00
 4 21 6 7.70 0.00
 5 21 6 0.36 0.00
 6 21 6 0.27 0.00
 7 21 6 -1.67 0.00
 8 21 6 9.46 0.00
 9 21 6 -3.24 0.00
 10 21 6 -3.83 0.00
 11 21 6 9.52 0.00
 12 21 6 1.55 0.00
 13 21 6 -4.54 0.00
 14 21 6 -3.69 0.00
 15 21 6 -2.43 0.00
 16 21 6 4.63 0.00
 17 21 6 1.94 0.00
 18 21 6 -4.77 0.00
 19 21 6 5.09 0.00
 20 21 6 -1.29 0.00
 21 21 6 0.15 0.00
 22 21 6 2.72 0.00
 23 21 6 -3.98 0.00
 0 22 6 10.20 0.00
 1 22 6 -14.80 0.00
 2 22 6 0.11 0.00
 3 22 6 3.13 0.00
 4 22 6 0.80 0.00
 5 22 6 7.07 0.00
 6 22 6 4.65 0.00
 7 22 6 -3.18 0.00
 8 22 6 -6.77 0.00
 9 22 6 -3.47 0.00
 10 22 6 -0.04 0.00
 11 22 6 3.63 0.00
 12 22 6 -4.58 0.00
 13 22 6 -3.75 0.00
 14 22 6 0.35 0.00
 15 22 6 -7.70 0.00
 16 22 6 -8.02 0.00
 17 22 6 -1.70 0.00
 18 22 6 6.36 0.00
 19 22 6 -4.13 0.00
 20 22 6 -5.81 0.00
 21 22 6 -1.63 0.00
 22 22 6 -0.02 0.00
 23 22 6 3.01 0.00
 1 23 6 0.60 0.00
 2 23 6 4.68 0.00
 3 23 6 -12.72 0.00
 4 23 6 -2.89 0.00
 5 23 6 -3.92 0.00
 6 23 6 -12.66 0.00
 7 23 6 8.22 0.00
 8 23 6 6.88 0.00
 9 23 6 -7.94 0.00
 10 23 6 -7.78 0.00
 11 23 6 2.94 0.00
 12 23 6 7.60 0.00
 13 23 6 -2.88 0.00
 14 23 6 -0.51 0.00
 15 23 6 1.62 0.00
 16 23 6 -0.30 0.00
 17 23 6 4.96 0.00
 18 23 6 1.33 0.00
 19 23 6 -11.07 0.00
 20 23 6 5.54 0.00
 21 23 6 -1.02 0.00
 22 23 6 -2.15 0.00
 0 24 6 3.54 0.00
 1 24 6 14.42 0.00
 2 24 6 -10.42 0.00
 3 24 6 -2.80 0.00
 4 24 6 10.48 0.00
 5 24 6 0.74 0.00
 6 24 6 -5.41 0.00
 7 24 6 5.15 0.00
 8 24 6 -0.61 0.00
 9 24 6 -1.38 0.00
 10 24 6 11.78 0.00
 11 24 6 4.77 0.00
 12 24 6 -6.07 0.00
 13 24 6 -1.00 0.00
 14 24 6 11.76 0.00
 15 24 6 0.30 0.00
 16 24 6 -3.15 0.00
 17 24 6 5.69 0.00
 18 24 6 2.38 0.00
 19 24 6 2.76 0.00
 20 24 6 3.50 0.00
 21 24 6 -3.12 0.00
 22 24 6 -2.46 0.00
 1 25 6 9.14 0.00
 2 25 6 1.59 0.00
 3 25 6 -3.67 0.00
 4 25 6 -3.44 0.00
 5 25 6 8.37 0.00
 6 25 6 10.30 0.00
 7 25 6 -2.82 0.00
 8 25 6 0.00 0.00
 9 25 6 -3.65 0.00
 10 25 6 -1.56 0.00
 11 25 6 7.00 0.00
 12 25 6 -1.72 0.00
 13 25 6 5.47 0.00
 14 25 6 0.03 0.00
 15 25 6 -8.09 0.00
 16 25 6 0.40 0.00
 17 25 6 1.96 0.00
 18 25 6 -3.62 0.00
 19 25 6 7.03 0.00
 20 25 6 -0.89 0.00
 21 25 6 -3.79 0.00
 0 26 6 3.49 0.00
 1 26 6 -6.60 0.00
 2 26 6 1.74 0.00
 3 26 6 -2.35 0.00
 4 26 6 -7.37 0.00
 5 26 6 -0.47 0.00
 6 26 6 1.88 0.00
 7 26 6 -3.24 0.00
 8 26 6 -0.50 0.00
 9 26 6 -2.26 0.00
 10 26 6 -3.49 0.00
 11 26 6 -6.05 0.00
 12 26 6 -4.71 0.00
 13 26 6 5.23 0.00
 14 26 6 -4.21 0.00
 15 26 6 1.67 0.00
 16 26 6 4.93 0.00
 17 26 6 -3.58 0.00
 18 26 6 -6.57 0.00
 19 26 6 -0.53 0.00
 20 26 6 -2.35 0.00
 1 27 6 7.87 0.00
 2 27 6 9.16 0.00
 3 27 6 -6.29 0.00
 4 27 6 -3.84 0.00
 5 27 6 -0.31 0.00
 6 27 6 -7.50 0.00
 7 27 6 3.00 0.00
 8 27 6 1.10 0.00
 9 27 6 0.33 0.00
 10 27 6 0.65 0.00
 11 27 6 -1.66 0.00
 12 27 6 2.99 0.00
 13 27 6 -5.55 0.00
 14 27 6 -7.71 0.00
 15 27 6 1.86 0.00
 16 27 6 5.97 0.00
 17 27 6 0.39 0.00
 18 27 6 1.50 0.00
 19 27 6 -2.27 0.00
 0 28 6 -9.31 0.00
 1 28 6 1.28 0.00
 2 28 6 2.31 0.00
 3 28 6 1.31 0.00
 4 28 6 3.95 0.00
 5 28 6 -2.91 0.00
 6 28 6 3.51 0.00
 7 28 6 -0.98 0.00
 8 28 6 -2.00 0.00
 9 28 6 8.09 0.00
 10 28 6 -0.83 0.00
 11 28 6 -0.86 0.00
 12 28 6 7.62 0.00
 13 28 6 -0.13 0.00
 14 28 6 1.57 0.00
 15 28 6 0.08 0.00
 16 28 6 -4.92 0.00
 17 28 6 -3.14 0.00
 18 28 6 5.77 0.00
 1 29 6 -4.48 0.00
 2 29 6 -8.94 0.00
 3 29 6 4.26 0.00
 4 29 6 1.11 0.00
 5 29 6 2.99 0.00
 6 29 6 6.02 0.00
 7 29 6 -4.48 0.00
 8 29 6 3.48 0.00
 9 29 6 -3.98 0.00
 10 29 6 -5.66 0.00
 11 29 6 1.98 0.00
 12 29 6 4.30 0.00
 13 29 6 -0.31 0.00
 14 29 6 -0.40 0.00
 15 29 6 2.15 0.00
 16 29 6 -1.06 0.00
 17 29 6 1.57 0.00
 0 30 6 16.50 0.00
 1 30 6 -2.80 0.00
 2 30 6 -2.98 0.00
 3 30 6 9.89 0.00
 4 30 6 -5.29 0.00
 5 30 6 0.47 0.00
 6 30 6 -2.37 0.00
 7 30 6 3.75 0.00
 8 30 6 7.16 0.00
 9 30 6 -4.43 0.00
 10 30 6 -2.06 0.00
 11 30 6 -2.83 0.00
 12 30 6 -7.42 0.00
 13 30 6 0.65 0.00
 14 30 6 5.66 0.00
 15 30 6 -5.44 0.00
 16 30 6 -4.33 0.00
 1 31 6 -1.17 0.00
 2 31 6 11.28 0.00
 3 31 6 -2.90 0.00
 4 31 6 -9.39 0.00
 5 31 6 -3.64 0.00
 6 31 6 2.02 0.00
 7 31 6 1.55 0.00
 8 31 6 -6.22 0.00
 9 31 6 6.74 0.00
 10 31 6 3.27 0.00
 11 31 6 -0.29 0.00
 12 31 6 -1.07 0.00
 13 31 6 2.01 0.00
 14 31 6 0.57 0.00
 15 31 6 -3.56 0.00
 0 32 6 -9.63 0.00
 1 32 6 -3.02 0.00
 2 32 6 0.21 0.00
 3 32 6 -0.70 0.00
 4 32 6 -0.08 0.00
 5 32 6 -8.65 0.00
 6 32 6 1.23 0.00
 7 32 6 0.66 0.00
 8 32 6 -7.24 0.00
 9 32 6 1.10 0.00
 10 32 6 5.68 0.00
 11 32 6 1.90 0.00
 12 32 6 -3.30 0.00
 13 32 6 8.50 0.00
 14 32 6 3.88 0.00
 1 33 6 3.66 0.00
 2 33 6 2.59 0.00
 3 33 6 1.81 0.00
 4 33 6 1.10 0.00
 5 33 6 1.55 0.00
 6 33 6 5.16 0.00
 7 33 6 3.54 0.00
 8 33 6 -1.02 0.00
 9 33 6 -6.90 0.00
 10 33 6 3.33 0.00
 11 33 6 0.14 0.00
 12 33 6 -2.22 0.00
 0 34 6 3.33 0.00
 1 34 6 3.27 0.00
 2 34 6 -0.64 0.00
 3 34 6 -2.00 0.00
 4 34 6 5.24 0.00
 5 34 6 7.66 0.00
 6 34 6 2.33 0.00
 7 34 6 -1.25 0.00
 8 34 6 -2.37 0.00
 9 34 6 -4.20 0.00
 10 34 6 6.10 0.00
 11 34 6 0.84 0.00
 1 35 6 -0.68 0.00
 2 35 6 -11.32 0.00
 3 35 6 0.21 0.00
 4 35 6 1.14 0.00
 5 35 6 -6.92 0.00
 6 35 6 -2.13 0.00
 7 35 6 6.95 0.00
 8 35 6 -5.51 0.00
 0 36 6 2.65 0.00
 1 36 6 -0.27 0.00
 2 36 6 -3.78 0.00
 3 36 6 0.26 0.00
 4 36 6 -0.45 0.00
 5 36 6 -3.16 0.00
 1 0 7 8.46 0.00
 3 0 7 25.21 0.00
 5 0 7 -37.39 0.00
 7 0 7 -28.46 0.00
 9 0 7 19.02 0.00
 11 0 7 23.49 0.00
 13 0 7 -28.26 0.00
 15 0 7 4.40 0.00
 17 0 7 -22.33 0.00
 19 0 7 8.27 0.00
 21 0 7 -17.40 0.00
 23 0 7 -8.49 0.00
 25 0 7 7.06 0.00
 27 0 7 -4.93 0.00
 0 1 7 27.39 0.00
 1 1 7 -6.75 0.00
 2 1 7 -37.42 0.00
 3 1 7 19.04 0.00
 4 1 7 29.38 0.00
 5 1 7 -13.51 0.00
 6 1 7 9.20 0.00
 7 1 7 0.89 0.00
 8 1 7 13.14 0.00
 9 1 7 -60.85 0.00
 10 1 7 -0.78 0.00
 11 1 7 4.94 0.00
 12 1 7 -0.49 0.00
 13 1 7 -0.14 0.00
 14 1 7 -3.25 0.00
 15 1 7 -8.49 0.00
 16 1 7 3.00 0.00
 17 1 7 -15.70 0.00
 18 1 7 -11.75 0.00
 19 1 7 2.18 0.00
 20 1 7 1.29 0.00
 21 1 7 11.77 0.00
 22 1 7 0.23 0.00
 23 1 7 -8.06 0.00
 24 1 7 -6.72 0.00
 25 1 7 2.55 0.00
 26 1 7 3.15 0.00
 27 1 7 6.17 0.00
 28 1 7 1.80 0.00
 1 2 7 -62.21 0.00
 2 2 7 -34.90 0.00
 3 2 7 13.42 0.00
 4 2 7 -38.01 0.00
 5 2 7 -6.75 0.00
 6 2 7 3.69 0.00
 7 2 7 52.98 0.00
 8 2 7 -13.17 0.00
 9 2 7 -38.41 0.00
 10 2 7 4.03 0.00
 11 2 7 -6.72 0.00
 12 2 7 5.86 0.00
 13 2 7 13.82 0.00
 14 2 7 -7.14 0.00
 15 2 7 9.11 0.00
 16 2 7 -0.04 0.00
 17 2 7 7.97 0.00
 18 2 7 0.68 0.00
 19 2 7 2.26 0.00
 20 2 7 -7.74 0.00
 21 2 7 6.99 0.00
 22 2 7 -0.84 0.00
 23 2 7 3.46 0.00
 24 2 7 -4.52 0.00
 25 2 7 9.88 0.00
 26 2 7 0.05 0.00
 27 2 7 -11.45 0.00
 28 2 7 -3.17 0.00
 0 3 7 50.34 0.00
 1 3 7 23.45 0.00
 2 3 7 -21.21 0.00
 3 3 7 -25.04 0.00
 4 3 7 -13.20 0.00
 5 3 7 -11.73 0.00
 6 3 7 -36.10 0.00
 7 3 7 28.86 0.00
 8 3 7 -24.04 0.00
 9 3 7 17.13 0.00
 10 3 7 -5.65 0.00
 11 3 7 4.53 0.00
 12 3 7 8.71 0.00
 13 3 7 6.87 0.00
 14 3 7 -2.52 0.00
 15 3 7 -2.11 0.00
 16 3 7 6.66 0.00
 17 3 7 21.79 0.00
 18 3 7 10.93 0.00
 19 3 7 3.89 0.00
 20 3 7 6.48 0.00
 21 3 7 -14.14 0.00
 22 3 7 7.82 0.00
 23 3 7 6.37 0.00
 24 3 7 1.10 0.00
 25 3 7 -0.58 0.00
 26 3 7 1.89 0.00
 27 3 7 1.87 0.00
 28 3 7 -4.32 0.00
 1 4 7 66.97 0.00
 2 4 7 55.85 0.00
 3 4 7 32.58 0.00
 4 4 7 15.20 0.00
 5 4 7 -49.50 0.00
 6 4 7 24.65 0.00
 7 4 7 32.46 0.00
 8 4 7 6.82 0.00
 9 4 7 -13.93 0.00
 10 4 7 2.35 0.00
 11 4 7 21.23 0.00
 12 4 7 -2.05 0.00
 13 4 7 -11.24 0.00
 14 4 7 18.10 0.00
 15 4 7 -17.17 0.00
 16 4 7 -16.54 0.00
 17 4 7 7.74 0.00
 18 4 7 12.76 0.00
 19 4 7 -10.72 0.00
 20 4 7 2.42 0.00
 21 4 7 6.34 0.00
 22 4 7 1.68 0.00
 23 4 7 -7.43 0.00
 24 4 7 4.44 0.00
 25 4 7 -1.91 0.00
 26 4 7 3.96 0.00
 27 4 7 -0.32 0.00
 28 4 7 -0.69 0.00
 0 5 7 -4.66 0.00
 1 5 7 -8.27 0.00
 2 5 7 20.57 0.00
 3 5 7 -19.20 0.00
 4 5 7 21.70 0.00
 5 5 7 64.98 0.00
 6 5 7 20.94 0.00
 7 5 7 -52.54 0.00
 8 5 7 34.32 0.00
 9 5 7 19.03 0.00
 10 5 7 -14.14 0.00
 11 5 7 -17.25 0.00
 12 5 7 7.01 0.00
 13 5 7 8.44 0.00
 14 5 7 5.09 0.00
 15 5 7 -18.86 0.00
 16 5 7 -17.68 0.00
 17 5 7 -3.34 0.00
 18 5 7 3.73 0.00
 19 5 7 -12.86 0.00
 20 5 7 -24.16 0.00
 21 5 7 5.87 0.00
 22 5 7 3.40 0.00
 23 5 7 1.25 0.00
 24 5 7 -13.00 0.00
 25 5 7 -5.23 0.00
 26 5 7 4.11 0.00
 27 5 7 -0.32 0.00
 28 5 7 6.47 0.00
 1 6 7 -32.73 0.00
 2 6 7 -30.99 0.00
 3 6 7 -32.18 0.00
 4 6 7 0.97 0.00
 5 6 7 12.40 0.00
 6 6 7 -14.18 0.00
 7 6 7 -18.97 0.00
 8 6 7 -16.58 0.00
 9 6 7 1.09 0.00
 10 6 7 -8.68 0.00
 11 6 7 -5.46 0.00
 12 6 7 -22.54 0.00
 13 6 7 3.38 0.00
 14 6 7 9.90 0.00
 15 6 7 11.36 0.00
 16 6 7 -11.00 0.00
 17 6 7 -6.71 0.00
 18 6 7 4.08 0.00
 19 6 7 6.50 0.00
 20 6 7 0.17 0.00
 21 6 7 -7.14 0.00
 22 6 7 -5.74 0.00
 23 6 7 4.45 0.00
 24 6 7 -0.28 0.00
 25 6 7 -4.57 0.00
 26 6 7 5.75 0.00
 27 6 7 8.48 0.00
 28 6 7 -8.36 0.00
 0 7 7 -59.58 0.00
 1 7 7 9.13 0.00
 2 7 7 -13.17 0.00
 3 7 7 -22.71 0.00
 4 7 7 -14.35 0.00
 5 7 7 -1.39 0.00
 6 7 7 -25.42 0.00
 7 7 7 -9.07 0.00
 8 7 7 14.02 0.00
 9 7 7 -4.76 0.00
 10 7 7 -4.41 0.00
 11 7 7 12.39 0.00
 12 7 7 -4.76 0.00
 13 7 7 -6.27 0.00
 14 7 7 -2.49 0.00
 15 7 7 15.11 0.00
 16 7 7 6.91 0.00
 17 7 7 6.37 0.00
 18 7 7 4.63 0.00
 19 7 7 0.37 0.00
 20 7 7 12.17 0.00
 21 7 7 12.06 0.00
 22 7 7 6.58 0.00
 23 7 7 -7.90 0.00
 24 7 7 0.91 0.00
 25 7 7 2.60 0.00
 26 7 7 4.96 0.00
 27 7 7 6.67 0.00
 28 7 7 -6.84 0.00
 1 8 7 -20.88 0.00
 2 8 7 11.71 0.00
 3 8 7 7.14 0.00
 4 8 7 -21.02 0.00
 5 8 7 48.64 0.00
 6 8 7 0.73 0.00
 7 8 7 -26.38 0.00
 8 8 7 16.10 0.00
 9 8 7 23.13 0.00
 10 8 7 27.35 0.00
 11 8 7 -2.06 0.00
 12 8 7 11.81 0.00
 13 8 7 -5.38 0.00
 14 8 7 3.65 0.00
 15 8 7 4.25 0.00
 16 8 7 1.54 0.00
 17 8 7 -3.50 0.00
 18 8 7 0.40 0.00
 19 8 7 3.12 0.00
 20 8 7 -4.70 0.00
 21 8 7 -0.38 0.00
 22 8 7 6.65 0.00
 23 8 7 3.78 0.00
 24 8 7 -9.43 0.00
 25 8 7 2.25 0.00
 26 8 7 -4.10 0.00
 27 8 7 -11.01 0.00
 28 8 7 0.64 0.00
 0 9 7 45.96 0.00
 1 9 7 20.94 0.00
 2 9 7 24.85 0.00
 3 9 7 5.91 0.00
 4 9 7 13.55 0.00
 5 9 7 -8.62 0.00
 6 9 7 -0.94 0.00
 7 9 7 30.36 0.00
 8 9 7 -15.99 0.00
 9 9 7 -12.55 0.00
 10 9 7 -4.78 0.00
 11 9 7 3.42 0.00
 12 9 7 8.20 0.00
 13 9 7 -6.97 0.00
 14 9 7 -5.10 0.00
 15 9 7 -6.88 0.00
 16 9 7 4.12 0.00
 17 9 7 -1.32 0.00
 18 9 7 -11.27 0.00
 19 9 7 -4.16 0.00
 20 9 7 -4.60 0.00
 21 9 7 -5.92 0.00
 22 9 7 -3.89 0.00
 23 9 7 4.32 0.00
 24 9 7 0.16 0.00
 25 9 7 1.48 0.00
 26 9 7 -4.14 0.00
 27 9 7 -11.96 0.00
 1 10 7 7.00 0.00
 2 10 7 -12.98 0.00
 3 10 7 15.62 0.00
 4 10 7 30.03 0.00
 5 10 7 -35.13 0.00
 6 10 7 2.64 0.00
 7 10 7 -1.46 0.00
 8 10 7 -15.66 0.00
 9 10 7 -6.41 0.00
 10 10 7 -14.85 0.00
 11 10 7 -5.44 0.00
 12 10 7 -10.96 0.00
 13 10 7 3.96 0.00
 14 10 7 -12.07 0.00
 15 10 7 -7.47 0.00
 16 10 7 9.83 0.00
 17 10 7 3.78 0.00
 18 10 7 -6.01 0.00
 19 10 7 -6.84 0.00
 20 10 7 2.30 0.00
 21 10 7 5.52 0.00
 22 10 7 -0.82 0.00
 23 10 7 -5.41 0.00
 24 10 7 6.05 0.00
 25 10 7 -0.67 0.00
 26 10 7 9.43 0.00
 27 10 7 8.11 0.00
 0 11 7 -15.91 0.00
 1 11 7 -23.45 0.00
 2 11 7 -17.53 0.00
 3 11 7 -18.20 0.00
 4 11 7 -4.72 0.00
 5 11 7 18.00 0.00
 6 11 7 4.97 0.00
 7 11 7 -15.31 0.00
 8 11 7 8.86 0.00
 9 11 7 2.50 0.00
 10 11 7 7.41 0.00
 11 11 7 -7.90 0.00
 12 11 7 5.94 0.00
 13 11 7 20.69 0.00
 14 11 7 -4.49 0.00
 15 11 7 -3.84 0.00
 16 11 7 2.44 0.00
 17 11 7 2.62 0.00
 18 11 7 7.46 0.00
 19 11 7 -0.22 0.00
 20 11 7 3.51 0.00
 21 11 7 3.07 0.00
 22 11 7 1.23 0.00
 23 11 7 -3.49 0.00
 24 11 7 1.27 0.00
 25 11 7 -1.92 0.00
 26 11 7 -2.18 0.00
 27 11 7 7.54 0.00
 1 12 7 -6.69 0.00
 2 12 7 10.93 0.00
 3 12 7 -9.39 0.00
 4 12 7 -6.24 0.00
 5 12 7 9.64 0.00
 6 12 7 -6.20 0.00
 7 12 7 23.75 0.00
 8 12 7 6.60 0.00
 9 12 7 4.03 0.00
 10 12 7 3.79 0.00
 11 12 7 -0.52 0.00
 12 12 7 6.97 0.00
 13 12 7 4.68 0.00
 14 12 7 0.42 0.00
 15 12 7 5.63 0.00
 16 12 7 5.60 0.00
 17 12 7 -1.02 0.00
 18 12 7 -8.97 0.00
 19 12 7 0.81 0.00
 20 12 7 7.26 0.00
 21 12 7 0.35 0.00
 22 12 7 -0.79 0.00
 23 12 7 0.96 0.00
 24 12 7 -2.11 0.00
 25 12 7 -4.87 0.00
 26 12 7 -9.19 0.00
 27 12 7 6.07 0.00
 0 13 7 -23.44 0.00
 1 13 7 20.71 0.00
 2 13 7 10.53 0.00
 3 13 7 8.99 0.00
 4 13 7 -8.82 0.00
 5 13 7 3.81 0.00
 6 13 7 -0.21 0.00
 7 13 7 -25.67 0.00
 8 13 7 7.70 0.00
 9 13 7 32.30 0.00
 10 13 7 -18.96 0.00
 11 13 7 -12.77 0.00
 12 13 7 -2.34 0.00
 13 13 7 -15.37 0.00
 14 13 7 3.53 0.00
 15 13 7 3.39 0.00
 16 13 7 -8.91 0.00
 17 13 7 0.94 0.00
 18 13 7 1.65 0.00
 19 13 7 -1.29 0.00
 20 13 7 -7.66 0.00
 21 13 7 -1.27 0.00
 22 13 7 -1.54 0.00
 23 13 7 3.68 0.00
 24 13 7 1.63 0.00
 25 13 7 1.80 0.00
 26 13 7 -0.53 0.00
 1 14 7 0.48 0.00
 2 14 7 -4.05 0.00
 3 14 7 -1.81 0.00
 4 14 7 -20.88 0.00
 5 14 7 7.50 0.00
 6 14 7 7.46 0.00
 7 14 7 -35.95 0.00
 8 14 7 5.93 0.00
 9 14 7 -1.97 0.00
 10 14 7 -3.51 0.00
 11 14 7 8.69 0.00
 12 14 7 4.74 0.00
 13 14 7 -18.13 0.00
 14 14 7 0.54 0.00
 15 14 7 8.24 0.00
 16 14 7 1.21 0.00
 17 14 7 -10.30 0.00
 18 14 7 -2.68 0.00
 19 14 7 11.29 0.00
 20 14 7 -0.29 0.00
 21 14 7 -6.14 0.00
 22 14 7 -0.41 0.00
 23 14 7 6.43 0.00
 24 14 7 -1.32 0.00
 25 14 7 -6.39 0.00
 26 14 7 1.33 0.00
 0 15 7 19.79 0.00
 1 15 7 -20.38 0.00
 2 15 7 16.27 0.00
 3 15 7 9.26 0.00
 4 15 7 1.74 0.00
 5 15 7 -13.72 0.00
 6 15 7 -2.42 0.00
 7 15 7 18.89 0.00
 8 15 7 -0.07 0.00
 9 15 7 -20.85 0.00
 10 15 7 5.14 0.00
 11 15 7 13.40 0.00
 12 15 7 3.37 0.00
 13 15 7 5.69 0.00
 14 15 7 1.09 0.00
 15 15 7 7.76 0.00
 16 15 7 5.79 0.00
 17 15 7 -10.09 0.00
 18 15 7 -3.51 0.00
 19 15 7 8.84 0.00
 20 15 7 8.34 0.00
 21 15 7 -1.62 0.00
 22 15 7 -2.16 0.00
 23 15 7 2.44 0.00
 24 15 7 2.01 0.00
 25 15 7 -7.44 0.00
 26 15 7 2.70 0.00
 1 16 7 -11.97 0.00
 2 16 7 1.33 0.00
 3 16 7 7.09 0.00
 4 16 7 23.96 0.00
 5 16 7 4.30 0.00
 6 16 7 -8.36 0.00
 7 16 7 17.21 0.00
 8 16 7 -4.50 0.00
 9 16 7 6.54 0.00
 10 16 7 -3.67 0.00
 11 16 7 -7.94 0.00
 12 16 7 -0.56 0.00
 13 16 7 8.60 0.00
 14 16 7 -12.26 0.00
 15 16 7 4.79 0.00
 16 16 7 8.04 0.00
 17 16 7 -6.01 0.00
 18 16 7 -0.83 0.00
 19 16 7 -2.38 0.00
 20 16 7 3.47 0.00
 21 16 7 -2.41 0.00
 22 16 7 -0.77 0.00
 23 16 7 0.45 0.00
 24 16 7 -0.94 0.00
 25 16 7 0.91 0.00
 0 17 7 -17.16 0.00
 1 17 7 9.43 0.00
 2 17 7 -12.61 0.00
 3 17 7 2.81 0.00
 4 17 7 -8.41 0.00
 5 17 7 -4.17 0.00
 6 17 7 6.48 0.00
 7 17 7 5.48 0.00
 8 17 7 -12.34 0.00
 9 17 7 2.83 0.00
 10 17 7 10.46 0.00
 11 17 7 -5.97 0.00
 12 17 7 -8.40 0.00
 13 17 7 -7.76 0.00
 14 17 7 -1.31 0.00
 15 17 7 -2.60 0.00
 16 17 7 4.45 0.00
 17 17 7 0.30 0.00
 18 17 7 -5.61 0.00
 19 17 7 -0.40 0.00
 20 17 7 1.55 0.00
 21 17 7 -8.47 0.00
 22 17 7 1.72 0.00
 23 17 7 2.26 0.00
 24 17 7 -5.60 0.00
 25 17 7 5.32 0.00
 1 18 7 3.22 0.00
 2 18 7 -2.42 0.00
 3 18 7 8.66 0.00
 4 18 7 -2.56 0.00
 5 18 7 -23.96 0.00
 6 18 7 -2.78 0.00
 7 18 7 1.74 0.00
 8 18 7 7.54 0.00
 9 18 7 -4.83 0.00
 10 18 7 2.61 0.00
 11 18 7 -1.60 0.00
 12 18 7 0.86 0.00
 13 18 7 5.00 0.00
 14 18 7 5.11 0.00
 15 18 7 -9.51 0.00
 16 18 7 -2.75 0.00
 17 18 7 2.22 0.00
 18 18 7 -2.68 0.00
 19 18 7 9.61 0.00
 20 18 7 -5.32 0.00
 21 18 7 -3.03 0.00
 22 18 7 3.42 0.00
 23 18 7 3.03 0.00
 24 18 7 3.80 0.00
 0 19 7 15.70 0.00
 1 19 7 -9.76 0.00
 2 19 7 -1.00 0.00
 3 19 7 3.51 0.00
 4 19 7 1.11 0.00
 5 19 7 4.82 0.00
 6 19 7 15.10 0.00
 7 19 7 -18.15 0.00
 8 19 7 -1.12 0.00
 9 19 7 12.11 0.00
 10 19 7 -5.24 0.00
 11 19 7 -1.52 0.00
 12 19 7 5.89 0.00
 13 19 7 1.62 0.00
 14 19 7 -0.38 0.00
 15 19 7 10.34 0.00
 16 19 7 -8.62 0.00
 17 19 7 -3.80 0.00
 18 19 7 2.19 0.00
 19 19 7 2.82 0.00
 20 19 7 2.94 0.00
 21 19 7 5.77 0.00
 22 19 7 -5.43 0.00
 23 19 7 -4.04 0.00
 24 19 7 6.94 0.00
 1 20 7 0.90 0.00
 2 20 7 0.49 0.00
 3 20 7 -6.20 0.00
 4 20 7 -12.45 0.00
 5 20 7 13.49 0.00
 6 20 7 5.30 0.00
 7 20 7 0.51 0.00
 8 20 7 -2.35 0.00
 9 20 7 4.59 0.00
 10 20 7 -7.04 0.00
 11 20 7 2.35 0.00
 12 20 7 4.43 0.00
 13 20 7 -5.26 0.00
 14 20 7 0.42 0.00
 15 20 7 7.95 0.00
 16 20 7 1.83 0.00
 17 20 7 -0.63 0.00
 18 20 7 -2.26 0.00
 19 20 7 -0.30 0.00
 20 20 7 11.27 0.00
 21 20 7 -7.51 0.00
 22 20 7 -8.99 0.00
 23 20 7 1.81 0.00
 0 21 7 4.95 0.00
 1 21 7 1.97 0.00
 2 21 7 1.01 0.00
 3 21 7 5.86 0.00
 4 21 7 2.63 0.00
 5 21 7 -4.49 0.00
 6 21 7 -12.56 0.00
 7 21 7 8.39 0.00
 8 21 7 -2.21 0.00
 9 21 7 -5.25 0.00
 10 21 7 3.89 0.00
 11 21 7 0.93 0.00
 12 21 7 -1.61 0.00
 13 21 7 -1.41 0.00
 14 21 7 3.33 0.00
 15 21 7 -2.09 0.00
 16 21 7 5.79 0.00
 17 21 7 -8.01 0.00
 18 21 7 0.53 0.00
 19 21 7 5.25 0.00
 20 21 7 1.42 0.00
 21 21 7 -1.60 0.00
 22 21 7 -7.21 0.00
 23 21 7 -2.01 0.00
 1 22 7 -4.96 0.00
 2 22 7 7.44 0.00
 3 22 7 3.04 0.00
 4 22 7 5.08 0.00
 5 22 7 -2.25 0.00
 6 22 7 2.68 0.00
 7 22 7 -6.78 0.00
 8 22 7 -1.06 0.00
 9 22 7 -4.54 0.00
 10 22 7 5.04 0.00
 11 22 7 -1.76 0.00
 12 22 7 -4.94 0.00
 13 22 7 -1.22 0.00
 14 22 7 -1.66 0.00
 15 22 7 -4.97 0.00
 16 22 7 2.76 0.00
 17 22 7 1.67 0.00
 18 22 7 -5.45 0.00
 19 22 7 -5.86 0.00
 20 22 7 -0.87 0.00
 21 22 7 8.80 0.00
 22 22 7 3.90 0.00
 0 23 7 -4.11 0.00
 1 23 7 -0.57 0.00
 2 23 7 -8.35 0.00
 3 23 7 -5.53 0.00
 4 23 7 -0.15 0.00
 5 23 7 -6.77 0.00
 6 23 7 4.12 0.00
 7 23 7 10.74 0.00
 8 23 7 1.97 0.00
 9 23 7 -8.76 0.00
 10 23 7 1.07 0.00
 11 23 7 5.34 0.00
 12 23 7 -7.01 0.00
 13 23 7 -2.71 0.00
 14 23 7 0.18 0.00
 15 23 7 4.80 0.00
 16 23 7 1.50 0.00
 17 23 7 0.06 0.00
 18 23 7 -10.93 0.00
 19 23 7 4.35 0.00
 20 23 7 5.82 0.00
 21 23 7 -5.46 0.00
 22 23 7 9.50 0.00
 1 24 7 -4.60 0.00
 2 24 7 -3.82 0.00
 3 24 7 8.91 0.00
 4 24 7 -1.91 0.00
 5 24 7 -9.36 0.00
 6 24 7 -1.11 0.00
 7 24 7 9.54 0.00
 8 24 7 -4.99 0.00
 9 24 7 9.43 0.00
 10 24 7 8.35 0.00
 11 24 7 -3.14 0.00
 12 24 7 -7.36 0.00
 13 24 7 8.12 0.00
 14 24 7 -1.92 0.00
 15 24 7 -2.01 0.00
 16 24 7 6.47 0.00
 17 24 7 4.54 0.00
 18 24 7 0.37 0.00
 19 24 7 -0.87 0.00
 20 24 7 -4.03 0.00
 21 24 7 -3.92 0.00
 0 25 7 7.83 0.00
 1 25 7 4.25 0.00
 2 25 7 -0.77 0.00
 3 25 7 3.12 0.00
 4 25 7 9.93 0.00
 5 25 7 8.41 0.00
 6 25 7 -4.77 0.00
 7 25 7 -6.49 0.00
 8 25 7 -3.93 0.00
 9 25 7 1.88 0.00
 10 25 7 7.29 0.00
 11 25 7 -0.01 0.00
 12 25 7 3.38 0.00
 13 25 7 -1.72 0.00
 14 25 7 -7.86 0.00
 15 25 7 -0.55 0.00
 16 25 7 4.13 0.00
 17 25 7 -6.52 0.00
 18 25 7 5.55 0.00
 19 25 7 2.15 0.00
 20 25 7 -7.26 0.00
 1 26 7 -4.13 0.00
 2 26 7 3.81 0.00
 3 26 7 -2.93 0.00
 4 26 7 -2.85 0.00
 5 26 7 2.32 0.00
 6 26 7 0.06 0.00
 7 26 7 -1.98 0.00
 8 26 7 -1.72 0.00
 9 26 7 -10.19 0.00
 10 26 7 -0.01 0.00
 11 26 7 0.08 0.00
 12 26 7 6.40 0.00
 13 26 7 -2.94 0.00
 14 26 7 -0.29 0.00
 15 26 7 2.66 0.00
 16 26 7 -2.40 0.00
 17 26 7 -4.37 0.00
 18 26 7 2.58 0.00
 19 26 7 1.40 0.00
 20 26 7 -2.84 0.00
 0 27 7 13.34 0.00
 1 27 7 0.44 0.00
 2 27 7 -12.75 0.00
 3 27 7 -12.23 0.00
 4 27 7 3.47 0.00
 5 27 7 -4.84 0.00
 6 27 7 2.33 0.00
 7 27 7 1.34 0.00
 8 27 7 -3.18 0.00
 9 27 7 1.96 0.00
 10 27 7 -1.95 0.00
 11 27 7 1.49 0.00
 12 27 7 -0.36 0.00
 13 27 7 -3.85 0.00
 14 27 7 4.47 0.00
 15 27 7 11.56 0.00
 16 27 7 -3.19 0.00
 17 27 7 -0.40 0.00
 18 27 7 1.25 0.00
 19 27 7 1.11 0.00
 1 28 7 3.46 0.00
 2 28 7 1.11 0.00
 3 28 7 7.25 0.00
 4 28 7 -2.62 0.00
 5 28 7 -1.28 0.00
 6 28 7 3.68 0.00
 7 28 7 1.56 0.00
 8 28 7 6.14 0.00
 9 28 7 -1.07 0.00
 10 28 7 -5.27 0.00
 11 28 7 11.75 0.00
 12 28 7 -2.46 0.00
 13 28 7 -5.82 0.00
 14 28 7 3.58 0.00
 15 28 7 -2.32 0.00
 16 28 7 -6.35 0.00
 17 28 7 3.89 0.00
 18 28 7 3.16 0.00
 0 29 7 -5.47 0.00
 1 29 7 -5.04 0.00
 2 29 7 1.73 0.00
 3 29 7 12.59 0.00
 4 29 7 -0.98 0.00
 5 29 7 6.97 0.00
 6 29 7 -5.72 0.00
 7 29 7 -0.31 0.00
 8 29 7 2.86 0.00
 9 29 7 -6.06 0.00
 10 29 7 2.06 0.00
 11 29 7 3.12 0.00
 12 29 7 -3.61 0.00
 13 29 7 -4.54 0.00
 14 29 7 3.11 0.00
 15 29 7 -3.73 0.00
 16 29 7 -0.42 0.00
 17 29 7 -3.95 0.00
 1 30 7 -14.95 0.00
 2 30 7 6.05 0.00
 3 30 7 -2.95 0.00
 4 30 7 -2.90 0.00
 5 30 7 -5.07 0.00
 6 30 7 -0.07 0.00
 7 30 7 11.11 0.00
 8 30 7 -3.61 0.00
 9 30 7 -11.16 0.00
 10 30 7 -0.29 0.00
 11 30 7 -3.48 0.00
 12 30 7 1.24 0.00
 13 30 7 5.65 0.00
 14 30 7 -2.68 0.00
 15 30 7 -4.14 0.00
 16 30 7 4.51 0.00
 0 31 7 2.04 0.00
 1 31 7 7.28 0.00
 2 31 7 2.56 0.00
 3 31 7 -10.80 0.00
 4 31 7 1.67 0.00
 5 31 7 -0.65 0.00
 6 31 7 2.29 0.00
 7 31 7 -2.58 0.00
 8 31 7 3.43 0.00
 9 31 7 4.97 0.00
 10 31 7 -3.96 0.00
 11 31 7 1.50 0.00
 12 31 7 1.66 0.00
 13 31 7 1.35 0.00
 14 31 7 -4.91 0.00
 1 32 7 4.39 0.00
 2 32 7 -3.69 0.00
 3 32 7 6.74 0.00
 4 32 7 -3.43 0.00
 5 32 7 -3.22 0.00
 6 32 7 3.69 0.00
 7 32 7 1.26 0.00
 8 32 7 -0.87 0.00
 9 32 7 2.32 0.00
 10 32 7 -0.58 0.00
 11 32 7 1.53 0.00
 12 32 7 6.52 0.00
 13 32 7 5.07 0.00
 0 33 7 6.96 0.00
 1 33 7 -1.61 0.00
 2 33 7 -7.29 0.00
 3 33 7 -1.74 0.00
 4 33 7 -0.88 0.00
 5 33 7 2.69 0.00
 6 33 7 -0.04 0.00
 7 33 7 -0.88 0.00
 8 33 7 -1.91 0.00
 9 33 7 -3.65 0.00
 10 33 7 1.86 0.00
 11 33 7 0.75 0.00
 1 34 7 -5.46 0.00
 2 34 7 -3.25 0.00
 3 34 7 5.85 0.00
 4 34 7 12.90 0.00
 5 34 7 -4.62 0.00
 6 34 7 -9.07 0.00
 7 34 7 1.31 0.00
 8 34 7 3.20 0.00
 9 34 7 1.40 0.00
 10 34 7 2.03 0.00
 0 35 7 4.33 0.00
 1 35 7 -2.08 0.00
 2 35 7 -4.81 0.00
 3 35 7 4.97 0.00
 4 35 7 3.46 0.00
 5 35 7 0.45 0.00
 6 35 7 3.43 0.00
 7 35 7 -2.01 0.00
 1 36 7 -2.72 0.00
 2 36 7 -4.01 0.00
 0 0 8 22.84 0.00
 2 0 8 10.39 0.00
 4 0 8 -9.47 0.00
 6 0 8 14.13 0.00
 8 0 8 41.04 0.00
 10 0 8 10.84 0.00
 12 0 8 -28.23 0.00
 14 0 8 15.34 0.00
 16 0 8 -20.72 0.00
 18 0 8 10.77 0.00
 20 0 8 -4.85 0.00
 22 0 8 -5.34 0.00
 24 0 8 10.39 0.00
 26 0 8 -11.30 0.00
 28 0 8 1.68 0.00
 1 1 8 -6.90 0.00
 2 1 8 0.22 0.00
 3 1 8 20.67 0.00
 4 1 8 -42.85 0.00
 5 1 8 10.34 0.00
 6 1 8 -18.28 0.00
 7 1 8 1.90 0.00
 8 1 8 -43.89 0.00
 9 1 8 3.05 0.00
 10 1 8 17.54 0.00
 11 1 8 -10.02 0.00
 12 1 8 -7.21 0.00
 13 1 8 5.64 0.00
 14 1 8 -3.41 0.00
 15 1 8 6.38 0.00
 16 1 8 -18.94 0.00
 17 1 8 -6.93 0.00
 18 1 8 5.46 0.00
 19 1 8 3.96 0.00
 20 1 8 1.74 0.00
 21 1 8 7.85 0.00
 22 1 8 -17.82 0.00
 23 1 8 -7.27 0.00
 24 1 8 4.87 0.00
 25 1 8 10.27 0.00
 26 1 8 0.10 0.00
 27 1 8 -4.18 0.00
 28 1 8 -5.97 0.00
 0 2 8 -68.06 0.00
 1 2 8 -7.40 0.00
 2 2 8 17.40 0.00
 3 2 8 3.78 0.00
 4 2 8 -17.38 0.00
 5 2 8 26.29 0.00
 6 2 8 15.04 0.00
 7 2 8 11.95 0.00
 8 2 8 -50.65 0.00
 9 2 8 13.26 0.00
 10 2 8 5.65 0.00
 11 2 8 9.61 0.00
 12 2 8 11.14 0.00
 13 2 8 -18.03 0.00
 14 2 8 6.09 0.00
 15 2 8 4.43 0.00
 16 2 8 -0.92 0.00
 17 2 8 -1.59 0.00
 18 2 8 -3.80 0.00
 19 2 8 -9.89 0.00
 20 2 8 6.69 0.00
 21 2 8 -6.13 0.00
 22 2 8 -3.20 0.00
 23 2 8 -0.14 0.00
 24 2 8 4.09 0.00
 25 2 8 2.05 0.00
 26 2 8 -7.39 0.00
 27 2 8 -5.27 0.00
 28 2 8 9.62 0.00
 1 3 8 -3.08 0.00
 2 3 8 -15.94 0.00
 3 3 8 -27.34 0.00
 4 3 8 11.70 0.00
 5 3 8 -28.96 0.00
 6 3 8 39.50 0.00
 7 3 8 -12.83 0.00
 8 3 8 14.22 0.00
 9 3 8 1.37 0.00
 10 3 8 -3.43 0.00
 11 3 8 10.63 0.00
 12 3 8 9.67 0.00
 13 3 8 -11.35 0.00
 14 3 8 4.06 0.00
 15 3 8 -7.55 0.00
 16 3 8 13.82 0.00
 17 3 8 1.83 0.00
 18 3 8 -8.12 0.00
 19 3 8 -1.36 0.00
 20 3 8 -4.01 0.00
 21 3 8 -6.34 0.00
 22 3 8 7.95 0.00
 23 3 8 -9.23 0.00
 24 3 8 0.08 0.00
 25 3 8 1.36 0.00
 26 3 8 1.93 0.00
 27 3 8 -5.74 0.00
 28 3 8 -3.03 0.00
 0 4 8 66.77 0.00
 1 4 8 10.45 0.00
 2 4 8 21.18 0.00
 3 4 8 -40.79 0.00
 4 4 8 -36.99 0.00
 5 4 8 3.06 0.00
 6 4 8 30.70 0.00
 7 4 8 -28.96 0.00
 8 4 8 -9.21 0.00
 9 4 8 -29.64 0.00
 10 4 8 12.06 0.00
 11 4 8 9.27 0.00
 12 4 8 -20.45 0.00
 13 4 8 6.36 0.00
 14 4 8 -5.14 0.00
 15 4 8 -6.43 0.00
 16 4 8 15.76 0.00
 17 4 8 10.33 0.00
 18 4 8 -9.90 0.00
 19 4 8 10.35 0.00
 20 4 8 6.92 0.00
 21 4 8 5.42 0.00
 22 4 8 -1.40 0.00
 23 4 8 8.63 0.00
 24 4 8 -2.28 0.00
 25 4 8 -2.58 0.00
 26 4 8 6.08 0.00
 27 4 8 -2.71 0.00
 28 4 8 0.34 0.00
 1 5 8 19.36 0.00
 2 5 8 -3.82 0.00
 3 5 8 -7.73 0.00
 4 5 8 50.90 0.00
 5 5 8 36.92 0.00
 6 5 8 -70.10 0.00
 7 5 8 30.52 0.00
 8 5 8 21.26 0.00
 9 5 8 -16.84 0.00
 10 5 8 -23.70 0.00
 11 5 8 10.95 0.00
 12 5 8 6.90 0.00
 13 5 8 15.26 0.00
 14 5 8 -23.01 0.00
 15 5 8 -3.31 0.00
 16 5 8 9.51 0.00
 17 5 8 12.58 0.00
 18 5 8 -1.70 0.00
 19 5 8 -10.00 0.00
 20 5 8 11.11 0.00
 21 5 8 10.59 0.00
 22 5 8 -0.82 0.00
 23 5 8 3.06 0.00
 24 5 8 -0.37 0.00
 25 5 8 6.61 0.00
 26 5 8 -0.95 0.00
 27 5 8 -0.02 0.00
 0 6 8 -60.01 0.00
 1 6 8 27.23 0.00
 2 6 8 -15.94 0.00
 3 6 8 12.48 0.00
 4 6 8 14.56 0.00
 5 6 8 3.92 0.00
 6 6 8 -1.06 0.00
 7 6 8 20.16 0.00
 8 6 8 9.10 0.00
 9 6 8 14.87 0.00
 10 6 8 2.09 0.00
 11 6 8 -2.24 0.00
 12 6 8 11.77 0.00
 13 6 8 0.90 0.00
 14 6 8 4.97 0.00
 15 6 8 1.92 0.00
 16 6 8 -14.28 0.00
 17 6 8 -8.04 0.00
 18 6 8 10.14 0.00
 19 6 8 -4.45 0.00
 20 6 8 -11.43 0.00
 21 6 8 -15.10 0.00
 22 6 8 3.16 0.00
 23 6 8 -0.97 0.00
 24 6 8 -6.56 0.00
 25 6 8 1.52 0.00
 26 6 8 5.46 0.00
 27 6 8 -3.72 0.00
 1 7 8 26.91 0.00
 2 7 8 -28.57 0.00
 3 7 8 11.32 0.00
 4 7 8 11.53 0.00
 5 7 8 -23.26 0.00
 6 7 8 -2.75 0.00
 7 7 8 -22.35 0.00
 8 7 8 11.90 0.00
 9 7 8 0.83 0.00
 10 7 8 15.34 0.00
 11 7 8 -15.67 0.00
 12 7 8 -3.72 0.00
 13 7 8 -12.67 0.00
 14 7 8 14.29 0.00
 15 7 8 -4.66 0.00
 16 7 8 -6.41 0.00
 17 7 8 -2.55 0.00
 18 7 8 -6.01 0.00
 19 7 8 2.69 0.00
 20 7 8 3.68 0.00
 21 7 8 -1.93 0.00
 22 7 8 -17.06 0.00
 23 7 8 -1.98 0.00
 24 7 8 4.97 0.00
 25 7 8 -0.32 0.00
 26 7 8 0.63 0.00
 27 7 8 -3.81 0.00
 0 8 8 14.50 0.00
 1 8 8 -36.54 0.00
 2 8 8 11.61 0.00
 3 8 8 -18.12 0.00
 4 8 8 12.86 0.00
 5 8 8 8.91 0.00
 6 8 8 -23.12 0.00
 7 8 8 -2.84 0.00
 8 8 8 -1.77 0.00
 9 8 8 -8.71 0.00
 10 8 8 -4.38 0.00
 11 8 8 1.40 0.00
 12 8 8 -10.47 0.00
 13 8 8 -5.28 0.00
 14 8 8 3.72 0.00
 15 8 8 6.00 0.00
 16 8 8 -7.14 0.00
 17 8 8 -3.35 0.00
 18 8 8 8.79 0.00
 19 8 8 6.76 0.00
 20 8 8 -5.02 0.00
 21 8 8 12.27 0.00
 22 8 8 8.86 0.00
 23 8 8 -5.39 0.00
 24 8 8 1.33 0.00
 25 8 8 3.68 0.00
 26 8 8 -7.48 0.00
 27 8 8 -0.94 0.00
 1 9 8 -39.35 0.00
 2 9 8 4.22 0.00
 3 9 8 -14.35 0.00
 4 9 8 -18.17 0.00
 5 9 8 13.72 0.00
 6 9 8 17.38 0.00
 7 9 8 0.83 0.00
 8 9 8 -22.97 0.00
 9 9 8 19.69 0.00
 10 9 8 0.51 0.00
 11 9 8 7.14 0.00
 12 9 8 -8.41 0.00
 13 9 8 5.23 0.00
 14 9 8 2.35 0.00
 15 9 8 14.72 0.00
 16 9 8 2.71 0.00
 17 9 8 -3.11 0.00
 18 9 8 -1.85 0.00
 19 9 8 -4.21 0.00
 20 9 8 4.50 0.00
 21 9 8 2.72 0.00
 22 9 8 8.25 0.00
 23 9 8 -3.34 0.00
 24 9 8 0.23 0.00
 25 9 8 -2.08 0.00
 26 9 8 -5.90 0.00
 27 9 8 -0.78 0.00
 0 10 8 5.78 0.00
 1 10 8 22.99 0.00
 2 10 8 3.83 0.00
 3 10 8 23.85 0.00
 4 10 8 -23.37 0.00
 5 10 8 -17.03 0.00
 6 10 8 20.52 0.00
 7 10 8 -4.45 0.00
 8 10 8 -6.73 0.00
 9 10 8 5.50 0.00
 10 10 8 7.89 0.00
 11 10 8 2.09 0.00
 12 10 8 5.60 0.00
 13 10 8 -13.10 0.00
 14 10 8 -4.03 0.00
 15 10 8 13.38 0.00
 16 10 8 10.80 0.00
 17 10 8 -9.85 0.00
 18 10 8 -4.19 0.00
 19 10 8 3.14 0.00
 20 10 8 1.71 0.00
 21 10 8 -9.17 0.00
 22 10 8 -0.95 0.00
 23 10 8 4.66 0.00
 24 10 8 1.18 0.00
 25 10 8 4.13 0.00
 26 10 8 -0.17 0.00
 27 10 8 -6.65 0.00
 1 11 8 3.30 0.00
 2 11 8 10.21 0.00
 3 11 8 16.25 0.00
 4 11 8 16.01 0.00
 5 11 8 2.09 0.00
 6 11 8 -5.05 0.00
 7 11 8 -13.32 0.00
 8 11 8 6.87 0.00
 9 11 8 -1.83 0.00
 10 11 8 -2.98 0.00
 11 11 8 2.28 0.00
 12 11 8 11.98 0.00
 13 11 8 -11.59 0.00
 14 11 8 -10.11 0.00
 15 11 8 -6.37 0.00
 16 11 8 1.30 0.00
 17 11 8 4.85 0.00
 18 11 8 -0.47 0.00
 19 11 8 -1.86 0.00
 20 11 8 -1.84 0.00
 21 11 8 6.15 0.00
 22 11 8 -3.40 0.00
 23 11 8 -3.42 0.00
 24 11 8 0.99 0.00
 25 11 8 5.14 0.00
 26 11 8 2.97 0.00
 0 12 8 -18.88 0.00
 1 12 8 -3.79 0.00
 2 12 8 2.89 0.00
 3 12 8 -10.48 0.00
 4 12 8 3.74 0.00
 5 12 8 8.47 0.00
 6 12 8 6.66 0.00
 7 12 8 3.06 0.00
 8 12 8 2.62 0.00
 9 12 8 -5.14 0.00
 10 12 8 -11.46 0.00
 11 12 8 7.32 0.00
 12 12 8 5.60 0.00
 13 12 8 1.33 0.00
 14 12 8 -4.66 0.00
 15 12 8 6.90 0.00
 16 12 8 -3.95 0.00
 17 12 8 -12.04 0.00
 18 12 8 0.24 0.00
 19 12 8 10.61 0.00
 20 12 8 -5.77 0.00
 21 12 8 -1.82 0.00
 22 12 8 -1.02 0.00
 23 12 8 -4.10 0.00
 24 12 8 -3.36 0.00
 25 12 8 -3.40 0.00
 26 12 8 3.31 0.00
 1 13 8 7.48 0.00
 2 13 8 -7.17 0.00
 3 13 8 -8.58 0.00
 4 13 8 -8.14 0.00
 5 13 8 9.57 0.00
 6 13 8 -16.92 0.00
 7 13 8 5.14 0.00
 8 13 8 26.24 0.00
 9 13 8 -11.63 0.00
 10 13 8 -15.43 0.00
 11 13 8 -1.57 0.00
 12 13 8 -2.23 0.00
 13 13 8 7.62 0.00
 14 13 8 6.96 0.00
 15 13 8 -4.87 0.00
 16 13 8 -0.72 0.00
 17 13 8 4.53 0.00
 18 13 8 0.36 0.00
 19 13 8 -8.57 0.00
 20 13 8 -1.28 0.00
 21 13 8 4.78 0.00
 22 13 8 -0.06 0.00
 23 13 8 -4.62 0.00
 24 13 8 0.98 0.00
 25 13 8 1.04 0.00
 26 13 8 -4.01 0.00
 0 14 8 -8.04 0.00
 1 14 8 -8.15 0.00
 2 14 8 9.31 0.00
 3 14 8 -11.66 0.00
 4 14 8 0.97 0.00
 5 14 8 8.26 0.00
 6 14 8 -23.38 0.00
 7 14 8 -1.39 0.00
 8 14 8 14.30 0.00
 9 14 8 -1.19 0.00
 10 14 8 0.19 0.00
 11 14 8 -3.78 0.00
 12 14 8 -5.95 0.00
 13 14 8 -1.39 0.00
 14 14 8 11.25 0.00
 15 14 8 -0.86 0.00
 16 14 8 -9.54 0.00
 17 14 8 -2.50 0.00
 18 14 8 10.84 0.00
 19 14 8 4.52 0.00
 20 14 8 -2.13 0.00
 21 14 8 3.49 0.00
 22 14 8 7.03 0.00
 23 14 8 -3.31 0.00
 24 14 8 -4.33 0.00
 25 14 8 7.02 0.00
 26 14 8 6.97 0.00
 1 15 8 -10.10 0.00
 2 15 8 13.73 0.00
 3 15 8 -7.23 0.00
 4 15 8 -9.11 0.00
 5 15 8 -4.01 0.00
 6 15 8 17.82 0.00
 7 15 8 -2.98 0.00
 8 15 8 -20.48 0.00
 9 15 8 13.39 0.00
 10 15 8 13.68 0.00
 11 15 8 -1.80 0.00
 12 15 8 -2.67 0.00
 13 15 8 3.76 0.00
 14 15 8 1.95 0.00
 15 15 8 4.50 0.00
 16 15 8 -4.29 0.00
 17 15 8 -3.43 0.00
 18 15 8 6.58 0.00
 19 15 8 3.30 0.00
 20 15 8 -0.89 0.00
 21 15 8 1.49 0.00
 22 15 8 4.49 0.00
 23 15 8 0.39 0.00
 24 15 8 -4.32 0.00
 25 15 8 0.92 0.00
 0 16 8 -7.46 0.00
 1 16 8 8.61 0.00
 2 16 8 8.22 0.00
 3 16 8 23.99 0.00
 4 16 8 -3.16 0.00
 5 16 8 -16.83 0.00
 6 16 8 10.01 0.00
 7 16 8 0.96 0.00
 8 16 8 -5.12 0.00
 9 16 8 8.58 0.00
 10 16 8 -6.14 0.00
 11 16 8 -1.08 0.00
 12 16 8 3.96 0.00
 13 16 8 -5.55 0.00
 14 16 8 1.79 0.00
 15 16 8 7.33 0.00
 16 16 8 -3.32 0.00
 17 16 8 -1.19 0.00
 18 16 8 -1.80 0.00
 19 16 8 -5.95 0.00
 20 16 8 4.20 0.00
 21 16 8 -4.09 0.00
 22 16 8 -4.02 0.00
 23 16 8 -2.89 0.00
 24 16 8 0.63 0.00
 25 16 8 2.34 0.00
 1 17 8 7.29 0.00
 2 17 8 -3.84 0.00
 3 17 8 6.28 0.00
 4 17 8 -2.21 0.00
 5 17 8 6.76 0.00
 6 17 8 2.20 0.00
 7 17 8 -14.88 0.00
 8 17 8 0.95 0.00
 9 17 8 11.08 0.00
 10 17 8 -6.83 0.00
 11 17 8 -14.31 0.00
 12 17 8 -1.58 0.00
 13 17 8 1.96 0.00
 14 17 8 -1.02 0.00
 15 17 8 -2.97 0.00
 16 17 8 3.47 0.00
 17 17 8 -1.41 0.00
 18 17 8 -8.29 0.00
 19 17 8 0.95 0.00
 20 17 8 -3.43 0.00
 21 17 8 0.77 0.00
 22 17 8 3.21 0.00
 23 17 8 -6.40 0.00
 24 17 8 -2.26 0.00
 0 18 8 -0.46 0.00
 1 18 8 -9.00 0.00
 2 18 8 2.19 0.00
 3 18 8 -3.57 0.00
 4 18 8 -16.56 0.00
 5 18 8 0.72 0.00
 6 18 8 12.78 0.00
 7 18 8 0.94 0.00
 8 18 8 -3.69 0.00
 9 18 8 -5.14 0.00
 10 18 8 9.03 0.00
 11 18 8 -2.96 0.00
 12 18 8 -0.81 0.00
 13 18 8 10.89 0.00
 14 18 8 -7.41 0.00
 15 18 8 -7.88 0.00
 16 18 8 4.62 0.00
 17 18 8 5.48 0.00
 18 18 8 0.88 0.00
 19 18 8 1.26 0.00
 20 18 8 -5.00 0.00
 21 18 8 9.47 0.00
 22 18 8 1.46 0.00
 23 18 8 1.23 0.00
 24 18 8 -1.82 0.00
 1 19 8 -5.58 0.00
 2 19 8 5.54 0.00
 3 19 8 -3.45 0.00
 4 19 8 5.09 0.00
 5 19 8 9.50 0.00
 6 19 8 -13.68 0.00
 7 19 8 2.36 0.00
 8 19 8 17.42 0.00
 9 19 8 -4.10 0.00
 10 19 8 -5.82 0.00
 11 19 8 5.57 0.00
 12 19 8 6.31 0.00
 13 19 8 2.26 0.00
 14 19 8 0.65 0.00
 15 19 8 -3.77 0.00
 16 19 8 -2.50 0.00
 17 19 8 4.13 0.00
 18 19 8 2.18 0.00
 19 19 8 -0.32 0.00
 20 19 8 4.68 0.00
 21 19 8 -2.04 0.00
 22 19 8 -1.67 0.00
 23 19 8 6.69 0.00
 0 20 8 -1.23 0.00
 1 20 8 0.92 0.00
 2 20 8 1.51 0.00
 3 20 8 -8.76 0.00
 4 20 8 9.04 0.00
 5 20 8 8.29 0.00
 6 20 8 -4.07 0.00
 7 20 8 -4.22 0.00
 8 20 8 -3.48 0.00
 9 20 8 4.71 0.00
 10 20 8 -3.91 0.00
 11 20 8 0.38 0.00
 12 20 8 -6.34 0.00
 13 20 8 -3.62 0.00
 14 20 8 10.89 0.00
 15 20 8 -4.81 0.00
 16 20 8 -3.98 0.00
 17 20 8 -1.72 0.00
 18 20 8 -0.08 0.00
 19 20 8 1.49 0.00
 20 20 8 -2.75 0.00
 21 20 8 -12.02 0.00
 22 20 8 5.71 0.00
 23 20 8 5.55 0.00
 1 21 8 6.02 0.00
 2 21 8 -2.93 0.00
 3 21 8 -1.02 0.00
 4 21 8 -5.17 0.00
 5 21 8 -15.45 0.00
 6 21 8 4.11 0.00
 7 21 8 2.22 0.00
 8 21 8 -6.94 0.00
 9 21 8 0.68 0.00
 10 21 8 2.17 0.00
 11 21 8 0.45 0.00
 12 21 8 0.33 0.00
 13 21 8 -1.07 0.00
 14 21 8 -1.97 0.00
 15 21 8 1.51 0.00
 16 21 8 0.92 0.00
 17 21 8 -1.84 0.00
 18 21 8 8.40 0.00
 19 21 8 1.03 0.00
 20 21 8 -7.11 0.00
 21 21 8 -5.86 0.00
 22 21 8 -0.52 0.00
 0 22 8 -4.09 0.00
 1 22 8 6.03 0.00
 2 22 8 1.83 0.00
 3 22 8 6.86 0.00
 4 22 8 -4.93 0.00
 5 22 8 1.56 0.00
 6 22 8 -0.95 0.00
 7 22 8 -2.69 0.00
 8 22 8 -0.29 0.00
 9 22 8 1.90 0.00
 10 22 8 10.26 0.00
 11 22 8 -2.89 0.00
 12 22 8 -0.72 0.00
 13 22 8 5.46 0.00
 14 22 8 -0.52 0.00
 15 22 8 6.95 0.00
 16 22 8 -1.60 0.00
 17 22 8 -2.54 0.00
 18 22 8 1.14 0.00
 19 22 8 3.38 0.00
 20 22 8 7.23 0.00
 21 22 8 4.02 0.00
 22 22 8 -5.92 0.00
 1 23 8 2.20 0.00
 2 23 8 2.28 0.00
 3 23 8 -1.76 0.00
 4 23 8 2.28 0.00
 5 23 8 7.30 0.00
 6 23 8 9.70 0.00
 7 23 8 7.16 0.00
 8 23 8 -10.28 0.00
 9 23 8 -7.76 0.00
 10 23 8 4.97 0.00
 11 23 8 -0.87 0.00
 12 23 8 -6.49 0.00
 13 23 8 2.17 0.00
 14 23 8 3.13 0.00
 15 23 8 1.40 0.00
 16 23 8 -8.25 0.00
 17 23 8 -4.74 0.00
 18 23 8 2.51 0.00
 19 23 8 7.91 0.00
 20 23 8 -6.01 0.00
 21 23 8 0.92 0.00
 0 24 8 -2.59 0.00
 1 24 8 -3.94 0.00
 2 24 8 1.44 0.00
 3 24 8 -5.91 0.00
 4 24 8 -4.16 0.00
 5 24 8 -6.17 0.00
 6 24 8 10.84 0.00
 7 24 8 -0.21 0.00
 8 24 8 -5.81 0.00
 9 24 8 5.97 0.00
 10 24 8 -6.66 0.00
 11 24 8 -9.66 0.00
 12 24 8 1.84 0.00
 13 24 8 -1.64 0.00
 14 24 8 -2.44 0.00
 15 24 8 3.04 0.00
 16 24 8 1.46 0.00
 17 24 8 -5.84 0.00
 18 24 8 -3.09 0.00
 19 24 8 -2.30 0.00
 20 24 8 -1.21 0.00
 1 25 8 4.16 0.00
 2 25 8 -2.26 0.00
 3 25 8 3.07 0.00
 4 25 8 -4.72 0.00
 5 25 8 -5.53 0.00
 6 25 8 -5.57 0.00
 7 25 8 -1.28 0.00
 8 25 8 6.81 0.00
 9 25 8 4.66 0.00
 10 25 8 -2.29 0.00
 11 25 8 2.73 0.00
 12 25 8 1.87 0.00
 13 25 8 -6.31 0.00
 14 25 8 5.96 0.00
 15 25 8 2.37 0.00
 16 25 8 -3.90 0.00
 17 25 8 1.74 0.00
 18 25 8 5.72 0.00
 19 25 8 -7.84 0.00
 20 25 8 0.65 0.00
 0 26 8 2.99 0.00
 1 26 8 3.60 0.00
 2 26 8 1.83 0.00
 3 26 8 -2.65 0.00
 4 26 8 2.00 0.00
 5 26 8 5.62 0.00
 6 26 8 -1.81 0.00
 7 26 8 2.21 0.00
 8 26 8 -0.24 0.00
 9 26 8 0.14 0.00
 10 26 8 8.19 0.00
 11 26 8 3.20 0.00
 12 26 8 -3.55 0.00
 13 26 8 -2.08 0.00
 14 26 8 1.25 0.00
 15 26 8 1.82 0.00
 16 26 8 1.08 0.00
 17 26 8 2.20 0.00
 18 26 8 -2.24 0.00
 19 26 8 -2.97 0.00
 1 27 8 -16.44 0.00
 2 27 8 -0.84 0.00
 3 27 8 6.10 0.00
 4 27 8 3.61 0.00
 5 27 8 -0.79 0.00
 6 27 8 1.21 0.00
 7 27 8 -4.64 0.00
 8 27 8 3.52 0.00
 9 27 8 0.31 0.00
 10 27 8 -0.70 0.00
 11 27 8 -0.58 0.00
 12 27 8 -3.41 0.00
 13 27 8 2.23 0.00
 14 27 8 5.09 0.00
 15 27 8 -5.05 0.00
 16 27 8 -4.73 0.00
 17 27 8 7.58 0.00
 18 27 8 1.75 0.00
 0 28 8 1.12 0.00
 1 28 8 2.79 0.00
 2 28 8 -0.35 0.00
 3 28 8 -1.00 0.00
 4 28 8 -4.04 0.00
 5 28 8 1.10 0.00
 6 28 8 -2.96 0.00
 7 28 8 0.14 0.00
 8 28 8 -4.30 0.00
 9 28 8 -5.67 0.00
 10 28 8 7.51 0.00
 11 28 8 1.10 0.00
 12 28 8 -8.74 0.00
 13 28 8 6.65 0.00
 14 28 8 3.18 0.00
 15 28 8 -8.34 0.00
 16 28 8 4.19 0.00
 17 28 8 4.91 0.00
 1 29 8 4.25 0.00
 2 29 8 12.19 0.00
 3 29 8 -0.34 0.00
 4 29 8 -4.62 0.00
 5 29 8 -1.42 0.00
 6 29 8 -1.87 0.00
 7 29 8 4.07 0.00
 8 29 8 -6.60 0.00
 9 29 8 0.25 0.00
 10 29 8 2.50 0.00
 11 29 8 -2.49 0.00
 12 29 8 -1.50 0.00
 13 29 8 7.31 0.00
 14 29 8 -2.58 0.00
 15 29 8 -3.69 0.00
 16 29 8 0.75 0.00
 0 30 8 -13.90 0.00
 1 30 8 -3.37 0.00
 2 30 8 2.30 0.00
 3 30 8 -2.42 0.00
 4 30 8 -1.22 0.00
 5 30 8 -1.37 0.00
 6 30 8 13.97 0.00
 7 30 8 0.80 0.00
 8 30 8 -10.88 0.00
 9 30 8 0.20 0.00
 10 30 8 2.30 0.00
 11 30 8 -0.27 0.00
 12 30 8 3.15 0.00
 13 30 8 -2.06 0.00
 14 30 8 -3.83 0.00
 15 30 8 2.07 0.00
 1 31 8 1.50 0.00
 2 31 8 -8.61 0.00
 3 31 8 -1.63 0.00
 4 31 8 -1.54 0.00
 5 31 8 2.45 0.00
 6 31 8 3.66 0.00
 7 31 8 2.38 0.00
 8 31 8 4.10 0.00
 9 31 8 -3.47 0.00
 10 31 8 1.82 0.00
 11 31 8 0.37 0.00
 12 31 8 -1.30 0.00
 13 31 8 -5.52 0.00
 14 31 8 0.25 0.00
 0 32 8 9.96 0.00
 1 32 8 1.37 0.00
 2 32 8 6.14 0.00
 3 32 8 4.64 0.00
 4 32 8 -3.93 0.00
 5 32 8 2.49 0.00
 6 32 8 3.35 0.00
 7 32 8 -2.88 0.00
 8 32 8 -3.69 0.00
 9 32 8 -0.29 0.00
 10 32 8 5.65 0.00
 11 32 8 4.93 0.00
 12 32 8 -0.40 0.00
 1 33 8 -9.98 0.00
 2 33 8 1.54 0.00
 3 33 8 3.30 0.00
 4 33 8 2.35 0.00
 5 33 8 -3.50 0.00
 6 33 8 -0.87 0.00
 7 33 8 -1.10 0.00
 8 33 8 -7.20 0.00
 9 33 8 -0.22 0.00
 10 33 8 4.65 0.00
 0 34 8 -11.84 0.00
 1 34 8 -4.68 0.00
 2 34 8 0.27 0.00
 3 34 8 8.20 0.00
 4 34 8 -8.59 0.00
 5 34 8 -13.97 0.00
 6 34 8 2.60 0.00
 7 34 8 8.51 0.00
 8 34 8 -2.91 0.00
 1 35 8 -6.71 0.00
 2 35 8 1.17 0.00
 3 35 8 10.64 0.00
 4 35 8 0.24 0.00
 5 35 8 -2.25 0.00
 1 0 9 -11.46 0.00
 3 0 9 29.40 0.00
 5 0 9 -3.74 0.00
 7 0 9 17.78 0.00
 9 0 9 -14.71 0.00
 11 0 9 -15.15 0.00
 13 0 9 19.10 0.00
 15 0 9 -17.64 0.00
 17 0 9 23.06 0.00
 19 0 9 14.56 0.00
 21 0 9 -1.05 0.00
 23 0 9 16.84 0.00
 25 0 9 -4.84 0.00
 27 0 9 8.78 0.00
 0 1 9 7.33 0.00
 1 1 9 -20.91 0.00
 2 1 9 -6.77 0.00
 3 1 9 -21.58 0.00
 4 1 9 -1.91 0.00
 5 1 9 29.22 0.00
 6 1 9 -11.73 0.00
 7 1 9 -4.35 0.00
 8 1 9 -2.92 0.00
 9 1 9 33.55 0.00
 10 1 9 -11.06 0.00
 11 1 9 3.26 0.00
 12 1 9 10.71 0.00
 13 1 9 23.01 0.00
 14 1 9 3.17 0.00
 15 1 9 -15.80 0.00
 16 1 9 -6.42 0.00
 17 1 9 21.20 0.00
 18 1 9 6.35 0.00
 19 1 9 0.79 0.00
 20 1 9 5.97 0.00
 21 1 9 -6.47 0.00
 22 1 9 -4.53 0.00
 23 1 9 12.85 0.00
 24 1 9 6.11 0.00
 25 1 9 -5.77 0.00
 26 1 9 -5.54 0.00
 27 1 9 -4.77 0.00
 1 2 9 15.25 0.00
 2 2 9 18.22 0.00
 3 2 9 -13.01 0.00
 4 2 9 11.45 0.00
 5 2 9 5.41 0.00
 6 2 9 13.73 0.00
 7 2 9 -13.11 0.00
 8 2 9 3.70 0.00
 9 2 9 14.22 0.00
 10 2 9 3.84 0.00
 11 2 9 4.82 0.00
 12 2 9 -12.85 0.00
 13 2 9 -2.22 0.00
 14 2 9 15.76 0.00
 15 2 9 -3.73 0.00
 16 2 9 1.78 0.00
 17 2 9 -11.48 0.00
 18 2 9 -4.05 0.00
 19 2 9 -0.04 0.00
 20 2 9 3.22 0.00
 21 2 9 -16.19 0.00
 22 2 9 7.41 0.00
 23 2 9 0.47 0.00
 24 2 9 4.01 0.00
 25 2 9 -7.16 0.00
 26 2 9 -4.50 0.00
 27 2 9 2.61 0.00
 0 3 9 30.87 0.00
 1 3 9 7.74 0.00
 2 3 9 -12.76 0.00
 3 3 9 -5.49 0.00
 4 3 9 16.66 0.00
 5 3 9 17.86 0.00
 6 3 9 19.88 0.00
 7 3 9 -14.06 0.00
 8 3 9 18.95 0.00
 9 3 9 -13.53 0.00
 10 3 9 9.38 0.00
 11 3 9 -5.40 0.00
 12 3 9 -13.11 0.00
 13 3 9 -5.50 0.00
 14 3 9 -4.39 0.00
 15 3 9 -13.19 0.00
 16 3 9 1.46 0.00
 17 3 9 -7.10 0.00
 18 3 9 -1.69 0.00
 19 3 9 -3.66 0.00
 20 3 9 -16.95 0.00
 21 3 9 0.38 0.00
 22 3 9 -1.71 0.00
 23 3 9 -4.50 0.00
 24 3 9 2.30 0.00
 25 3 9 1.28 0.00
 26 3 9 -1.53 0.00
 27 3 9 -1.49 0.00
 1 4 9 -9.35 0.00
 2 4 9 -31.34 0.00
 3 4 9 -31.50 0.00
 4 4 9 5.36 0.00
 5 4 9 4.34 0.00
 6 4 9 -34.08 0.00
 7 4 9 -6.62 0.00
 8 4 9 -18.70 0.00
 9 4 9 -2.73 0.00
 10 4 9 15.02 0.00
 11 4 9 -5.10 0.00
 12 4 9 -10.84 0.00
 13 4 9 3.40 0.00
 14 4 9 -9.37 0.00
 15 4 9 16.51 0.00
 16 4 9 -4.54 0.00
 17 4 9 -16.36 0.00
 18 4 9 4.61 0.00
 19 4 9 12.84 0.00
 20 4 9 -5.18 0.00
 21 4 9 0.93 0.00
 22 4 9 -5.55 0.00
 23 4 9 -1.63 0.00
 24 4 9 -8.06 0.00
 25 4 9 8.32 0.00
 26 4 9 0.75 0.00
 27 4 9 -3.13 0.00
 0 5 9 -13.10 0.00
 1 5 9 5.02 0.00
 2 5 9 -30.09 0.00
 3 5 9 24.05 0.00
 4 5 9 13.11 0.00
 5 5 9 -52.76 0.00
 6 5 9 -20.81 0.00
 7 5 9 28.95 0.00
 8 5 9 -34.09 0.00
 9 5 9 -20.45 0.00
 10 5 9 3.54 0.00
 11 5 9 18.95 0.00
 12 5 9 11.25 0.00
 13 5 9 -6.16 0.00
 14 5 9 -5.69 0.00
 15 5 9 21.15 0.00
 16 5 9 7.17 0.00
 17 5 9 6.14 0.00
 18 5 9 1.52 0.00
 19 5 9 5.41 0.00
 20 5 9 12.66 0.00
 21 5 9 1.10 0.00
 22 5 9 11.66 0.00
 23 5 9 3.29 0.00
 24 5 9 -4.04 0.00
 25 5 9 1.56 0.00
 26 5 9 -0.90 0.00
 27 5 9 4.44 0.00
 1 6 9 16.09 0.00
 2 6 9 -10.63 0.00
 3 6 9 35.02 0.00
 4 6 9 11.14 0.00
 5 6 9 6.56 0.00
 6 6 9 31.97 0.00
 7 6 9 12.56 0.00
 8 6 9 15.91 0.00
 9 6 9 -6.46 0.00
 10 6 9 0.94 0.00
 11 6 9 8.07 0.00
 12 6 9 9.23 0.00
 13 6 9 -9.46 0.00
 14 6 9 17.50 0.00
 15 6 9 -7.19 0.00
 16 6 9 -7.10 0.00
 17 6 9 12.81 0.00
 18 6 9 6.58 0.00
 19 6 9 -8.01 0.00
 20 6 9 -4.59 0.00
 21 6 9 5.83 0.00
 22 6 9 7.89 0.00
 23 6 9 -2.60 0.00
 24 6 9 3.95 0.00
 25 6 9 7.02 0.00
 26 6 9 0.98 0.00
 27 6 9 -9.92 0.00
 0 7 9 46.58 0.00
 1 7 9 -18.56 0.00
 2 7 9 24.90 0.00
 3 7 9 15.62 0.00
 4 7 9 -13.74 0.00
 5 7 9 6.50 0.00
 6 7 9 0.84 0.00
 7 7 9 12.16 0.00
 8 7 9 38.89 0.00
 9 7 9 4.94 0.00
 10 7 9 -14.25 0.00
 11 7 9 -8.45 0.00
 12 7 9 -1.43 0.00
 13 7 9 1.46 0.00
 14 7 9 1.03 0.00
 15 7 9 -15.37 0.00
 16 7 9 -2.50 0.00
 17 7 9 -3.82 0.00
 18 7 9 -4.18 0.00
 19 7 9 -1.87 0.00
 20 7 9 -11.25 0.00
 21 7 9 -13.80 0.00
 22 7 9 -4.63 0.00
 23 7 9 6.42 0.00
 24 7 9 -5.63 0.00
 25 7 9 -6.91 0.00
 26 7 9 3.12 0.00
 27 7 9 -0.97 0.00
 1 8 9 -29.33 0.00
 2 8 9 19.56 0.00
 3 8 9 -4.31 0.00
 4 8 9 3.64 0.00
 5 8 9 -19.28 0.00
 6 8 9 -25.72 0.00
 7 8 9 -6.44 0.00
 8 8 9 -21.01 0.00
 9 8 9 5.83 0.00
 10 8 9 -1.67 0.00
 11 8 9 -7.54 0.00
 12 8 9 -13.66 0.00
 13 8 9 6.30 0.00
 14 8 9 -4.18 0.00
 15 8 9 -3.53 0.00
 16 8 9 -8.69 0.00
 17 8 9 6.17 0.00
 18 8 9 4.28 0.00
 19 8 9 -9.47 0.00
 20 8 9 4.08 0.00
 21 8 9 6.42 0.00
 22 8 9 -7.61 0.00
 23 8 9 -6.38 0.00
 24 8 9 3.80 0.00
 25 8 9 -7.94 0.00
 26 8 9 -1.60 0.00
 27 8 9 13.74 0.00
 0 9 9 -78.00 0.00
 1 9 9 7.41 0.00
 2 9 9 -1.52 0.00
 3 9 9 -29.01 0.00
 4 9 9 14.60 0.00
 5 9 9 14.14 0.00
 6 9 9 -14.21 0.00
 7 9 9 -20.35 0.00
 8 9 9 4.12 0.00
 9 9 9 8.36 0.00
 10 9 9 -10.49 0.00
 11 9 9 -1.56 0.00
 12 9 9 4.96 0.00
 13 9 9 7.27 0.00
 14 9 9 11.04 0.00
 15 9 9 3.30 0.00
 16 9 9 -5.56 0.00
 17 9 9 -1.37 0.00
 18 9 9 2.90 0.00
 19 9 9 8.51 0.00
 20 9 9 9.22 0.00
 21 9 9 3.88 0.00
 22 9 9 2.29 0.00
 23 9 9 -0.54 0.00
 24 9 9 3.83 0.00
 25 9 9 0.00 0.00
 26 9 9 -0.44 0.00
 1 10 9 3.70 0.00
 2 10 9 -10.75 0.00
 3 10 9 -4.76 0.00
 4 10 9 -14.72 0.00
 5 10 9 20.79 0.00
 6 10 9 16.85 0.00
 7 10 9 -15.33 0.00
 8 10 9 17.16 0.00
 9 10 9 16.71 0.00
 10 10 9 4.12 0.00
 11 10 9 1.32 0.00
 12 10 9 -5.60 0.00
 13 10 9 -3.87 0.00
 14 10 9 17.70 0.00
 15 10 9 9.60 0.00
 16 10 9 -2.82 0.00
 17 10 9 -10.40 0.00
 18 10 9 2.30 0.00
 19 10 9 3.61 0.00
 20 10 9 -7.73 0.00
 21 10 9 3.21 0.00
 22 10 9 4.67 0.00
 23 10 9 0.80 0.00
 24 10 9 -2.24 0.00
 25 10 9 -2.29 0.00
 26 10 9 -7.87 0.00
 0 11 9 24.18 0.00
 1 11 9 11.66 0.00
 2 11 9 15.13 0.00
 3 11 9 10.96 0.00
 4 11 9 -8.99 0.00
 5 11 9 2.32 0.00
 6 11 9 -7.88 0.00
 7 11 9 -2.92 0.00
 8 11 9 7.58 0.00
 9 11 9 -7.57 0.00
 10 11 9 5.61 0.00
 11 11 9 3.93 0.00
 12 11 9 -14.04 0.00
 13 11 9 -9.49 0.00
 14 11 9 -4.65 0.00
 15 11 9 5.01 0.00
 16 11 9 2.61 0.00
 17 11 9 -3.63 0.00
 18 11 9 -2.72 0.00
 19 11 9 -1.22 0.00
 20 11 9 -0.07 0.00
 21 11 9 1.52 0.00
 22 11 9 -7.02 0.00
 23 11 9 1.30 0.00
 24 11 9 2.24 0.00
 25 11 9 -0.80 0.00
 26 11 9 0.61 0.00
 1 12 9 10.87 0.00
 2 12 9 0.61 0.00
 3 12 9 -8.67 0.00
 4 12 9 10.84 0.00
 5 12 9 6.75 0.00
 6 12 9 -11.82 0.00
 7 12 9 2.78 0.00
 8 12 9 -7.89 0.00
 9 12 9 -19.64 0.00
 10 12 9 6.65 0.00
 11 12 9 2.77 0.00
 12 12 9 -0.46 0.00
 13 12 9 -7.98 0.00
 14 12 9 -0.77 0.00
 15 12 9 4.79 0.00
 16 12 9 -9.55 0.00
 17 12 9 0.86 0.00
 18 12 9 8.19 0.00
 19 12 9 -5.32 0.00
 20 12 9 -0.07 0.00
 21 12 9 4.11 0.00
 22 12 9 -0.04 0.00
 23 12 9 0.42 0.00
 24 12 9 4.12 0.00
 25 12 9 0.14 0.00
 26 12 9 3.56 0.00
 0 13 9 1.14 0.00
 1 13 9 -9.08 0.00
 2 13 9 -5.82 0.00
 3 13 9 -11.42 0.00
 4 13 9 12.60 0.00
 5 13 9 -9.38 0.00
 6 13 9 3.09 0.00
 7 13 9 21.31 0.00
 8 13 9 -8.10 0.00
 9 13 9 -4.39 0.00
 10 13 9 2.87 0.00
 11 13 9 3.77 0.00
 12 13 9 13.20 0.00
 13 13 9 -0.19 0.00
 14 13 9 -1.78 0.00
 15 13 9 3.09 0.00
 16 13 9 4.29 0.00
 17 13 9 1.00 0.00
 18 13 9 -5.72 0.00
 19 13 9 -2.78 0.00
 20 13 9 4.95 0.00
 21 13 9 -3.92 0.00
 22 13 9 -3.73 0.00
 23 13 9 1.60 0.00
 24 13 9 3.46 0.00
 25 13 9 -5.45 0.00
 1 14 9 16.79 0.00
 2 14 9 -1.66 0.00
 3 14 9 -1.20 0.00
 4 14 9 9.76 0.00
 5 14 9 -10.77 0.00
 6 14 9 -0.38 0.00
 7 14 9 13.90 0.00
 8 14 9 3.13 0.00
 9 14 9 1.27 0.00
 10 14 9 -10.72 0.00
 11 14 9 10.55 0.00
 12 14 9 2.65 0.00
 13 14 9 3.39 0.00
 14 14 9 -3.60 0.00
 15 14 9 -11.15 0.00
 16 14 9 1.16 0.00
 17 14 9 8.06 0.00
 18 14 9 3.98 0.00
 19 14 9 -2.18 0.00
 20 14 9 -3.34 0.00
 21 14 9 -1.17 0.00
 22 14 9 -4.91 0.00
 23 14 9 -5.19 0.00
 24 14 9 2.33 0.00
 25 14 9 4.49 0.00
 0 15 9 -16.59 0.00
 1 15 9 6.65 0.00
 2 15 9 -4.78 0.00
 3 15 9 0.92 0.00
 4 15 9 -6.81 0.00
 5 15 9 19.75 0.00
 6 15 9 -6.30 0.00
 7 15 9 -24.39 0.00
 8 15 9 8.33 0.00
 9 15 9 11.92 0.00
 10 15 9 -11.55 0.00
 11 15 9 -8.75 0.00
 12 15 9 -1.30 0.00
 13 15 9 3.83 0.00
 14 15 9 -0.16 0.00
 15 15 9 -3.85 0.00
 16 15 9 -4.06 0.00
 17 15 9 -2.69 0.00
 18 15 9 4.42 0.00
 19 15 9 1.73 0.00
 20 15 9 3.55 0.00
 21 15 9 1.49 0.00
 22 15 9 -0.38 0.00
 23 15 9 -0.75 0.00
 24 15 9 -1.63 0.00
 25 15 9 3.54 0.00
 1 16 9 -1.42 0.00
 2 16 9 10.20 0.00
 3 16 9 -12.35 0.00
 4 16 9 -25.07 0.00
 5 16 9 8.03 0.00
 6 16 9 7.10 0.00
 7 16 9 -8.21 0.00
 8 16 9 7.82 0.00
 9 16 9 -7.21 0.00
 10 16 9 -1.92 0.00
 11 16 9 -2.03 0.00
 12 16 9 1.57 0.00
 13 16 9 1.07 0.00
 14 16 9 6.74 0.00
 15 16 9 1.21 0.00
 16 16 9 -1.54 0.00
 17 16 9 -0.88 0.00
 18 16 9 -7.02 0.00
 19 16 9 8.23 0.00
 20 16 9 1.93 0.00
 21 16 9 -6.11 0.00
 22 16 9 3.96 0.00
 23 16 9 7.29 0.00
 24 16 9 3.45 0.00
 0 17 9 20.66 0.00
 1 17 9 -2.63 0.00
 2 17 9 3.00 0.00
 3 17 9 -3.29 0.00
 4 17 9 7.65 0.00
 5 17 9 -5.88 0.00
 6 17 9 -3.45 0.00
 7 17 9 -1.79 0.00
 8 17 9 16.19 0.00
 9 17 9 1.02 0.00
 10 17 9 -10.61 0.00
 11 17 9 -0.45 0.00
 12 17 9 10.44 0.00
 13 17 9 1.21 0.00
 14 17 9 -4.84 0.00
 15 17 9 6.24 0.00
 16 17 9 2.65 0.00
 17 17 9 -4.82 0.00
 18 17 9 -4.60 0.00
 19 17 9 8.60 0.00
 20 17 9 -0.67 0.00
 21 17 9 1.74 0.00
 22 17 9 -4.51 0.00
 23 17 9 -3.81 0.00
 24 17 9 4.42 0.00
 1 18 9 4.87 0.00
 2 18 9 2.99 0.00
 3 18 9 -1.71 0.00
 4 18 9 0.67 0.00
 5 18 9 12.86 0.00
 6 18 9 1.89 0.00
 7 18 9 -4.00 0.00
 8 18 9 -9.31 0.00
 9 18 9 8.83 0.00
 10 18 9 -0.92 0.00
 11 18 9 -1.52 0.00
 12 18 9 5.43 0.00
 13 18 9 -4.09 0.00
 14 18 9 -12.77 0.00
 15 18 9 4.97 0.00
 16 18 9 10.16 0.00
 17 18 9 -4.25 0.00
 18 18 9 -0.87 0.00
 19 18 9 -2.97 0.00
 20 18 9 5.77 0.00
 21 18 9 -0.91 0.00
 22 18 9 -5.56 0.00
 23 18 9 -3.37 0.00
 0 19 9 -0.43 0.00
 1 19 9 1.67 0.00
 2 19 9 -7.75 0.00
 3 19 9 5.85 0.00
 4 19 9 5.02 0.00
 5 19 9 -6.49 0.00
 6 19 9 -5.83 0.00
 7 19 9 18.88 0.00
 8 19 9 -9.03 0.00
 9 19 9 -8.96 0.00
 10 19 9 1.54 0.00
 11 19 9 4.84 0.00
 12 19 9 3.78 0.00
 13 19 9 -4.60 0.00
 14 19 9 -5.34 0.00
 15 19 9 -1.81 0.00
 16 19 9 6.91 0.00
 17 19 9 -4.41 0.00
 18 19 9 -0.78 0.00
 19 19 9 -1.89 0.00
 20 19 9 2.35 0.00
 21 19 9 -2.77 0.00
 22 19 9 -0.56 0.00
 23 19 9 -0.62 0.00
 1 20 9 -1.54 0.00
 2 20 9 -0.41 0.00
 3 20 9 3.54 0.00
 4 20 9 7.09 0.00
 5 20 9 -10.07 0.00
 6 20 9 -2.24 0.00
 7 20 9 -0.42 0.00
 8 20 9 9.51 0.00
 9 20 9 -5.24 0.00
 10 20 9 -0.81 0.00
 11 20 9 -0.88 0.00
 12 20 9 0.01 0.00
 13 20 9 5.64 0.00
 14 20 9 -0.87 0.00
 15 20 9 -8.68 0.00
 16 20 9 -0.25 0.00
 17 20 9 2.45 0.00
 18 20 9 -1.92 0.00
 19 20 9 -0.93 0.00
 20 20 9 -6.19 0.00
 21 20 9 6.72 0.00
 22 20 9 6.14 0.00
 0 21 9 8.94 0.00
 1 21 9 -3.66 0.00
 2 21 9 -10.65 0.00
 3 21 9 -1.26 0.00
 4 21 9 -3.63 0.00
 5 21 9 -0.29 0.00
 6 21 9 5.95 0.00
 7 21 9 -7.14 0.00
 8 21 9 4.70 0.00
 9 21 9 2.73 0.00
 10 21 9 -0.66 0.00
 11 21 9 -1.65 0.00
 12 21 9 -2.89 0.00
 13 21 9 0.97 0.00
 14 21 9 -0.67 0.00
 15 21 9 4.90 0.00
 16 21 9 -3.62 0.00
 17 21 9 5.43 0.00
 18 21 9 -2.85 0.00
 19 21 9 -3.48 0.00
 20 21 9 2.26 0.00
 21 21 9 4.46 0.00
 22 21 9 5.29 0.00
 1 22 9 -0.04 0.00
 2 22 9 1.45 0.00
 3 22 9 -2.01 0.00
 4 22 9 -7.22 0.00
 5 22 9 1.21 0.00
 6 22 9 -0.86 0.00
 7 22 9 2.70 0.00
 8 22 9 -4.04 0.00
 9 22 9 11.41 0.00
 10 22 9 -3.61 0.00
 11 22 9 -2.53 0.00
 12 22 9 4.35 0.00
 13 22 9 3.67 0.00
 14 22 9 2.69 0.00
 15 22 9 2.18 0.00
 16 22 9 -3.80 0.00
 17 22 9 5.70 0.00
 18 22 9 3.04 0.00
 19 22 9 0.09 0.00
 20 22 9 3.24 0.00
 21 22 9 -5.82 0.00
 0 23 9 9.50 0.00
 1 23 9 5.53 0.00
 2 23 9 -3.03 0.00
 3 23 9 1.63 0.00
 4 23 9 11.41 0.00
 5 23 9 4.19 0.00
 6 23 9 -0.34 0.00
 7 23 9 -6.75 0.00
 8 23 9 -9.64 0.00
 9 23 9 7.69 0.00
 10 23 9 6.00 0.00
 11 23 9 -7.26 0.00
 12 23 9 -1.03 0.00
 13 23 9 4.69 0.00
 14 23 9 5.66 0.00
 15 23 9 -8.49 0.00
 16 23 9 2.66 0.00
 17 23 9 1.92 0.00
 18 23 9 2.97 0.00
 19 23 9 -5.76 0.00
 20 23 9 -4.85 0.00
 1 24 9 0.90 0.00
 2 24 9 -0.84 0.00
 3 24 9 4.60 0.00
 4 24 9 -4.15 0.00
 5 24 9 3.82 0.00
 6 24 9 6.02 0.00
 7 24 9 -11.54 0.00
 8 24 9 1.99 0.00
 9 24 9 -4.29 0.00
 10 24 9 -2.95 0.00
 11 24 9 -1.03 0.00
 12 24 9 -1.38 0.00
 13 24 9 -8.25 0.00
 14 24 9 1.26 0.00
 15 24 9 -0.92 0.00
 16 24 9 -2.70 0.00
 17 24 9 -3.64 0.00
 18 24 9 2.61 0.00
 19 24 9 1.24 0.00
 20 24 9 -1.59 0.00
 0 25 9 8.69 0.00
 1 25 9 -6.80 0.00
 2 25 9 -7.06 0.00
 3 25 9 -6.42 0.00
 4 25 9 -1.77 0.00
 5 25 9 1.24 0.00
 6 25 9 -2.39 0.00
 7 25 9 3.79 0.00
 8 25 9 1.59 0.00
 9 25 9 -7.75 0.00
 10 25 9 4.82 0.00
 11 25 9 6.99 0.00
 12 25 9 -6.10 0.00
 13 25 9 3.48 0.00
 14 25 9 -2.80 0.00
 15 25 9 -3.07 0.00
 16 25 9 -1.19 0.00
 17 25 9 6.86 0.00
 18 25 9 -4.94 0.00
 19 25 9 1.99 0.00
 1 26 9 -6.42 0.00
 2 26 9 -0.81 0.00
 3 26 9 -1.94 0.00
 4 26 9 7.93 0.00
 5 26 9 -1.45 0.00
 6 26 9 1.09 0.00
 7 26 9 8.75 0.00
 8 26 9 -3.71 0.00
 9 26 9 2.93 0.00
 10 26 9 3.68 0.00
 11 26 9 -0.01 0.00
 12 26 9 -1.01 0.00
 13 26 9 4.92 0.00
 14 26 9 4.13 0.00
 15 26 9 7.15 0.00
 16 26 9 -3.96 0.00
 17 26 9 -8.57 0.00
 18 26 9 -1.09 0.00
 0 27 9 -17.18 0.00
 1 27 9 7.91 0.00
 2 27 9 7.97 0.00
 3 27 9 2.37 0.00
 4 27 9 -0.18 0.00
 5 27 9 0.41 0.00
 6 27 9 -2.08 0.00
 7 27 9 8.11 0.00
 8 27 9 2.12 0.00
 9 27 9 -3.32 0.00
 10 27 9 -3.71 0.00
 11 27 9 -2.95 0.00
 12 27 9 2.21 0.00
 13 27 9 -2.55 0.00
 14 27 9 -2.54 0.00
 15 27 9 -3.64 0.00
 16 27 9 9.87 0.00
 17 27 9 -2.26 0.00
 1 28 9 -0.85 0.00
 2 28 9 -4.39 0.00
 3 28 9 1.36 0.00
 4 28 9 -2.61 0.00
 5 28 9 -7.28 0.00
 6 28 9 -1.65 0.00
 7 28 9 0.77 0.00
 8 28 9 -1.55 0.00
 9 28 9 0.40 0.00
 10 28 9 0.44 0.00
 11 28 9 -5.45 0.00
 12 28 9 2.83 0.00
 13 28 9 0.97 0.00
 14 28 9 -7.51 0.00
 15 28 9 0.91 0.00
 16 28 9 6.06 0.00
 0 29 9 9.76 0.00
 1 29 9 3.66 0.00
 2 29 9 -0.88 0.00
 3 29 9 -10.60 0.00
 4 29 9 0.23 0.00
 5 29 9 -0.94 0.00
 6 29 9 0.08 0.00
 7 29 9 -7.64 0.00
 8 29 9 1.24 0.00
 9 29 9 2.79 0.00
 10 29 9 -0.24 0.00
 11 29 9 4.60 0.00
 12 29 9 6.72 0.00
 13 29 9 -0.78 0.00
 14 29 9 -7.11 0.00
 15 29 9 8.23 0.00
 1 30 9 3.31 0.00
 2 30 9 5.47 0.00
 3 30 9 3.19 0.00
 4 30 9 -0.63 0.00
 5 30 9 10.85 0.00
 6 30 9 0.00 0.00
 7 30 9 -6.29 0.00
 8 30 9 -1.32 0.00
 9 30 9 0.49 0.00
 10 30 9 1.07 0.00
 11 30 9 4.86 0.00
 12 30 9 -1.32 0.00
 13 30 9 -1.78 0.00
 14 30 9 2.95 0.00
 0 31 9 -2.41 0.00
 1 31 9 -5.45 0.00
 2 31 9 -5.81 0.00
 3 31 9 0.89 0.00
 4 31 9 4.79 0.00
 5 31 9 6.67 0.00
 6 31 9 0.57 0.00
 7 31 9 2.64 0.00
 8 31 9 -4.37 0.00
 9 31 9 -1.43 0.00
 10 31 9 0.59 0.00
 11 31 9 -3.72 0.00
 12 31 9 -2.61 0.00
 1 32 9 -4.63 0.00
 2 32 9 -1.22 0.00
 3 32 9 -4.31 0.00
 4 32 9 1.17 0.00
 5 32 9 -4.61 0.00
 6 32 9 0.44 0.00
 7 32 9 -3.31 0.00
 8 32 9 2.64 0.00
 9 32 9 5.59 0.00
 10 32 9 3.28 0.00
 11 32 9 -6.35 0.00
 0 33 9 -4.76 0.00
 1 33 9 4.92 0.00
 2 33 9 8.93 0.00
 3 33 9 2.42 0.00
 4 33 9 -7.60 0.00
 5 33 9 -1.17 0.00
 6 33 9 3.65 0.00
 7 33 9 -4.35 0.00
 8 33 9 -0.88 0.00
 9 33 9 6.32 0.00
 1 34 9 2.44 0.00
 2 34 9 5.75 0.00
 3 34 9 1.64 0.00
 4 34 9 -11.23 0.00
 5 34 9 3.37 0.00
 6 34 9 5.70 0.00
 0 0 10 -2.41 0.00
 2 0 10 37.70 0.00
 4 0 10 -42.25 0.00
 6 0 10 -1.24 0.00
 8 0 10 -13.65 0.00
 10 0 10 -6.40 0.00
 12 0 10 9.45 0.00
 14 0 10 -17.31 0.00
 16 0 10 23.91 0.00
 18 0 10 5.95 0.00
 20 0 10 -16.87 0.00
 22 0 10 7.02 0.00
 24 0 10 -3.74 0.00
 26 0 10 5.65 0.00
 1 1 10 -12.54 0.00
 2 1 10 21.85 0.00
 3 1 10 0.41 0.00
 4 1 10 43.70 0.00
 5 1 10 -7.69 0.00
 6 1 10 -15.56 0.00
 7 1 10 1.35 0.00
 8 1 10 21.78 0.00
 9 1 10 -4.91 0.00
 10 1 10 -0.78 0.00
 11 1 10 5.13 0.00
 12 1 10 21.00 0.00
 13 1 10 -1.67 0.00
 14 1 10 -30.35 0.00
 15 1 10 -7.38 0.00
 16 1 10 26.12 0.00
 17 1 10 2.47 0.00
 18 1 10 -3.86 0.00
 19 1 10 0.76 0.00
 20 1 10 5.65 0.00
 21 1 10 -4.33 0.00
 22 1 10 13.52 0.00
 23 1 10 -2.33 0.00
 24 1 10 -5.73 0.00
 25 1 10 -0.19 0.00
 26 1 10 5.06 0.00
 27 1 10 0.57 0.00
 0 2 10 -11.15 0.00
 1 2 10 8.06 0.00
 2 2 10 -4.08 0.00
 3 2 10 -27.52 0.00
 4 2 10 18.52 0.00
 5 2 10 2.95 0.00
 6 2 10 5.49 0.00
 7 2 10 -13.41 0.00
 8 2 10 5.88 0.00
 9 2 10 -3.30 0.00
 10 2 10 -0.01 0.00
 11 2 10 -5.70 0.00
 12 2 10 -0.34 0.00
 13 2 10 10.82 0.00
 14 2 10 3.79 0.00
 15 2 10 -1.24 0.00
 16 2 10 -12.71 0.00
 17 2 10 -2.11 0.00
 18 2 10 5.20 0.00
 19 2 10 8.00 0.00
 20 2 10 -7.04 0.00
 21 2 10 1.33 0.00
 22 2 10 10.51 0.00
 23 2 10 4.53 0.00
 24 2 10 -2.63 0.00
 25 2 10 -8.13 0.00
 26 2 10 -2.35 0.00
 27 2 10 5.10 0.00
 1 3 10 -12.76 0.00
 2 3 10 -30.93 0.00
 3 3 10 22.11 0.00
 4 3 10 17.44 0.00
 5 3 10 11.19 0.00
 6 3 10 -16.90 0.00
 7 3 10 5.26 0.00
 8 3 10 -5.62 0.00
 9 3 10 4.03 0.00
 10 3 10 -9.61 0.00
 11 3 10 -4.37 0.00
 12 3 10 -1.87 0.00
 13 3 10 10.65 0.00
 14 3 10 -11.80 0.00
 15 3 10 5.34 0.00
 16 3 10 12.35 0.00
 17 3 10 5.20 0.00
 18 3 10 -4.88 0.00
 19 3 10 -8.59 0.00
 20 3 10 -1.98 0.00
 21 3 10 14.49 0.00
 22 3 10 -4.63 0.00
 23 3 10 1.97 0.00
 24 3 10 1.32 0.00
 25 3 10 4.17 0.00
 26 3 10 -4.62 0.00
 27 3 10 -1.98 0.00
 0 4 10 2.11 0.00
 1 4 10 -1.94 0.00
 2 4 10 -27.03 0.00
 3 4 10 28.75 0.00
 4 4 10 -1.21 0.00
 5 4 10 2.26 0.00
 6 4 10 7.83 0.00
 7 4 10 11.30 0.00
 8 4 10 -1.13 0.00
 9 4 10 16.31 0.00
 10 4 10 10.53 0.00
 11 4 10 -4.13 0.00
 12 4 10 -3.44 0.00
 13 4 10 -2.86 0.00
 14 4 10 10.35 0.00
 15 4 10 -1.54 0.00
 16 4 10 -19.22 0.00
 17 4 10 2.22 0.00
 18 4 10 17.68 0.00
 19 4 10 -8.47 0.00
 20 4 10 -6.25 0.00
 21 4 10 -11.36 0.00
 22 4 10 -4.67 0.00
 23 4 10 3.63 0.00
 24 4 10 3.45 0.00
 25 4 10 1.15 0.00
 26 4 10 -5.51 0.00
 1 5 10 4.70 0.00
 2 5 10 3.72 0.00
 3 5 10 -5.70 0.00
 4 5 10 -30.86 0.00
 5 5 10 -21.08 0.00
 6 5 10 22.96 0.00
 7 5 10 -18.58 0.00
 8 5 10 -13.79 0.00
 9 5 10 4.52 0.00
 10 5 10 30.57 0.00
 11 5 10 -7.26 0.00
 12 5 10 -5.30 0.00
 13 5 10 -14.65 0.00
 14 5 10 11.73 0.00
 15 5 10 -5.36 0.00
 16 5 10 -5.91 0.00
 17 5 10 -0.19 0.00
 18 5 10 -7.06 0.00
 19 5 10 -2.80 0.00
 20 5 10 -1.10 0.00
 21 5 10 0.22 0.00
 22 5 10 -0.73 0.00
 23 5 10 -15.90 0.00
 24 5 10 1.54 0.00
 25 5 10 2.77 0.00
 26 5 10 -0.39 0.00
 0 6 10 23.00 0.00
 1 6 10 -16.99 0.00
 2 6 10 27.87 0.00
 3 6 10 -8.86 0.00
 4 6 10 -9.38 0.00
 5 6 10 -2.68 0.00
 6 6 10 -1.08 0.00
 7 6 10 -13.11 0.00
 8 6 10 -22.40 0.00
 9 6 10 -14.34 0.00
 10 6 10 2.98 0.00
 11 6 10 4.35 0.00
 12 6 10 -12.49 0.00
 13 6 10 -0.38 0.00
 14 6 10 2.44 0.00
 15 6 10 -7.14 0.00
 16 6 10 7.48 0.00
 17 6 10 9.56 0.00
 18 6 10 -5.45 0.00
 19 6 10 3.88 0.00
 20 6 10 2.41 0.00
 21 6 10 8.09 0.00
 22 6 10 1.96 0.00
 23 6 10 4.45 0.00
 24 6 10 8.35 0.00
 25 6 10 -2.72 0.00
 26 6 10 -6.74 0.00
 1 7 10 9.54 0.00
 2 7 10 16.32 0.00
 3 7 10 -21.36 0.00
 4 7 10 8.83 0.00
 5 7 10 25.12 0.00
 6 7 10 -1.20 0.00
 7 7 10 29.19 0.00
 8 7 10 -6.40 0.00
 9 7 10 -11.47 0.00
 10 7 10 -11.73 0.00
 11 7 10 16.64 0.00
 12 7 10 -6.62 0.00
 13 7 10 12.08 0.00
 14 7 10 -3.64 0.00
 15 7 10 3.07 0.00
 16 7 10 3.77 0.00
 17 7 10 3.67 0.00
 18 7 10 5.32 0.00
 19 7 10 -1.87 0.00
 20 7 10 0.22 0.00
 21 7 10 4.98 0.00
 22 7 10 8.76 0.00
 23 7 10 1.44 0.00
 24 7 10 -2.45 0.00
 25 7 10 8.37 0.00
 26 7 10 3.82 0.00
 0 8 10 -57.33 0.00
 1 8 10 24.45 0.00
 2 8 10 12.99 0.00
 3 8 10 2.88 0.00
 4 8 10 -9.92 0.00
 5 8 10 -2.42 0.00
 6 8 10 7.36 0.00
 7 8 10 5.98 0.00
 8 8 10 14.89 0.00
 9 8 10 13.43 0.00
 10 8 10 -2.07 0.00
 11 8 10 0.44 0.00
 12 8 10 10.73 0.00
 13 8 10 0.77 0.00
 14 8 10 -1.08 0.00
 15 8 10 0.94 0.00
 16 8 10 3.65 0.00
 17 8 10 -3.13 0.00
 18 8 10 -6.12 0.00
 19 8 10 -3.30 0.00
 20 8 10 5.91 0.00
 21 8 10 -10.41 0.00
 22 8 10 -8.21 0.00
 23 8 10 0.68 0.00
 24 8 10 -5.47 0.00
 25 8 10 0.45 0.00
 26 8 10 7.92 0.00
 1 9 10 33.62 0.00
 2 9 10 -23.63 0.00
 3 9 10 2.31 0.00
 4 9 10 22.21 0.00
 5 9 10 -15.70 0.00
 6 9 10 -8.09 0.00
 7 9 10 -9.48 0.00
 8 9 10 14.20 0.00
 9 9 10 -10.77 0.00
 10 9 10 1.84 0.00
 11 9 10 -2.83 0.00
 12 9 10 4.97 0.00
 13 9 10 -2.21 0.00
 14 9 10 2.29 0.00
 15 9 10 -11.66 0.00
 16 9 10 -5.08 0.00
 17 9 10 0.54 0.00
 18 9 10 5.22 0.00
 19 9 10 1.37 0.00
 20 9 10 -6.92 0.00
 21 9 10 -1.21 0.00
 22 9 10 -3.82 0.00
 23 9 10 1.06 0.00
 24 9 10 -1.99 0.00
 25 9 10 -4.06 0.00
 26 9 10 -0.34 0.00
 0 10 10 12.38 0.00
 1 10 10 -16.48 0.00
 2 10 10 -1.06 0.00
 3 10 10 -9.91 0.00
 4 10 10 6.96 0.00
 5 10 10 9.52 0.00
 6 10 10 -16.09 0.00
 7 10 10 -1.05 0.00
 8 10 10 18.18 0.00
 9 10 10 -9.99 0.00
 10 10 10 -11.02 0.00
 11 10 10 -6.36 0.00
 12 10 10 -5.61 0.00
 13 10 10 7.16 0.00
 14 10 10 2.00 0.00
 15 10 10 0.15 0.00
 16 10 10 -11.79 0.00
 17 10 10 -0.78 0.00
 18 10 10 6.35 0.00
 19 10 10 1.47 0.00
 20 10 10 -0.65 0.00
 21 10 10 7.54 0.00
 22 10 10 -2.51 0.00
 23 10 10 -2.79 0.00
 24 10 10 1.29 0.00
 25 10 10 -1.88 0.00
 1 11 10 -9.85 0.00
 2 11 10 1.28 0.00
 3 11 10 -10.34 0.00
 4 11 10 -10.64 0.00
 5 11 10 7.99 0.00
 6 11 10 -13.78 0.00
 7 11 10 5.25 0.00
 8 11 10 -5.84 0.00
 9 11 10 8.75 0.00
 10 11 10 4.63 0.00
 11 11 10 -9.06 0.00
 12 11 10 -5.53 0.00
 13 11 10 2.60 0.00
 14 11 10 5.38 0.00
 15 11 10 7.36 0.00
 16 11 10 -8.25 0.00
 17 11 10 0.74 0.00
 18 11 10 4.11 0.00
 19 11 10 -1.80 0.00
 20 11 10 2.56 0.00
 21 11 10 -2.83 0.00
 22 11 10 -0.24 0.00
 23 11 10 -1.81 0.00
 24 11 10 1.45 0.00
 25 11 10 1.61 0.00
 0 12 10 7.40 0.00
 1 12 10 6.19 0.00
 2 12 10 -9.28 0.00
 3 12 10 6.50 0.00
 4 12 10 12.11 0.00
 5 12 10 -10.92 0.00
 6 12 10 -3.07 0.00
 7 12 10 3.56 0.00
 8 12 10 -18.00 0.00
 9 12 10 4.11 0.00
 10 12 10 6.67 0.00
 11 12 10 1.27 0.00
 12 12 10 2.19 0.00
 13 12 10 -3.88 0.00
 14 12 10 8.89 0.00
 15 12 10 -3.13 0.00
 16 12 10 -1.23 0.00
 17 12 10 3.05 0.00
 18 12 10 -1.79 0.00
 19 12 10 1.77 0.00
 20 12 10 9.97 0.00
 21 12 10 -0.06 0.00
 22 12 10 -0.83 0.00
 23 12 10 0.90 0.00
 24 12 10 1.94 0.00
 25 12 10 2.95 0.00
 1 13 10 -4.35 0.00
 2 13 10 -0.88 0.00
 3 13 10 8.64 0.00
 4 13 10 6.24 0.00
 5 13 10 -1.87 0.00
 6 13 10 22.12 0.00
 7 13 10 -9.58 0.00
 8 13 10 -0.79 0.00
 9 13 10 6.01 0.00
 10 13 10 -4.01 0.00
 11 13 10 9.61 0.00
 12 13 10 -4.79 0.00
 13 13 10 -5.70 0.00
 14 13 10 10.30 0.00
 15 13 10 1.96 0.00
 16 13 10 -2.33 0.00
 17 13 10 -5.18 0.00
 18 13 10 -1.21 0.00
 19 13 10 4.69 0.00
 20 13 10 -0.22 0.00
 21 13 10 2.21 0.00
 22 13 10 4.18 0.00
 23 13 10 3.08 0.00
 24 13 10 -4.03 0.00
 25 13 10 3.98 0.00
 0 14 10 15.76 0.00
 1 14 10 0.26 0.00
 2 14 10 -3.50 0.00
 3 14 10 8.77 0.00
 4 14 10 -11.54 0.00
 5 14 10 0.00 0.00
 6 14 10 10.02 0.00
 7 14 10 6.09 0.00
 8 14 10 5.87 0.00
 9 14 10 -10.52 0.00
 10 14 10 5.98 0.00
 11 14 10 12.30 0.00
 12 14 10 -10.31 0.00
 13 14 10 -5.01 0.00
 14 14 10 -6.38 0.00
 15 14 10 3.44 0.00
 16 14 10 7.59 0.00
 17 14 10 -1.74 0.00
 18 14 10 -4.36 0.00
 19 14 10 -9.53 0.00
 20 14 10 -4.32 0.00
 21 14 10 0.71 0.00
 22 14 10 -4.70 0.00
 23 14 10 -6.84 0.00
 24 14 10 1.27 0.00
 1 15 10 1.47 0.00
 2 15 10 5.11 0.00
 3 15 10 -0.68 0.00
 4 15 10 4.83 0.00
 5 15 10 0.60 0.00
 6 15 10 -30.02 0.00
 7 15 10 7.63 0.00
 8 15 10 15.02 0.00
 9 15 10 -10.80 0.00
 10 15 10 -7.27 0.00
 11 15 10 -3.81 0.00
 12 15 10 7.43 0.00
 13 15 10 2.13 0.00
 14 15 10 -7.29 0.00
 15 15 10 -3.28 0.00
 16 15 10 -3.96 0.00
 17 15 10 4.14 0.00
 18 15 10 2.63 0.00
 19 15 10 -1.91 0.00
 20 15 10 -4.80 0.00
 21 15 10 -2.55 0.00
 22 15 10 0.82 0.00
 23 15 10 -7.09 0.00
 24 15 10 -2.27 0.00
 0 16 10 -17.73 0.00
 1 16 10 1.70 0.00
 2 16 10 -2.40 0.00
 3 16 10 -23.67 0.00
 4 16 10 12.92 0.00
 5 16 10 6.25 0.00
 6 16 10 -5.42 0.00
 7 16 10 -0.90 0.00
 8 16 10 -5.11 0.00
 9 16 10 -5.23 0.00
 10 16 10 2.09 0.00
 11 16 10 -1.45 0.00
 12 16 10 4.78 0.00
 13 16 10 2.07 0.00
 14 16 10 2.71 0.00
 15 16 10 0.09 0.00
 16 16 10 -5.34 0.00
 17 16 10 0.53 0.00
 18 16 10 5.65 0.00
 19 16 10 7.65 0.00
 20 16 10 -7.71 0.00
 21 16 10 10.11 0.00
 22 16 10 9.88 0.00
 23 16 10 -1.49 0.00
 24 16 10 -4.23 0.00
 1 17 10 -10.69 0.00
 2 17 10 -4.26 0.00
 3 17 10 6.31 0.00
 4 17 10 -5.02 0.00
 5 17 10 -4.44 0.00
 6 17 10 6.28 0.00
 7 17 10 6.09 0.00
 8 17 10 8.11 0.00
 9 17 10 -6.51 0.00
 10 17 10 -6.38 0.00
 11 17 10 12.89 0.00
 12 17 10 2.84 0.00
 13 17 10 -4.66 0.00
 14 17 10 3.61 0.00
 15 17 10 3.31 0.00
 16 17 10 0.29 0.00
 17 17 10 -3.88 0.00
 18 17 10 8.68 0.00
 19 17 10 2.02 0.00
 20 17 10 -1.58 0.00
 21 17 10 1.43 0.00
 22 17 10 0.89 0.00
 23 17 10 4.73 0.00
 0 18 10 10.83 0.00
 1 18 10 0.94 0.00
 2 18 10 3.96 0.00
 3 18 10 5.62 0.00
 4 18 10 -1.42 0.00
 5 18 10 8.15 0.00
 6 18 10 -5.86 0.00
 7 18 10 -7.84 0.00
 8 18 10 0.93 0.00
 9 18 10 7.61 0.00
 10 18 10 -0.73 0.00
 11 18 10 1.88 0.00
 12 18 10 -7.21 0.00
 13 18 10 -8.09 0.00
 14 18 10 7.12 0.00
 15 18 10 7.95 0.00
 16 18 10 -3.56 0.00
 17 18 10 -9.15 0.00
 18 18 10 5.26 0.00
 19 18 10 -0.91 0.00
 20 18 10 0.70 0.00
 21 18 10 -7.88 0.00
 22 18 10 0.50 0.00
 23 18 10 -1.39 0.00
 1 19 10 -8.06 0.00
 2 19 10 5.32 0.00
 3 19 10 2.90 0.00
 4 19 10 -3.40 0.00
 5 19 10 -5.26 0.00
 6 19 10 10.32 0.00
 7 19 10 -3.69 0.00
 8 19 10 -15.29 0.00
 9 19 10 1.07 0.00
 10 19 10 4.23 0.00
 11 19 10 -0.58 0.00
 12 19 10 -0.65 0.00
 13 19 10 -8.16 0.00
 14 19 10 -0.07 0.00
 15 19 10 6.28 0.00
 16 19 10 -4.62 0.00
 17 19 10 -1.44 0.00
 18 19 10 -2.15 0.00
 19 19 10 -0.04 0.00
 20 19 10 0.13 0.00
 21 19 10 -3.66 0.00
 22 19 10 -2.85 0.00
 0 20 10 -12.05 0.00
 1 20 10 5.39 0.00
 2 20 10 5.58 0.00
 3 20 10 -0.18 0.00
 4 20 10 -10.61 0.00
 5 20 10 -4.82 0.00
 6 20 10 12.80 0.00
 7 20 10 6.25 0.00
 8 20 10 -4.66 0.00
 9 20 10 -2.12 0.00
 10 20 10 7.77 0.00
 11 20 10 -1.00 0.00
 12 20 10 -1.58 0.00
 13 20 10 1.37 0.00
 14 20 10 -3.81 0.00
 15 20 10 2.17 0.00
 16 20 10 0.91 0.00
 17 20 10 2.72 0.00
 18 20 10 -4.85 0.00
 19 20 10 0.51 0.00
 20 20 10 0.82 0.00
 21 20 10 3.35 0.00
 22 20 10 -3.68 0.00
 1 21 10 -6.06 0.00
 2 21 10 0.17 0.00
 3 21 10 8.71 0.00
 4 21 10 0.41 0.00
 5 21 10 1.66 0.00
 6 21 10 -1.39 0.00
 7 21 10 6.85 0.00
 8 21 10 5.55 0.00
 9 21 10 -3.87 0.00
 10 21 10 -3.04 0.00
 11 21 10 4.08 0.00
 12 21 10 -1.29 0.00
 13 21 10 1.94 0.00
 14 21 10 -1.46 0.00
 15 21 10 -4.02 0.00
 16 21 10 0.33 0.00
 17 21 10 0.83 0.00
 18 21 10 0.46 0.00
 19 21 10 6.85 0.00
 20 21 10 -0.27 0.00
 21 21 10 -3.40 0.00
 0 22 10 -1.07 0.00
 1 22 10 -5.24 0.00
 2 22 10 0.65 0.00
 3 22 10 -6.66 0.00
 4 22 10 -1.58 0.00
 5 22 10 4.15 0.00
 6 22 10 0.38 0.00
 7 22 10 -8.73 0.00
 8 22 10 1.94 0.00
 9 22 10 -0.53 0.00
 10 22 10 -5.23 0.00
 11 22 10 4.50 0.00
 12 22 10 0.70 0.00
 13 22 10 -3.12 0.00
 14 22 10 2.46 0.00
 15 22 10 -5.49 0.00
 16 22 10 2.14 0.00
 17 22 10 -1.56 0.00
 18 22 10 1.12 0.00
 19 22 10 2.50 0.00
 20 22 10 -0.66 0.00
 1 23 10 -5.74 0.00
 2 23 10 -3.03 0.00
 3 23 10 5.20 0.00
 4 23 10 -2.27 0.00
 5 23 10 -6.92 0.00
 6 23 10 -5.80 0.00
 7 23 10 -2.87 0.00
 8 23 10 5.22 0.00
 9 23 10 3.90 0.00
 10 23 10 -3.41 0.00
 11 23 10 -6.23 0.00
 12 23 10 11.72 0.00
 13 23 10 10.00 0.00
 14 23 10 -0.92 0.00
 15 23 10 -3.19 0.00
 16 23 10 1.01 0.00
 17 23 10 -3.71 0.00
 18 23 10 0.93 0.00
 19 23 10 -2.94 0.00
 20 23 10 4.16 0.00
 0 24 10 5.55 0.00
 1 24 10 4.50 0.00
 2 24 10 3.59 0.00
 3 24 10 -2.79 0.00
 4 24 10 0.93 0.00
 5 24 10 8.40 0.00
 6 24 10 -4.78 0.00
 7 24 10 1.99 0.00
 8 24 10 1.48 0.00
 9 24 10 1.65 0.00
 10 24 10 3.34 0.00
 11 24 10 -5.13 0.00
 12 24 10 -5.96 0.00
 13 24 10 4.34 0.00
 14 24 10 5.64 0.00
 15 24 10 5.98 0.00
 16 24 10 -4.63 0.00
 17 24 10 1.57 0.00
 18 24 10 0.60 0.00
 19 24 10 -3.17 0.00
 1 25 10 -8.67 0.00
 2 25 10 2.07 0.00
 3 25 10 4.13 0.00
 4 25 10 7.56 0.00
 5 25 10 -5.61 0.00
 6 25 10 3.21 0.00
 7 25 10 0.69 0.00
 8 25 10 -6.96 0.00
 9 25 10 5.48 0.00
 10 25 10 5.55 0.00
 11 25 10 -9.83 0.00
 12 25 10 -10.37 0.00
 13 25 10 -3.43 0.00
 14 25 10 -2.68 0.00
 15 25 10 2.96 0.00
 16 25 10 0.79 0.00
 17 25 10 2.25 0.00
 18 25 10 0.58 0.00
 0 26 10 -10.78 0.00
 1 26 10 0.49 0.00
 2 26 10 -1.53 0.00
 3 26 10 4.21 0.00
 4 26 10 -0.52 0.00
 5 26 10 -4.80 0.00
 6 26 10 4.73 0.00
 7 26 10 -4.79 0.00
 8 26 10 -8.35 0.00
 9 26 10 4.66 0.00
 10 26 10 2.84 0.00
 11 26 10 -0.91 0.00
 12 26 10 0.36 0.00
 13 26 10 1.64 0.00
 14 26 10 4.45 0.00
 15 26 10 -7.70 0.00
 16 26 10 -9.35 0.00
 17 26 10 1.26 0.00
 1 27 10 8.24 0.00
 2 27 10 -5.67 0.00
 3 27 10 1.79 0.00
 4 27 10 -2.42 0.00
 5 27 10 0.07 0.00
 6 27 10 5.35 0.00
 7 27 10 3.45 0.00
 8 27 10 -7.63 0.00
 9 27 10 -1.06 0.00
 10 27 10 2.76 0.00
 11 27 10 6.44 0.00
 12 27 10 0.32 0.00
 13 27 10 0.18 0.00
 14 27 10 4.93 0.00
 15 27 10 4.01 0.00
 16 27 10 -3.13 0.00
 0 28 10 3.01 0.00
 1 28 10 -5.32 0.00
 2 28 10 1.05 0.00
 3 28 10 -0.26 0.00
 4 28 10 -5.08 0.00
 5 28 10 0.17 0.00
 6 28 10 9.96 0.00
 7 28 10 3.14 0.00
 8 28 10 -2.24 0.00
 9 28 10 -4.64 0.00
 10 28 10 3.97 0.00
 11 28 10 3.25 0.00
 12 28 10 -3.01 0.00
 13 28 10 -6.19 0.00
 14 28 10 -0.63 0.00
 15 28 10 4.70 0.00
 1 29 10 -8.38 0.00
 2 29 10 -4.69 0.00
 3 29 10 0.55 0.00
 4 29 10 1.34 0.00
 5 29 10 -2.53 0.00
 6 29 10 -3.28 0.00
 7 29 10 2.47 0.00
 8 29 10 4.75 0.00
 9 29 10 -3.05 0.00
 10 29 10 4.43 0.00
 11 29 10 -0.19 0.00
 12 29 10 -4.58 0.00
 13 29 10 -5.83 0.00
 14 29 10 5.99 0.00
 0 30 10 4.40 0.00
 1 30 10 7.88 0.00
 2 30 10 2.85 0.00
 3 30 10 -2.59 0.00
 4 30 10 5.35 0.00
 5 30 10 -2.70 0.00
 6 30 10 -7.61 0.00
 7 30 10 2.22 0.00
 8 30 10 -6.04 0.00
 9 30 10 0.90 0.00
 10 30 10 7.47 0.00
 11 30 10 -0.35 0.00
 12 30 10 -3.67 0.00
 13 30 10 4.19 0.00
 1 31 10 -0.44 0.00
 2 31 10 5.60 0.00
 3 31 10 7.67 0.00
 4 31 10 3.46 0.00
 5 31 10 -4.72 0.00
 6 31 10 0.61 0.00
 7 31 10 -5.46 0.00
 8 31 10 -4.49 0.00
 9 31 10 4.65 0.00
 10 31 10 -1.50 0.00
 11 31 10 -0.81 0.00
 0 32 10 -8.68 0.00
 1 32 10 -8.16 0.00
 2 32 10 -4.35 0.00
 3 32 10 5.86 0.00
 4 32 10 -6.74 0.00
 5 32 10 -0.25 0.00
 6 32 10 4.19 0.00
 7 32 10 0.35 0.00
 8 32 10 3.70 0.00
 9 32 10 0.25 0.00
 1 33 10 3.89 0.00
 2 33 10 -2.80 0.00
 3 33 10 -11.56 0.00
 4 33 10 -2.82 0.00
 5 33 10 13.71 0.00
 6 33 10 -1.00 0.00
 7 33 10 -2.56 0.00
 0 34 10 4.73 0.00
 1 34 10 5.92 0.00
 2 34 10 7.94 0.00
 3 34 10 -6.26 0.00
 1 0 11 15.30 0.00
 3 0 11 -46.22 0.00
 5 0 11 12.88 0.00
 7 0 11 9.57 0.00
 9 0 11 1.63 0.00
 11 0 11 11.36 0.00
 13 0 11 -10.91 0.00
 15 0 11 19.41 0.00
 17 0 11 -10.79 0.00
 19 0 11 -22.94 0.00
 21 0 11 -2.02 0.00
 23 0 11 -4.64 0.00
 25 0 11 -6.81 0.00
 0 1 11 -6.19 0.00
 1 1 11 31.98 0.00
 2 1 11 10.09 0.00
 3 1 11 14.73 0.00
 4 1 11 1.35 0.00
 5 1 11 -35.14 0.00
 6 1 11 8.58 0.00
 7 1 11 7.65 0.00
 8 1 11 -3.70 0.00
 9 1 11 -16.93 0.00
 10 1 11 1.86 0.00
 11 1 11 1.91 0.00
 12 1 11 0.14 0.00
 13 1 11 -40.15 0.00
 14 1 11 -4.56 0.00
 15 1 11 22.93 0.00
 16 1 11 -0.50 0.00
 17 1 11 -14.63 0.00
 18 1 11 3.50 0.00
 19 1 11 0.32 0.00
 20 1 11 -5.64 0.00
 21 1 11 -2.87 0.00
 22 1 11 -0.97 0.00
 23 1 11 -12.04 0.00
 24 1 11 4.52 0.00
 25 1 11 6.97 0.00
 26 1 11 -2.54 0.00
 1 2 11 8.22 0.00
 2 2 11 -31.79 0.00
 3 2 11 17.78 0.00
 4 2 11 21.65 0.00
 5 2 11 -14.56 0.00
 6 2 11 -12.59 0.00
 7 2 11 -4.71 0.00
 8 2 11 -1.68 0.00
 9 2 11 -8.15 0.00
 10 2 11 -3.49 0.00
 11 2 11 0.00 0.00
 12 2 11 0.54 0.00
 13 2 11 3.29 0.00
 14 2 11 -7.15 0.00
 15 2 11 -13.17 0.00
 16 2 11 -0.44 0.00
 17 2 11 12.56 0.00
 18 2 11 1.05 0.00
 19 2 11 4.73 0.00
 20 2 11 -7.45 0.00
 21 2 11 12.89 0.00
 22 2 11 6.33 0.00
 23 2 11 2.68 0.00
 24 2 11 -12.54 0.00
 25 2 11 1.54 0.00
 26 2 11 6.79 0.00
 0 3 11 -11.29 0.00
 1 3 11 -28.15 0.00
 2 3 11 -2.44 0.00
 3 3 11 26.99 0.00
 4 3 11 -17.30 0.00
 5 3 11 -13.17 0.00
 6 3 11 -10.88 0.00
 7 3 11 4.69 0.00
 8 3 11 -0.14 0.00
 9 3 11 -0.03 0.00
 10 3 11 -3.07 0.00
 11 3 11 12.62 0.00
 12 3 11 9.09 0.00
 13 3 11 5.29 0.00
 14 3 11 -3.87 0.00
 15 3 11 17.86 0.00
 16 3 11 5.19 0.00
 17 3 11 -4.63 0.00
 18 3 11 -1.57 0.00
 19 3 11 3.25 0.00
 20 3 11 10.27 0.00
 21 3 11 4.41 0.00
 22 3 11 -3.96 0.00
 23 3 11 5.15 0.00
 24 3 11 2.88 0.00
 25 3 11 -1.46 0.00
 26 3 11 -5.80 0.00
 1 4 11 -28.78 0.00
 2 4 11 23.01 0.00
 3 4 11 24.38 0.00
 4 4 11 1.90 0.00
 5 4 11 17.34 0.00
 6 4 11 2.04 0.00
 7 4 11 3.73 0.00
 8 4 11 10.07 0.00
 9 4 11 8.02 0.00
 10 4 11 9.54 0.00
 11 4 11 -9.57 0.00
 12 4 11 5.26 0.00
 13 4 11 7.03 0.00
 14 4 11 3.93 0.00
 15 4 11 -11.54 0.00
 16 4 11 6.63 0.00
 17 4 11 16.03 0.00
 18 4 11 -1.75 0.00
 19 4 11 -11.17 0.00
 20 4 11 -1.30 0.00
 21 4 11 -4.42 0.00
 22 4 11 13.87 0.00
 23 4 11 -1.39 0.00
 24 4 11 -3.61 0.00
 25 4 11 -5.69 0.00
 26 4 11 5.07 0.00
 0 5 11 29.61 0.00
 1 5 11 -0.96 0.00
 2 5 11 -8.83 0.00
 3 5 11 -14.92 0.00
 4 5 11 23.82 0.00
 5 5 11 19.12 0.00
 6 5 11 7.55 0.00
 7 5 11 -5.45 0.00
 8 5 11 11.16 0.00
 9 5 11 23.82 0.00
 10 5 11 -8.75 0.00
 11 5 11 -22.24 0.00
 12 5 11 3.18 0.00
 13 5 11 1.34 0.00
 14 5 11 -2.02 0.00
 15 5 11 -15.35 0.00
 16 5 11 1.70 0.00
 17 5 11 -3.26 0.00
 18 5 11 -9.00 0.00
 19 5 11 -2.19 0.00
 20 5 11 -1.90 0.00
 21 5 11 -2.05 0.00
 22 5 11 -8.98 0.00
 23 5 11 -1.21 0.00
 24 5 11 7.33 0.00
 25 5 11 -7.10 0.00
 26 5 11 -2.06 0.00
 1 6 11 -5.15 0.00
 2 6 11 -14.71 0.00
 3 6 11 -24.83 0.00
 4 6 11 -8.21 0.00
 5 6 11 -14.39 0.00
 6 6 11 -9.03 0.00
 7 6 11 -16.74 0.00
 8 6 11 -14.20 0.00
 9 6 11 8.08 0.00
 10 6 11 -7.64 0.00
 11 6 11 -0.81 0.00
 12 6 11 -16.86 0.00
 13 6 11 3.69 0.00
 14 6 11 -2.58 0.00
 15 6 11 4.25 0.00
 16 6 11 1.87 0.00
 17 6 11 -7.34 0.00
 18 6 11 -4.82 0.00
 19 6 11 -1.63 0.00
 20 6 11 -0.80 0.00
 21 6 11 3.88 0.00
 22 6 11 -2.83 0.00
 23 6 11 3.35 0.00
 24 6 11 -7.37 0.00
 25 6 11 -6.28 0.00
 26 6 11 -4.14 0.00
 0 7 11 13.25 0.00
 1 7 11 12.13 0.00
 2 7 11 -33.57 0.00
 3 7 11 1.27 0.00
 4 7 11 11.85 0.00
 5 7 11 -12.36 0.00
 6 7 11 -19.08 0.00
 7 7 11 -5.20 0.00
 8 7 11 -9.35 0.00
 9 7 11 -9.00 0.00
 10 7 11 5.56 0.00
 11 7 11 0.51 0.00
 12 7 11 -2.42 0.00
 13 7 11 11.41 0.00
 14 7 11 -4.08 0.00
 15 7 11 1.06 0.00
 16 7 11 6.09 0.00
 17 7 11 8.65 0.00
 18 7 11 3.71 0.00
 19 7 11 1.04 0.00
 20 7 11 6.20 0.00
 21 7 11 2.71 0.00
 22 7 11 5.88 0.00
 23 7 11 3.17 0.00
 24 7 11 0.71 0.00
 25 7 11 5.53 0.00
 1 8 11 40.41 0.00
 3 8 11 -3.24 0.00
 4 8 11 11.95 0.00
 5 8 11 15.57 0.00
 6 8 11 6.82 0.00
 7 8 11 10.49 0.00
 8 8 11 17.19 0.00
 9 8 11 -5.69 0.00
 10 8 11 11.22 0.00
 11 8 11 4.98 0.00
 12 8 11 6.75 0.00
 13 8 11 -7.79 0.00
 14 8 11 6.51 0.00
 15 8 11 3.00 0.00
 16 8 11 -3.08 0.00
 17 8 11 -4.33 0.00
 18 8 11 2.37 0.00
 19 8 11 6.78 0.00
 20 8 11 -0.49 0.00
 21 8 11 -3.46 0.00
 22 8 11 2.97 0.00
 23 8 11 0.23 0.00
 24 8 11 6.12 0.00
 25 8 11 7.17 0.00
 0 9 11 23.55 0.00
 1 9 11 -9.55 0.00
 2 9 11 1.11 0.00
 3 9 11 19.23 0.00
 4 9 11 9.90 0.00
 5 9 11 -6.51 0.00
 6 9 11 -0.89 0.00
 7 9 11 9.39 0.00
 8 9 11 12.58 0.00
 9 9 11 -2.42 0.00
 10 9 11 -1.77 0.00
 11 9 11 1.64 0.00
 12 9 11 3.24 0.00
 13 9 11 -2.89 0.00
 14 9 11 -2.83 0.00
 15 9 11 -4.90 0.00
 16 9 11 -2.70 0.00
 17 9 11 2.67 0.00
 18 9 11 -3.61 0.00
 19 9 11 -7.88 0.00
 20 9 11 -7.06 0.00
 21 9 11 0.31 0.00
 22 9 11 -0.37 0.00
 23 9 11 -2.15 0.00
 24 9 11 -6.67 0.00
 25 9 11 -4.30 0.00
 1 10 11 -9.26 0.00
 2 10 11 -9.59 0.00
 3 10 11 3.18 0.00
 4 10 11 5.06 0.00
 5 10 11 -9.77 0.00
 6 10 11 -11.00 0.00
 7 10 11 11.68 0.00
 8 10 11 -10.60 0.00
 9 10 11 -14.50 0.00
 10 10 11 -7.29 0.00
 11 10 11 1.19 0.00
 12 10 11 -2.93 0.00
 13 10 11 2.68 0.00
 14 10 11 2.07 0.00
 15 10 11 -2.54 0.00
 16 10 11 -4.93 0.00
 17 10 11 7.69 0.00
 18 10 11 2.45 0.00
 19 10 11 -4.93 0.00
 20 10 11 3.55 0.00
 21 10 11 -0.68 0.00
 22 10 11 -6.44 0.00
 23 10 11 0.78 0.00
 24 10 11 3.57 0.00
 25 10 11 -2.72 0.00
 0 11 11 -18.45 0.00
 1 11 11 -5.84 0.00
 2 11 11 -3.18 0.00
 3 11 11 -12.02 0.00
 4 11 11 1.01 0.00
 5 11 11 -0.39 0.00
 6 11 11 -11.05 0.00
 7 11 11 2.92 0.00
 8 11 11 8.47 0.00
 9 11 11 5.68 0.00
 10 11 11 -8.96 0.00
 11 11 11 -1.12 0.00
 12 11 11 0.48 0.00
 13 11 11 2.60 0.00
 14 11 11 9.48 0.00
 15 11 11 -5.22 0.00
 16 11 11 -1.92 0.00
 17 11 11 6.32 0.00
 18 11 11 2.51 0.00
 19 11 11 -1.10 0.00
 20 11 11 2.33 0.00
 21 11 11 -2.75 0.00
 22 11 11 0.63 0.00
 23 11 11 3.57 0.00
 24 11 11 3.20 0.00
 1 12 11 -9.27 0.00
 2 12 11 2.99 0.00
 3 12 11 4.42 0.00
 4 12 11 -2.39 0.00
 5 12 11 -7.19 0.00
 6 12 11 6.38 0.00
 7 12 11 -8.71 0.00
 8 12 11 -0.92 0.00
 9 12 11 10.78 0.00
 10 12 11 7.06 0.00
 11 12 11 4.93 0.00
 12 12 11 -4.47 0.00
 13 12 11 -0.16 0.00
 14 12 11 0.53 0.00
 15 12 11 -4.43 0.00
 16 12 11 -0.33 0.00
 17 12 11 -1.92 0.00
 18 12 11 2.53 0.00
 19 12 11 5.63 0.00
 20 12 11 -3.51 0.00
 21 12 11 -5.51 0.00
 22 12 11 -3.65 0.00
 23 12 11 3.71 0.00
 24 12 11 1.89 0.00
 0 13 11 -4.34 0.00
 1 13 11 8.54 0.00
 2 13 11 8.36 0.00
 3 13 11 6.89 0.00
 4 13 11 -0.44 0.00
 5 13 11 9.26 0.00
 6 13 11 -6.98 0.00
 7 13 11 -8.72 0.00
 8 13 11 3.37 0.00
 9 13 11 -7.36 0.00
 10 13 11 0.59 0.00
 11 13 11 -1.65 0.00
 12 13 11 -9.50 0.00
 13 13 11 9.06 0.00
 14 13 11 2.36 0.00
 15 13 11 -6.80 0.00
 16 13 11 -5.28 0.00
 17 13 11 0.34 0.00
 18 13 11 6.71 0.00
 19 13 11 4.19 0.00
 20 13 11 -0.33 0.00
 21 13 11 0.77 0.00
 22 13 11 0.41 0.00
 23 13 11 1.06 0.00
 24 13 11 3.48 0.00
 1 14 11 2.22 0.00
 2 14 11 3.04 0.00
 3 14 11 -11.43 0.00
 4 14 11 -5.06 0.00
 5 14 11 16.54 0.00
 6 14 11 3.97 0.00
 7 14 11 1.93 0.00
 8 14 11 -8.76 0.00
 9 14 11 -6.24 0.00
 10 14 11 13.65 0.00
 11 14 11 -7.94 0.00
 12 14 11 -8.09 0.00
 13 14 11 1.98 0.00
 14 14 11 5.07 0.00
 15 14 11 4.75 0.00
 16 14 11 -2.48 0.00
 17 14 11 -1.87 0.00
 18 14 11 -3.36 0.00
 19 14 11 1.41 0.00
 20 14 11 9.44 0.00
 21 14 11 -0.44 0.00
 22 14 11 -7.89 0.00
 23 14 11 3.50 0.00
 24 14 11 15.22 0.00
 0 15 11 0.06 0.00
 1 15 11 1.88 0.00
 2 15 11 3.17 0.00
 3 15 11 -8.10 0.00
 4 15 11 4.00 0.00
 5 15 11 -18.39 0.00
 6 15 11 8.84 0.00
 7 15 11 18.34 0.00
 8 15 11 -1.68 0.00
 9 15 11 -6.61 0.00
 10 15 11 2.15 0.00
 11 15 11 5.76 0.00
 12 15 11 10.73 0.00
 13 15 11 -7.10 0.00
 14 15 11 -4.73 0.00
 15 15 11 3.52 0.00
 16 15 11 0.72 0.00
 17 15 11 0.01 0.00
 18 15 11 -5.43 0.00
 19 15 11 -1.79 0.00
 20 15 11 -2.86 0.00
 21 15 11 2.54 0.00
 22 15 11 -6.55 0.00
 23 15 11 -6.21 0.00
 1 16 11 17.15 0.00
 2 16 11 -10.77 0.00
 3 16 11 5.59 0.00
 4 16 11 9.08 0.00
 5 16 11 -4.78 0.00
 6 16 11 1.52 0.00
 7 16 11 -3.79 0.00
 8 16 11 -2.50 0.00
 9 16 11 6.11 0.00
 10 16 11 -5.44 0.00
 11 16 11 4.67 0.00
 12 16 11 2.49 0.00
 13 16 11 -0.11 0.00
 14 16 11 0.09 0.00
 15 16 11 -6.79 0.00
 16 16 11 -0.53 0.00
 17 16 11 4.81 0.00
 18 16 11 1.51 0.00
 19 16 11 -8.49 0.00
 20 16 11 4.70 0.00
 21 16 11 4.84 0.00
 22 16 11 -12.04 0.00
 23 16 11 -7.47 0.00
 0 17 11 -10.16 0.00
 1 17 11 -3.96 0.00
 2 17 11 4.17 0.00
 3 17 11 -0.69 0.00
 4 17 11 -11.41 0.00
 5 17 11 14.06 0.00
 6 17 11 -4.39 0.00
 7 17 11 4.53 0.00
 8 17 11 -4.98 0.00
 9 17 11 -7.91 0.00
 10 17 11 1.70 0.00
 11 17 11 5.34 0.00
 12 17 11 -6.93 0.00
 13 17 11 -0.36 0.00
 14 17 11 1.96 0.00
 15 17 11 0.73 0.00
 16 17 11 2.06 0.00
 17 17 11 -3.21 0.00
 18 17 11 3.98 0.00
 19 17 11 -3.28 0.00
 20 17 11 4.92 0.00
 21 17 11 0.41 0.00
 22 17 11 1.07 0.00
 1 18 11 -5.13 0.00
 2 18 11 9.58 0.00
 3 18 11 -11.35 0.00
 4 18 11 -1.19 0.00
 5 18 11 -0.30 0.00
 6 18 11 -9.82 0.00
 7 18 11 -1.39 0.00
 8 18 11 11.51 0.00
 9 18 11 1.14 0.00
 10 18 11 -1.47 0.00
 11 18 11 -8.14 0.00
 12 18 11 0.56 0.00
 13 18 11 6.77 0.00
 14 18 11 4.45 0.00
 15 18 11 -4.90 0.00
 16 18 11 -7.47 0.00
 17 18 11 6.66 0.00
 18 18 11 3.05 0.00
 19 18 11 -0.49 0.00
 20 18 11 -2.83 0.00
 21 18 11 3.06 0.00
 22 18 11 2.27 0.00
 0 19 11 -5.53 0.00
 1 19 11 5.19 0.00
 2 19 11 1.29 0.00
 3 19 11 -3.28 0.00
 4 19 11 4.89 0.00
 5 19 11 -0.63 0.00
 6 19 11 2.64 0.00
 7 19 11 -17.30 0.00
 8 19 11 4.35 0.00
 9 19 11 6.84 0.00
 10 19 11 -1.23 0.00
 11 19 11 0.67 0.00
 12 19 11 -1.12 0.00
 13 19 11 -1.35 0.00
 14 19 11 2.97 0.00
 15 19 11 1.01 0.00
 16 19 11 -1.95 0.00
 17 19 11 3.72 0.00
 18 19 11 -5.97 0.00
 19 19 11 7.83 0.00
 20 19 11 1.87 0.00
 21 19 11 -1.42 0.00
 1 20 11 13.86 0.00
 2 20 11 -6.57 0.00
 3 20 11 -8.05 0.00
 4 20 11 -3.87 0.00
 5 20 11 17.23 0.00
 6 20 11 6.99 0.00
 7 20 11 -9.46 0.00
 8 20 11 -4.09 0.00
 9 20 11 9.18 0.00
 10 20 11 -8.01 0.00
 11 20 11 -2.84 0.00
 12 20 11 2.22 0.00
 13 20 11 5.33 0.00
 14 20 11 -1.16 0.00
 15 20 11 0.12 0.00
 16 20 11 1.95 0.00
 17 20 11 -2.77 0.00
 18 20 11 -0.17 0.00
 19 20 11 1.32 0.00
 20 20 11 0.50 0.00
 21 20 11 -1.77 0.00
 0 21 11 6.53 0.00
 1 21 11 -0.81 0.00
 2 21 11 4.53 0.00
 3 21 11 3.92 0.00
 4 21 11 -2.93 0.00
 5 21 11 2.70 0.00
 6 21 11 3.68 0.00
 7 21 11 8.01 0.00
 8 21 11 -7.05 0.00
 9 21 11 -3.04 0.00
 10 21 11 7.74 0.00
 11 21 11 -1.73 0.00
 12 21 11 -1.43 0.00
 13 21 11 -2.33 0.00
 14 21 11 -4.28 0.00
 15 21 11 0.22 0.00
 16 21 11 8.82 0.00
 17 21 11 -4.09 0.00
 18 21 11 0.73 0.00
 19 21 11 -9.85 0.00
 20 21 11 -7.35 0.00
 1 22 11 -0.33 0.00
 2 22 11 3.21 0.00
 3 22 11 0.05 0.00
 4 22 11 3.86 0.00
 5 22 11 -0.57 0.00
 6 22 11 -7.85 0.00
 7 22 11 0.84 0.00
 8 22 11 6.33 0.00
 9 22 11 -5.78 0.00
 10 22 11 5.46 0.00
 11 22 11 -5.26 0.00
 12 22 11 -2.69 0.00
 13 22 11 -3.16 0.00
 14 22 11 -1.05 0.00
 15 22 11 -3.15 0.00
 16 22 11 -1.06 0.00
 17 22 11 1.44 0.00
 18 22 11 3.97 0.00
 19 22 11 -2.98 0.00
 0 23 11 -4.45 0.00
 1 23 11 -3.92 0.00
 2 23 11 -3.80 0.00
 3 23 11 -6.00 0.00
 4 23 11 -2.90 0.00
 5 23 11 -5.61 0.00
 6 23 11 0.32 0.00
 7 23 11 2.97 0.00
 8 23 11 -0.87 0.00
 9 23 11 -1.91 0.00
 10 23 11 -4.52 0.00
 11 23 11 9.49 0.00
 12 23 11 10.52 0.00
 13 23 11 -3.53 0.00
 14 23 11 -13.29 0.00
 15 23 11 -1.61 0.00
 16 23 11 -0.71 0.00
 17 23 11 11.16 0.00
 18 23 11 -0.15 0.00
 19 23 11 1.96 0.00
 1 24 11 -6.31 0.00
 2 24 11 -5.27 0.00
 3 24 11 2.74 0.00
 4 24 11 6.94 0.00
 5 24 11 -8.26 0.00
 6 24 11 2.88 0.00
 7 24 11 2.27 0.00
 8 24 11 -1.42 0.00
 9 24 11 8.14 0.00
 10 24 11 -6.52 0.00
 11 24 11 2.33 0.00
 12 24 11 8.52 0.00
 13 24 11 11.28 0.00
 14 24 11 3.83 0.00
 15 24 11 -2.58 0.00
 16 24 11 -6.40 0.00
 17 24 11 2.30 0.00
 18 24 11 0.93 0.00
 0 25 11 -2.24 0.00
 1 25 11 4.58 0.00
 2 25 11 5.93 0.00
 3 25 11 9.22 0.00
 4 25 11 -4.71 0.00
 5 25 11 3.46 0.00
 6 25 11 2.81 0.00
 7 25 11 -4.24 0.00
 8 25 11 5.76 0.00
 9 25 11 2.31 0.00
 10 25 11 -10.59 0.00
 11 25 11 -9.35 0.00
 12 25 11 2.56 0.00
 13 25 11 6.18 0.00
 14 25 11 7.56 0.00
 15 25 11 -5.81 0.00
 16 25 11 3.26 0.00
 17 25 11 -0.76 0.00
 1 26 11 2.05 0.00
 2 26 11 0.41 0.00
 3 26 11 3.36 0.00
 4 26 11 -6.71 0.00
 5 26 11 2.04 0.00
 6 26 11 -3.51 0.00
 7 26 11 -5.47 0.00
 8 26 11 0.86 0.00
 9 26 11 0.57 0.00
 10 26 11 -3.20 0.00
 11 26 11 -8.20 0.00
 12 26 11 -1.35 0.00
 13 26 11 -2.34 0.00
 14 26 11 -4.87 0.00
 15 26 11 -6.17 0.00
 16 26 11 3.57 0.00
 0 27 11 1.00 0.00
 1 27 11 -4.63 0.00
 2 27 11 1.23 0.00
 3 27 11 -2.85 0.00
 4 27 11 -0.15 0.00
 5 27 11 -0.74 0.00
 6 27 11 1.31 0.00
 7 27 11 -7.30 0.00
 8 27 11 0.00 0.00
 9 27 11 5.01 0.00
 10 27 11 4.02 0.00
 11 27 11 -0.30 0.00
 12 27 11 -1.71 0.00
 13 27 11 5.04 0.00
 14 27 11 -1.55 0.00
 15 27 11 -2.24 0.00
 1 28 11 -2.57 0.00
 2 28 11 2.73 0.00
 3 28 11 -0.71 0.00
 4 28 11 2.10 0.00
 5 28 11 8.01 0.00
 6 28 11 6.53 0.00
 7 28 11 -4.11 0.00
 8 28 11 -5.03 0.00
 9 28 11 7.91 0.00
 10 28 11 10.83 0.00
 11 28 11 -3.16 0.00
 12 28 11 -7.71 0.00
 13 28 11 3.10 0.00
 14 28 11 5.75 0.00
 0 29 11 -10.78 0.00
 1 29 11 -1.64 0.00
 2 29 11 5.02 0.00
 3 29 11 0.45 0.00
 4 29 11 -3.92 0.00
 5 29 11 2.61 0.00
 6 29 11 2.78 0.00
 7 29 11 5.48 0.00
 8 29 11 -4.20 0.00
 9 29 11 1.64 0.00
 10 29 11 -0.82 0.00
 11 29 11 -4.97 0.00
 12 29 11 0.13 0.00
 13 29 11 1.14 0.00
 1 30 11 -3.31 0.00
 2 30 11 -5.96 0.00
 3 30 11 1.52 0.00
 4 30 11 -2.44 0.00
 5 30 11 -10.60 0.00
 6 30 11 4.81 0.00
 7 30 11 -3.67 0.00
 8 30 11 -4.77 0.00
 9 30 11 7.40 0.00
 10 30 11 1.49 0.00
 11 30 11 -6.63 0.00
 0 31 11 3.13 0.00
 1 31 11 7.50 0.00
 2 31 11 5.66 0.00
 3 31 11 -2.79 0.00
 4 31 11 -8.33 0.00
 5 31 11 -0.11 0.00
 6 31 11 -0.05 0.00
 7 31 11 -4.39 0.00
 8 31 11 5.94 0.00
 9 31 11 0.82 0.00
 1 32 11 -1.13 0.00
 2 32 11 12.86 0.00
 3 32 11 2.73 0.00
 4 32 11 -6.15 0.00
 5 32 11 7.90 0.00
 6 32 11 -1.94 0.00
 7 32 11 1.90 0.00
 0 33 11 -2.94 0.00
 1 33 11 -5.37 0.00
 2 33 11 -8.34 0.00
 3 33 11 -0.27 0.00
 4 33 11 16.66 0.00
 0 0 12 4.54 0.00
 2 0 12 -34.13 0.00
 4 0 12 20.32 0.00
 6 0 12 11.31 0.00
 8 0 12 5.26 0.00
 10 0 12 8.20 0.00
 12 0 12 -9.79 0.00
 14 0 12 10.32 0.00
 16 0 12 -14.55 0.00
 18 0 12 -6.36 0.00
 20 0 12 4.94 0.00
 22 0 12 8.17 0.00
 24 0 12 -3.58 0.00
 1 1 12 6.77 0.00
 2 1 12 -13.87 0.00
 3 1 12 -4.82 0.00
 4 1 12 -26.74 0.00
 5 1 12 3.67 0.00
 6 1 12 9.02 0.00
 7 1 12 -6.80 0.00
 8 1 12 -11.79 0.00
 9 1 12 4.68 0.00
 10 1 12 10.72 0.00
 11 1 12 0.85 0.00
 12 1 12 -22.51 0.00
 13 1 12 0.38 0.00
 14 1 12 28.49 0.00
 15 1 12 -0.47 0.00
 16 1 12 -12.92 0.00
 17 1 12 7.55 0.00
 18 1 12 1.96 0.00
 19 1 12 -7.28 0.00
 20 1 12 -7.73 0.00
 21 1 12 5.53 0.00
 22 1 12 -9.82 0.00
 23 1 12 1.43 0.00
 24 1 12 5.13 0.00
 25 1 12 -2.01 0.00
 0 2 12 10.86 0.00
 1 2 12 -9.09 0.00
 2 2 12 10.24 0.00
 3 2 12 38.14 0.00
 4 2 12 -17.49 0.00
 5 2 12 -13.52 0.00
 6 2 12 2.92 0.00
 7 2 12 2.48 0.00
 8 2 12 -10.19 0.00
 9 2 12 1.79 0.00
 10 2 12 1.04 0.00
 11 2 12 1.20 0.00
 12 2 12 5.07 0.00
 13 2 12 -8.09 0.00
 14 2 12 -9.54 0.00
 15 2 12 8.84 0.00
 16 2 12 14.54 0.00
 17 2 12 -6.95 0.00
 18 2 12 0.95 0.00
 19 2 12 -2.67 0.00
 20 2 12 -0.57 0.00
 21 2 12 9.79 0.00
 22 2 12 -4.15 0.00
 23 2 12 -11.32 0.00
 24 2 12 -2.70 0.00
 25 2 12 8.90 0.00
 1 3 12 -0.01 0.00
 2 3 12 23.10 0.00
 3 3 12 -7.53 0.00
 4 3 12 -13.79 0.00
 5 3 12 4.22 0.00
 6 3 12 5.95 0.00
 7 3 12 1.48 0.00
 8 3 12 1.48 0.00
 9 3 12 -4.04 0.00
 10 3 12 9.80 0.00
 11 3 12 -1.30 0.00
 12 3 12 0.94 0.00
 13 3 12 -12.11 0.00
 14 3 12 0.20 0.00
 15 3 12 3.16 0.00
 16 3 12 -6.92 0.00
 17 3 12 -3.61 0.00
 18 3 12 0.62 0.00
 19 3 12 -2.59 0.00
 20 3 12 3.73 0.00
 21 3 12 -4.67 0.00
 22 3 12 4.09 0.00
 23 3 12 0.94 0.00
 24 3 12 2.29 0.00
 25 3 12 -4.90 0.00
 0 4 12 -30.89 0.00
 1 4 12 2.39 0.00
 2 4 12 37.05 0.00
 3 4 12 -21.41 0.00
 4 4 12 -5.03 0.00
 5 4 12 -11.90 0.00
 6 4 12 -6.02 0.00
 7 4 12 3.88 0.00
 8 4 12 -1.41 0.00
 9 4 12 2.75 0.00
 10 4 12 -7.12 0.00
 11 4 12 -2.94 0.00
 12 4 12 3.58 0.00
 13 4 12 -6.99 0.00
 14 4 12 -5.82 0.00
 15 4 12 9.45 0.00
 16 4 12 6.27 0.00
 17 4 12 -4.65 0.00
 18 4 12 -8.71 0.00
 19 4 12 2.76 0.00
 20 4 12 0.49 0.00
 21 4 12 4.85 0.00
 22 4 12 1.11 0.00
 23 4 12 -6.48 0.00
 24 4 12 3.09 0.00
 25 4 12 3.59 0.00
 1 5 12 -18.46 0.00
 2 5 12 -2.02 0.00
 3 5 12 27.38 0.00
 4 5 12 21.08 0.00
 5 5 12 -2.82 0.00
 6 5 12 -5.78 0.00
 7 5 12 0.87 0.00
 8 5 12 7.16 0.00
 9 5 12 1.41 0.00
 10 5 12 -25.37 0.00
 11 5 12 19.39 0.00
 12 5 12 6.39 0.00
 13 5 12 0.78 0.00
 14 5 12 -8.95 0.00
 15 5 12 5.64 0.00
 16 5 12 10.61 0.00
 17 5 12 -1.00 0.00
 18 5 12 0.27 0.00
 19 5 12 6.74 0.00
 20 5 12 2.28 0.00
 21 5 12 0.35 0.00
 22 5 12 0.54 0.00
 23 5 12 7.45 0.00
 24 5 12 -6.95 0.00
 25 5 12 0.14 0.00
 0 6 12 -24.89 0.00
 1 6 12 -4.49 0.00
 2 6 12 -13.23 0.00
 3 6 12 13.53 0.00
 4 6 12 -2.88 0.00
 5 6 12 17.38 0.00
 6 6 12 8.01 0.00
 7 6 12 -2.72 0.00
 8 6 12 11.33 0.00
 9 6 12 1.15 0.00
 10 6 12 7.51 0.00
 11 6 12 1.79 0.00
 12 6 12 -2.11 0.00
 13 6 12 10.63 0.00
 14 6 12 8.23 0.00
 15 6 12 0.53 0.00
 16 6 12 -8.07 0.00
 17 6 12 -9.33 0.00
 18 6 12 4.06 0.00
 19 6 12 3.47 0.00
 20 6 12 3.56 0.00
 21 6 12 -5.72 0.00
 22 6 12 -2.55 0.00
 23 6 12 -0.55 0.00
 24 6 12 -5.53 0.00
 25 6 12 1.43 0.00
 1 7 12 -21.27 0.00
 2 7 12 -11.07 0.00
 3 7 12 1.38 0.00
 4 7 12 -12.47 0.00
 5 7 12 -22.18 0.00
 6 7 12 3.73 0.00
 7 7 12 5.50 0.00
 8 7 12 -3.57 0.00
 9 7 12 -9.80 0.00
 10 7 12 13.10 0.00
 11 7 12 -14.08 0.00
 12 7 12 10.11 0.00
 13 7 12 -6.35 0.00
 14 7 12 -7.28 0.00
 15 7 12 0.83 0.00
 16 7 12 5.28 0.00
 17 7 12 -3.18 0.00
 18 7 12 -4.89 0.00
 19 7 12 -3.35 0.00
 20 7 12 -7.50 0.00
 21 7 12 0.39 0.00
 22 7 12 4.21 0.00
 23 7 12 -8.96 0.00
 24 7 12 -2.12 0.00
 25 7 12 -2.00 0.00
 0 8 12 48.58 0.00
 1 8 12 4.21 0.00
 2 8 12 -11.04 0.00
 3 8 12 -7.44 0.00
 4 8 12 9.78 0.00
 5 8 12 -17.23 0.00
 6 8 12 -2.16 0.00
 7 8 12 2.43 0.00
 8 8 12 -12.40 0.00
 9 8 12 -3.53 0.00
 10 8 12 -1.77 0.00
 11 8 12 -8.23 0.00
 12 8 12 -10.23 0.00
 13 8 12 -5.45 0.00
 14 8 12 5.19 0.00
 15 8 12 -2.61 0.00
 16 8 12 -8.78 0.00
 17 8 12 4.61 0.00
 18 8 12 6.44 0.00
 19 8 12 5.71 0.00
 20 8 12 -2.86 0.00
 21 8 12 0.91 0.00
 22 8 12 0.05 0.00
 23 8 12 6.19 0.00
 24 8 12 7.20 0.00
 1 9 12 13.43 0.00
 2 9 12 7.84 0.00
 3 9 12 8.94 0.00
 4 9 12 -7.42 0.00
 5 9 12 0.02 0.00
 6 9 12 3.89 0.00
 7 9 12 16.96 0.00
 8 9 12 -7.32 0.00
 9 9 12 -4.62 0.00
 10 9 12 -0.36 0.00
 11 9 12 12.63 0.00
 12 9 12 -9.59 0.00
 13 9 12 4.32 0.00
 14 9 12 2.11 0.00
 15 9 12 -1.93 0.00
 16 9 12 -1.27 0.00
 17 9 12 2.50 0.00
 18 9 12 -0.87 0.00
 19 9 12 -1.05 0.00
 20 9 12 5.53 0.00
 21 9 12 5.78 0.00
 22 9 12 2.17 0.00
 23 9 12 -2.32 0.00
 24 9 12 -0.34 0.00
 0 10 12 -12.18 0.00
 1 10 12 -6.93 0.00
 2 10 12 5.60 0.00
 3 10 12 19.03 0.00
 4 10 12 -10.07 0.00
 5 10 12 -0.34 0.00
 6 10 12 4.16 0.00
 7 10 12 6.70 0.00
 8 10 12 -3.87 0.00
 9 10 12 0.39 0.00
 10 10 12 6.85 0.00
 11 10 12 4.20 0.00
 12 10 12 4.82 0.00
 13 10 12 11.07 0.00
 14 10 12 2.17 0.00
 15 10 12 -5.82 0.00
 16 10 12 4.33 0.00
 17 10 12 0.23 0.00
 18 10 12 -4.40 0.00
 19 10 12 -1.84 0.00
 20 10 12 4.88 0.00
 21 10 12 -9.33 0.00
 22 10 12 -3.03 0.00
 23 10 12 6.64 0.00
 24 10 12 -1.66 0.00
 1 11 12 4.39 0.00
 2 11 12 5.87 0.00
 3 11 12 -8.18 0.00
 4 11 12 14.14 0.00
 5 11 12 -6.75 0.00
 6 11 12 1.44 0.00
 7 11 12 10.28 0.00
 8 11 12 4.88 0.00
 9 11 12 -10.54 0.00
 10 11 12 3.17 0.00
 11 11 12 -2.88 0.00
 12 11 12 0.40 0.00
 13 11 12 6.73 0.00
 14 11 12 0.99 0.00
 15 11 12 -7.42 0.00
 16 11 12 3.47 0.00
 17 11 12 2.24 0.00
 18 11 12 -1.54 0.00
 19 11 12 0.87 0.00
 20 11 12 -3.15 0.00
 21 11 12 -1.89 0.00
 22 11 12 2.19 0.00
 23 11 12 0.88 0.00
 24 11 12 -7.71 0.00
 0 12 12 -17.94 0.00
 1 12 12 0.89 0.00
 2 12 12 4.32 0.00
 3 12 12 -7.51 0.00
 4 12 12 3.08 0.00
 5 12 12 -4.47 0.00
 6 12 12 -1.74 0.00
 7 12 12 -2.16 0.00
 8 12 12 8.65 0.00
 9 12 12 7.36 0.00
 10 12 12 -3.12 0.00
 11 12 12 -8.23 0.00
 12 12 12 -5.38 0.00
 13 12 12 -0.50 0.00
 14 12 12 -1.19 0.00
 15 12 12 -2.63 0.00
 16 12 12 -3.01 0.00
 17 12 12 3.75 0.00
 18 12 12 0.95 0.00
 19 12 12 -3.79 0.00
 20 12 12 -4.07 0.00
 21 12 12 1.24 0.00
 22 12 12 1.26 0.00
 23 12 12 -0.25 0.00
 1 13 12 5.36 0.00
 2 13 12 -11.97 0.00
 3 13 12 1.97 0.00
 4 13 12 -6.13 0.00
 5 13 12 -6.68 0.00
 6 13 12 -11.41 0.00
 7 13 12 -1.52 0.00
 8 13 12 -2.96 0.00
 9 13 12 0.96 0.00
 10 13 12 -2.52 0.00
 11 13 12 -5.68 0.00
 12 13 12 3.79 0.00
 13 13 12 4.33 0.00
 14 13 12 -5.31 0.00
 15 13 12 -2.95 0.00
 16 13 12 -0.01 0.00
 17 13 12 5.60 0.00
 18 13 12 3.18 0.00
 19 13 12 -5.30 0.00
 20 13 12 -6.20 0.00
 21 13 12 0.72 0.00
 22 13 12 5.87 0.00
 23 13 12 -1.67 0.00
 0 14 12 16.09 0.00
 1 14 12 1.08 0.00
 2 14 12 -13.87 0.00
 3 14 12 -2.43 0.00
 4 14 12 16.50 0.00
 5 14 12 4.61 0.00
 6 14 12 -10.29 0.00
 7 14 12 -8.00 0.00
 8 14 12 -4.47 0.00
 9 14 12 2.60 0.00
 10 14 12 4.72 0.00
 11 14 12 -7.81 0.00
 12 14 12 0.54 0.00
 13 14 12 6.13 0.00
 14 14 12 1.30 0.00
 15 14 12 0.29 0.00
 16 14 12 1.74 0.00
 17 14 12 3.50 0.00
 18 14 12 1.87 0.00
 19 14 12 7.08 0.00
 20 14 12 0.03 0.00
 21 14 12 -4.25 0.00
 22 14 12 3.53 0.00
 23 14 12 15.78 0.00
 1 15 12 -0.80 0.00
 2 15 12 -2.34 0.00
 3 15 12 1.33 0.00
 4 15 12 1.87 0.00
 5 15 12 5.43 0.00
 6 15 12 16.04 0.00
 7 15 12 1.14 0.00
 8 15 12 -3.79 0.00
 9 15 12 1.07 0.00
 10 15 12 4.77 0.00
 11 15 12 9.62 0.00
 12 15 12 -3.36 0.00
 13 15 12 -9.19 0.00
 14 15 12 5.83 0.00
 15 15 12 2.82 0.00
 16 15 12 -5.78 0.00
 17 15 12 -1.80 0.00
 18 15 12 6.87 0.00
 19 15 12 0.76 0.00
 20 15 12 2.26 0.00
 21 15 12 1.60 0.00
 22 15 12 -3.02 0.00
 0 16 12 21.90 0.00
 1 16 12 -0.65 0.00
 2 16 12 -4.73 0.00
 3 16 12 6.30 0.00
 4 16 12 -1.66 0.00
 5 16 12 5.28 0.00
 6 16 12 -2.99 0.00
 7 16 12 3.16 0.00
 8 16 12 3.56 0.00
 9 16 12 -2.92 0.00
 10 16 12 -0.37 0.00
 11 16 12 11.55 0.00
 12 16 12 -4.09 0.00
 13 16 12 -5.21 0.00
 14 16 12 -0.88 0.00
 15 16 12 -5.38 0.00
 16 16 12 5.41 0.00
 17 16 12 -3.99 0.00
 18 16 12 -5.62 0.00
 19 16 12 -1.29 0.00
 20 16 12 3.02 0.00
 21 16 12 -12.59 0.00
 22 16 12 -3.20 0.00
 1 17 12 3.30 0.00
 2 17 12 1.36 0.00
 3 17 12 -7.58 0.00
 4 17 12 11.53 0.00
 5 17 12 -0.53 0.00
 6 17 12 -7.84 0.00
 7 17 12 -0.76 0.00
 8 17 12 -5.87 0.00
 9 17 12 -4.00 0.00
 10 17 12 3.39 0.00
 11 17 12 -2.88 0.00
 12 17 12 -2.02 0.00
 13 17 12 1.29 0.00
 14 17 12 2.56 0.00
 15 17 12 0.60 0.00
 16 17 12 -7.44 0.00
 17 17 12 0.15 0.00
 18 17 12 2.21 0.00
 19 17 12 0.17 0.00
 20 17 12 -4.00 0.00
 21 17 12 -3.61 0.00
 0 18 12 -18.09 0.00
 1 18 12 4.95 0.00
 2 18 12 -4.68 0.00
 3 18 12 -13.16 0.00
 4 18 12 4.30 0.00
 5 18 12 -5.67 0.00
 6 18 12 0.95 0.00
 7 18 12 7.20 0.00
 8 18 12 3.45 0.00
 9 18 12 -9.06 0.00
 10 18 12 -0.81 0.00
 11 18 12 3.27 0.00
 12 18 12 2.97 0.00
 13 18 12 -0.04 0.00
 14 18 12 -4.76 0.00
 15 18 12 1.62 0.00
 16 18 12 0.02 0.00
 17 18 12 7.79 0.00
 18 18 12 -3.68 0.00
 19 18 12 -0.16 0.00
 20 18 12 -0.88 0.00
 21 18 12 4.61 0.00
 1 19 12 -0.53 0.00
 2 19 12 -5.71 0.00
 3 19 12 7.23 0.00
 4 19 12 -3.96 0.00
 5 19 12 -0.19 0.00
 6 19 12 -7.61 0.00
 7 19 12 3.31 0.00
 8 19 12 10.33 0.00
 9 19 12 -0.50 0.00
 10 19 12 -1.17 0.00
 11 19 12 5.28 0.00
 12 19 12 -4.44 0.00
 13 19 12 1.03 0.00
 14 19 12 2.39 0.00
 15 19 12 1.22 0.00
 16 19 12 0.67 0.00
 17 19 12 -3.69 0.00
 18 19 12 5.98 0.00
 19 19 12 7.59 0.00
 20 19 12 -3.39 0.00
 0 20 12 16.12 0.00
 1 20 12 -3.27 0.00
 2 20 12 -5.44 0.00
 3 20 12 2.11 0.00
 4 20 12 10.38 0.00
 5 20 12 7.96 0.00
 6 20 12 -12.41 0.00
 7 20 12 -5.87 0.00
 8 20 12 3.25 0.00
 9 20 12 -6.13 0.00
 10 20 12 -2.46 0.00
 11 20 12 8.42 0.00
 12 20 12 3.48 0.00
 13 20 12 -7.64 0.00
 14 20 12 1.14 0.00
 15 20 12 0.95 0.00
 16 20 12 3.26 0.00
 17 20 12 -2.93 0.00
 18 20 12 7.31 0.00
 19 20 12 -1.27 0.00
 20 20 12 -0.71 0.00
 1 21 12 -5.72 0.00
 2 21 12 3.83 0.00
 3 21 12 -1.99 0.00
 4 21 12 -0.99 0.00
 5 21 12 -0.66 0.00
 6 21 12 5.43 0.00
 7 21 12 -6.56 0.00
 8 21 12 -6.28 0.00
 9 21 12 6.20 0.00
 10 21 12 2.82 0.00
 11 21 12 -8.76 0.00
 12 21 12 2.98 0.00
 13 21 12 -3.01 0.00
 14 21 12 5.22 0.00
 15 21 12 6.69 0.00
 16 21 12 -5.72 0.00
 17 21 12 -8.17 0.00
 18 21 12 -3.19 0.00
 19 21 12 -0.92 0.00
 0 22 12 -0.90 0.00
 1 22 12 3.82 0.00
 2 22 12 4.48 0.00
 3 22 12 -0.62 0.00
 4 22 12 -2.78 0.00
 5 22 12 -2.13 0.00
 6 22 12 6.87 0.00
 7 22 12 7.53 0.00
 8 22 12 -5.58 0.00
 9 22 12 2.05 0.00
 10 22 12 -0.30 0.00
 11 22 12 -0.33 0.00
 12 22 12 -1.63 0.00
 13 22 12 1.02 0.00
 14 22 12 -1.05 0.00
 15 22 12 1.23 0.00
 16 22 12 -3.91 0.00
 17 22 12 3.89 0.00
 18 22 12 -6.83 0.00
 1 23 12 -3.88 0.00
 2 23 12 -1.93 0.00
 3 23 12 5.78 0.00
 4 23 12 2.75 0.00
 5 23 12 -0.82 0.00
 6 23 12 6.80 0.00
 7 23 12 -0.14 0.00
 8 23 12 -4.23 0.00
 9 23 12 -0.16 0.00
 10 23 12 2.21 0.00
 11 23 12 6.71 0.00
 12 23 12 -12.56 0.00
 13 23 12 -10.77 0.00
 14 23 12 -2.57 0.00
 15 23 12 7.72 0.00
 16 23 12 9.00 0.00
 17 23 12 0.13 0.00
 18 23 12 -6.59 0.00
 0 24 12 -14.13 0.00
 1 24 12 -4.03 0.00
 2 24 12 5.10 0.00
 3 24 12 3.59 0.00
 4 24 12 -15.35 0.00
 5 24 12 0.49 0.00
 6 24 12 6.25 0.00
 7 24 12 -7.40 0.00
 8 24 12 4.40 0.00
 9 24 12 -3.21 0.00
 10 24 12 -0.79 0.00
 11 24 12 6.89 0.00
 12 24 12 2.72 0.00
 13 24 12 -4.51 0.00
 14 24 12 -1.82 0.00
 15 24 12 -6.20 0.00
 16 24 12 3.13 0.00
 17 24 12 4.45 0.00
 1 25 12 -0.38 0.00
 2 25 12 3.95 0.00
 3 25 12 -3.45 0.00
 4 25 12 -5.80 0.00
 5 25 12 2.63 0.00
 6 25 12 -6.79 0.00
 7 25 12 5.89 0.00
 8 25 12 0.79 0.00
 9 25 12 -6.10 0.00
 10 25 12 4.13 0.00
 11 25 12 6.08 0.00
 12 25 12 11.12 0.00
 13 25 12 5.98 0.00
 14 25 12 -4.95 0.00
 15 25 12 -4.14 0.00
 16 25 12 4.03 0.00
 0 26 12 3.23 0.00
 1 26 12 0.72 0.00
 2 26 12 3.81 0.00
 3 26 12 -2.76 0.00
 4 26 12 3.17 0.00
 5 26 12 -0.98 0.00
 6 26 12 2.02 0.00
 7 26 12 1.76 0.00
 8 26 12 -3.38 0.00
 9 26 12 0.24 0.00
 10 26 12 -0.78 0.00
 11 26 12 1.07 0.00
 12 26 12 0.80 0.00
 13 26 12 -1.66 0.00
 14 26 12 0.17 0.00
 15 26 12 3.39 0.00
 1 27 12 4.24 0.00
 2 27 12 -1.31 0.00
 3 27 12 1.85 0.00
 4 27 12 0.91 0.00
 5 27 12 -4.44 0.00
 6 27 12 1.75 0.00
 7 27 12 -2.55 0.00
 8 27 12 2.66 0.00
 9 27 12 -2.23 0.00
 10 27 12 -4.39 0.00
 11 27 12 -4.14 0.00
 12 27 12 -1.82 0.00
 13 27 12 -1.79 0.00
 14 27 12 -3.07 0.00
 0 28 12 2.90 0.00
 1 28 12 0.39 0.00
 2 28 12 -0.91 0.00
 3 28 12 3.07 0.00
 4 28 12 2.83 0.00
 5 28 12 4.15 0.00
 6 28 12 -5.50 0.00
 7 28 12 -5.12 0.00
 8 28 12 1.33 0.00
 9 28 12 8.41 0.00
 10 28 12 -3.80 0.00
 11 28 12 -11.65 0.00
 12 28 12 1.21 0.00
 13 28 12 9.70 0.00
 1 29 12 5.09 0.00
 2 29 12 1.05 0.00
 3 29 12 -5.18 0.00
 4 29 12 3.72 0.00
 5 29 12 4.39 0.00
 6 29 12 0.88 0.00
 7 29 12 -0.27 0.00
 8 29 12 -1.99 0.00
 9 29 12 3.98 0.00
 10 29 12 -1.40 0.00
 11 29 12 2.61 0.00
 0 30 12 -5.70 0.00
 1 30 12 -4.11 0.00
 2 30 12 -2.52 0.00
 3 30 12 -0.69 0.00
 4 30 12 -7.12 0.00
 5 30 12 2.25 0.00
 6 30 12 4.77 0.00
 7 30 12 -5.42 0.00
 8 30 12 5.41 0.00
 9 30 12 5.75 0.00
 1 31 12 1.19 0.00
 2 31 12 -8.30 0.00
 3 31 12 -7.16 0.00
 4 31 12 1.35 0.00
 5 31 12 5.82 0.00
 6 31 12 -1.35 0.00
 7 31 12 0.03 0.00
 0 32 12 1.75 0.00
 1 32 12 10.23 0.00
 2 32 12 7.56 0.00
 3 32 12 -9.07 0.00
 4 32 12 3.26 0.00
 1 0 13 -22.79 0.00
 3 0 13 21.96 0.00
 5 0 13 -4.89 0.00
 7 0 13 1.61 0.00
 9 0 13 -14.72 0.00
 11 0 13 -11.82 0.00
 13 0 13 -0.08 0.00
 15 0 13 -8.60 0.00
 17 0 13 6.79 0.00
 19 0 13 3.04 0.00
 21 0 13 13.52 0.00
 23 0 13 1.95 0.00
 0 1 13 -2.74 0.00
 1 1 13 -17.73 0.00
 2 1 13 -8.32 0.00
 3 1 13 -11.15 0.00
 4 1 13 -0.43 0.00
 5 1 13 8.25 0.00
 6 1 13 -1.47 0.00
 7 1 13 3.18 0.00
 8 1 13 3.26 0.00
 9 1 13 22.49 0.00
 10 1 13 -2.17 0.00
 11 1 13 -11.46 0.00
 12 1 13 3.81 0.00
 13 1 13 26.75 0.00
 14 1 13 -1.90 0.00
 15 1 13 -12.63 0.00
 16 1 13 4.75 0.00
 17 1 13 7.32 0.00
 18 1 13 -5.92 0.00
 19 1 13 -1.41 0.00
 20 1 13 5.30 0.00
 21 1 13 3.15 0.00
 22 1 13 -3.45 0.00
 23 1 13 10.13 0.00
 24 1 13 0.04 0.00
 1 2 13 -0.26 0.00
 2 2 13 17.32 0.00
 3 2 13 -2.86 0.00
 4 2 13 -26.56 0.00
 5 2 13 7.52 0.00
 6 2 13 4.88 0.00
 7 2 13 -1.94 0.00
 8 2 13 5.87 0.00
 9 2 13 8.35 0.00
 10 2 13 1.93 0.00
 11 2 13 14.80 0.00
 12 2 13 -6.69 0.00
 13 2 13 -7.84 0.00
 14 2 13 16.44 0.00
 15 2 13 12.39 0.00
 16 2 13 -10.61 0.00
 17 2 13 -5.01 0.00
 18 2 13 4.23 0.00
 19 2 13 -5.40 0.00
 20 2 13 7.96 0.00
 21 2 13 -7.12 0.00
 22 2 13 -10.05 0.00
 23 2 13 -5.02 0.00
 24 2 13 7.72 0.00
 0 3 13 15.90 0.00
 1 3 13 11.17 0.00
 2 3 13 6.76 0.00
 3 3 13 -4.72 0.00
 4 3 13 10.24 0.00
 5 3 13 6.34 0.00
 6 3 13 -1.18 0.00
 7 3 13 -2.78 0.00
 8 3 13 0.94 0.00
 9 3 13 -2.32 0.00
 10 3 13 -2.45 0.00
 11 3 13 -10.04 0.00
 12 3 13 -5.96 0.00
 13 3 13 -6.36 0.00
 14 3 13 5.56 0.00
 15 3 13 -2.35 0.00
 16 3 13 -5.04 0.00
 17 3 13 -1.84 0.00
 18 3 13 -0.61 0.00
 19 3 13 -1.36 0.00
 20 3 13 -0.09 0.00
 21 3 13 0.05 0.00
 22 3 13 4.11 0.00
 23 3 13 -4.17 0.00
 24 3 13 -2.28 0.00
 1 4 13 23.66 0.00
 2 4 13 -11.79 0.00
 3 4 13 -26.84 0.00
 4 4 13 7.37 0.00
 5 4 13 -10.02 0.00
 6 4 13 4.04 0.00
 7 4 13 1.82 0.00
 8 4 13 -7.86 0.00
 9 4 13 -5.50 0.00
 10 4 13 -5.69 0.00
 11 4 13 0.09 0.00
 12 4 13 -13.45 0.00
 13 4 13 -3.08 0.00
 14 4 13 11.00 0.00
 15 4 13 1.67 0.00
 16 4 13 -11.84 0.00
 17 4 13 -3.14 0.00
 18 4 13 0.50 0.00
 19 4 13 2.07 0.00
 20 4 13 -1.04 0.00
 21 4 13 3.20 0.00
 22 4 13 -2.01 0.00
 23 4 13 8.84 0.00
 24 4 13 -0.84 0.00
 0 5 13 -22.08 0.00
 1 5 13 3.23 0.00
 2 5 13 6.29 0.00
 3 5 13 10.76 0.00
 4 5 13 -13.72 0.00
 5 5 13 -17.38 0.00
 6 5 13 -11.72 0.00
 7 5 13 1.84 0.00
 8 5 13 4.28 0.00
 9 5 13 -9.04 0.00
 10 5 13 5.92 0.00
 11 5 13 13.72 0.00
 12 5 13 -7.03 0.00
 13 5 13 -1.82 0.00
 14 5 13 1.46 0.00
 15 5 13 11.06 0.00
 16 5 13 1.83 0.00
 17 5 13 -2.77 0.00
 18 5 13 4.59 0.00
 19 5 13 0.87 0.00
 20 5 13 -3.86 0.00
 21 5 13 3.95 0.00
 22 5 13 3.64 0.00
 23 5 13 -4.55 0.00
 24 5 13 -3.74 0.00
 1 6 13 12.17 0.00
 2 6 13 11.21 0.00
 3 6 13 16.76 0.00
 4 6 13 14.71 0.00
 5 6 13 14.55 0.00
 6 6 13 -8.15 0.00
 7 6 13 1.22 0.00
 8 6 13 11.75 0.00
 9 6 13 3.72 0.00
 10 6 13 13.50 0.00
 11 6 13 -8.09 0.00
 12 6 13 8.81 0.00
 13 6 13 6.65 0.00
 14 6 13 0.75 0.00
 15 6 13 -9.94 0.00
 16 6 13 -3.54 0.00
 17 6 13 7.46 0.00
 18 6 13 9.91 0.00
 19 6 13 -1.53 0.00
 20 6 13 -4.57 0.00
 21 6 13 -2.00 0.00
 22 6 13 5.27 0.00
 23 6 13 -2.82 0.00
 24 6 13 1.91 0.00
 0 7 13 2.08 0.00
 1 7 13 -13.14 0.00
 2 7 13 -2.91 0.00
 3 7 13 -0.13 0.00
 4 7 13 10.21 0.00
 5 7 13 10.18 0.00
 6 7 13 15.11 0.00
 7 7 13 -1.55 0.00
 8 7 13 -0.61 0.00
 9 7 13 11.45 0.00
 10 7 13 -2.40 0.00
 11 7 13 -3.91 0.00
 12 7 13 7.22 0.00
 13 7 13 -9.52 0.00
 14 7 13 0.22 0.00
 15 7 13 5.84 0.00
 16 7 13 -2.03 0.00
 17 7 13 -3.39 0.00
 18 7 13 -5.04 0.00
 19 7 13 -8.71 0.00
 20 7 13 -0.17 0.00
 21 7 13 10.09 0.00
 22 7 13 -4.47 0.00
 23 7 13 -7.18 0.00
 24 7 13 2.64 0.00
 1 8 13 -32.13 0.00
 2 8 13 -18.09 0.00
 3 8 13 1.75 0.00
 4 8 13 -14.43 0.00
 5 8 13 -9.88 0.00
 6 8 13 -0.40 0.00
 7 8 13 -8.35 0.00
 8 8 13 -10.75 0.00
 9 8 13 1.54 0.00
 10 8 13 -13.31 0.00
 11 8 13 -1.26 0.00
 12 8 13 -7.71 0.00
 13 8 13 10.06 0.00
 14 8 13 -0.05 0.00
 15 8 13 -8.11 0.00
 16 8 13 0.88 0.00
 17 8 13 11.00 0.00
 18 8 13 0.64 0.00
 19 8 13 -5.32 0.00
 20 8 13 -3.69 0.00
 21 8 13 -1.19 0.00
 22 8 13 0.99 0.00
 23 8 13 3.14 0.00
 24 8 13 -9.07 0.00
 0 9 13 27.39 0.00
 1 9 13 3.15 0.00
 2 9 13 -17.80 0.00
 3 9 13 -3.21 0.00
 4 9 13 -4.15 0.00
 5 9 13 2.49 0.00
 6 9 13 -5.29 0.00
 7 9 13 -4.99 0.00
 8 9 13 -12.95 0.00
 9 9 13 0.69 0.00
 10 9 13 5.33 0.00
 11 9 13 -7.11 0.00
 12 9 13 -3.39 0.00
 13 9 13 9.11 0.00
 14 9 13 -4.15 0.00
 15 9 13 -6.14 0.00
 16 9 13 4.22 0.00
 17 9 13 2.49 0.00
 18 9 13 4.21 0.00
 19 9 13 3.42 0.00
 20 9 13 4.80 0.00
 21 9 13 -0.59 0.00
 22 9 13 1.52 0.00
 23 9 13 -0.69 0.00
 1 10 13 10.31 0.00
 2 10 13 21.51 0.00
 3 10 13 -10.29 0.00
 4 10 13 0.78 0.00
 5 10 13 4.16 0.00
 6 10 13 10.20 0.00
 7 10 13 6.69 0.00
 8 10 13 0.01 0.00
 9 10 13 -0.03 0.00
 10 10 13 10.71 0.00
 11 10 13 0.42 0.00
 12 10 13 10.15 0.00
 13 10 13 -2.67 0.00
 14 10 13 -7.70 0.00
 15 10 13 -2.97 0.00
 16 10 13 2.20 0.00
 17 10 13 -3.21 0.00
 18 10 13 -0.61 0.00
 19 10 13 3.34 0.00
 20 10 13 -4.15 0.00
 21 10 13 -3.13 0.00
 22 10 13 8.19 0.00
 23 10 13 4.47 0.00
 0 11 13 1.94 0.00
 1 11 13 11.38 0.00
 2 11 13 0.31 0.00
 3 11 13 4.57 0.00
 4 11 13 11.27 0.00
 5 11 13 -9.63 0.00
 6 11 13 9.43 0.00
 7 11 13 4.38 0.00
 8 11 13 -4.72 0.00
 9 11 13 1.91 0.00
 10 11 13 1.03 0.00
 11 11 13 -0.99 0.00
 12 11 13 4.56 0.00
 13 11 13 0.45 0.00
 14 11 13 -4.65 0.00
 15 11 13 2.29 0.00
 16 11 13 -0.74 0.00
 17 11 13 -0.78 0.00
 18 11 13 0.40 0.00
 19 11 13 0.02 0.00
 20 11 13 -8.62 0.00
 21 11 13 1.10 0.00
 22 11 13 2.65 0.00
 23 11 13 -3.52 0.00
 1 12 13 18.79 0.00
 2 12 13 -12.24 0.00
 3 12 13 7.93 0.00
 4 12 13 -1.87 0.00
 5 12 13 -2.87 0.00
 6 12 13 3.35 0.00
 7 12 13 5.92 0.00
 8 12 13 -0.04 0.00
 9 12 13 -7.25 0.00
 10 12 13 -7.57 0.00
 11 12 13 1.67 0.00
 12 12 13 -2.03 0.00
 13 12 13 3.96 0.00
 14 12 13 -0.47 0.00
 15 12 13 -3.53 0.00
 16 12 13 4.57 0.00
 17 12 13 5.06 0.00
 18 12 13 -3.65 0.00
 19 12 13 -0.47 0.00
 20 12 13 5.30 0.00
 21 12 13 -0.80 0.00
 22 12 13 -4.31 0.00
 0 13 13 -5.84 0.00
 1 13 13 -17.21 0.00
 2 13 13 0.43 0.00
 3 13 13 1.40 0.00
 4 13 13 -13.67 0.00
 5 13 13 -1.66 0.00
 6 13 13 -0.68 0.00
 7 13 13 2.04 0.00
 8 13 13 9.76 0.00
 9 13 13 -5.87 0.00
 10 13 13 -2.61 0.00
 11 13 13 5.28 0.00
 12 13 13 4.37 0.00
 13 13 13 -3.49 0.00
 14 13 13 -0.07 0.00
 15 13 13 -0.42 0.00
 16 13 13 0.66 0.00
 17 13 13 -0.05 0.00
 18 13 13 -2.87 0.00
 19 13 13 -6.15 0.00
 20 13 13 2.15 0.00
 21 13 13 6.65 0.00
 22 13 13 -2.21 0.00
 1 14 13 -20.84 0.00
 2 14 13 1.05 0.00
 3 14 13 8.07 0.00
 4 14 13 3.52 0.00
 5 14 13 -15.15 0.00
 6 14 13 -7.41 0.00
 7 14 13 2.11 0.00
 8 14 13 -2.85 0.00
 9 14 13 5.47 0.00
 10 14 13 3.24 0.00
 11 14 13 -7.92 0.00
 12 14 13 2.64 0.00
 13 14 13 4.60 0.00
 14 14 13 0.03 0.00
 15 14 13 0.91 0.00
 16 14 13 -0.03 0.00
 17 14 13 -1.64 0.00
 18 14 13 -0.08 0.00
 19 14 13 -2.42 0.00
 20 14 13 -2.20 0.00
 21 14 13 0.22 0.00
 22 14 13 1.55 0.00
 0 15 13 -4.08 0.00
 1 15 13 4.38 0.00
 2 15 13 6.86 0.00
 3 15 13 3.84 0.00
 4 15 13 2.84 0.00
 5 15 13 6.75 0.00
 6 15 13 -3.51 0.00
 7 15 13 -1.24 0.00
 8 15 13 -8.73 0.00
 9 15 13 3.94 0.00
 10 15 13 0.84 0.00
 11 15 13 -0.99 0.00
 12 15 13 -10.32 0.00
 13 15 13 3.33 0.00
 14 15 13 6.92 0.00
 15 15 13 -7.72 0.00
 16 15 13 -0.35 0.00
 17 15 13 10.90 0.00
 18 15 13 3.70 0.00
 19 15 13 -2.45 0.00
 20 15 13 4.91 0.00
 21 15 13 -1.82 0.00
 1 16 13 -6.80 0.00
 2 16 13 -2.65 0.00
 3 16 13 -0.84 0.00
 4 16 13 5.05 0.00
 5 16 13 2.31 0.00
 6 16 13 1.67 0.00
 7 16 13 1.45 0.00
 8 16 13 -4.32 0.00
 9 16 13 -0.41 0.00
 10 16 13 13.24 0.00
 11 16 13 -3.45 0.00
 12 16 13 -12.35 0.00
 13 16 13 3.48 0.00
 14 16 13 1.59 0.00
 15 16 13 -1.92 0.00
 16 16 13 -0.33 0.00
 17 16 13 -2.64 0.00
 18 16 13 2.87 0.00
 19 16 13 3.36 0.00
 20 16 13 -3.08 0.00
 21 16 13 3.95 0.00
 0 17 13 3.35 0.00
 1 17 13 3.03 0.00
 2 17 13 -4.27 0.00
 3 17 13 5.43 0.00
 4 17 13 4.58 0.00
 5 17 13 -13.78 0.00
 6 17 13 3.22 0.00
 7 17 13 -1.63 0.00
 8 17 13 4.35 0.00
 9 17 13 -1.94 0.00
 10 17 13 5.06 0.00
 11 17 13 -2.99 0.00
 12 17 13 2.68 0.00
 13 17 13 4.98 0.00
 14 17 13 -5.04 0.00
 15 17 13 -5.02 0.00
 16 17 13 0.09 0.00
 17 17 13 7.49 0.00
 18 17 13 -6.43 0.00
 19 17 13 -3.93 0.00
 20 17 13 -1.28 0.00
 1 18 13 15.51 0.00
 2 18 13 -8.30 0.00
 3 18 13 1.31 0.00
 4 18 13 5.29 0.00
 5 18 13 2.54 0.00
 6 18 13 2.50 0.00
 7 18 13 1.71 0.00
 8 18 13 -7.74 0.00
 9 18 13 3.18 0.00
 10 18 13 3.11 0.00
 11 18 13 -1.25 0.00
 12 18 13 -3.05 0.00
 13 18 13 1.21 0.00
 14 18 13 3.18 0.00
 15 18 13 0.49 0.00
 16 18 13 -0.78 0.00
 17 18 13 2.02 0.00
 18 18 13 -3.66 0.00
 19 18 13 -2.73 0.00
 20 18 13 2.24 0.00
 0 19 13 -1.27 0.00
 1 19 13 -7.09 0.00
 2 19 13 0.63 0.00
 3 19 13 -0.71 0.00
 4 19 13 -0.81 0.00
 5 19 13 2.67 0.00
 6 19 13 -4.24 0.00
 7 19 13 9.68 0.00
 8 19 13 -3.01 0.00
 9 19 13 0.95 0.00
 10 19 13 0.40 0.00
 11 19 13 -2.22 0.00
 12 19 13 -0.49 0.00
 13 19 13 1.53 0.00
 14 19 13 0.96 0.00
 15 19 13 -5.90 0.00
 16 19 13 2.90 0.00
 17 19 13 -1.16 0.00
 18 19 13 3.61 0.00
 19 19 13 -5.78 0.00
 1 20 13 -7.16 0.00
 2 20 13 2.06 0.00
 3 20 13 2.73 0.00
 4 20 13 0.41 0.00
 5 20 13 -9.09 0.00
 6 20 13 -6.27 0.00
 7 20 13 -0.53 0.00
 8 20 13 2.07 0.00
 9 20 13 -2.47 0.00
 10 20 13 8.61 0.00
 11 20 13 -2.84 0.00
 12 20 13 -8.29 0.00
 13 20 13 -1.11 0.00
 14 20 13 8.15 0.00
 15 20 13 -0.87 0.00
 16 20 13 -1.31 0.00
 17 20 13 1.06 0.00
 18 20 13 0.64 0.00
 19 20 13 -4.74 0.00
 0 21 13 -1.87 0.00
 1 21 13 1.37 0.00
 2 21 13 -1.10 0.00
 3 21 13 -3.08 0.00
 4 21 13 -0.09 0.00
 5 21 13 2.71 0.00
 6 21 13 -2.25 0.00
 7 21 13 -10.89 0.00
 8 21 13 6.69 0.00
 9 21 13 3.47 0.00
 10 21 13 -8.49 0.00
 11 21 13 0.44 0.00
 12 21 13 3.46 0.00
 13 21 13 4.80 0.00
 14 21 13 -0.53 0.00
 15 21 13 -2.18 0.00
 16 21 13 -5.51 0.00
 17 21 13 9.68 0.00
 18 21 13 4.53 0.00
 1 22 13 0.44 0.00
 2 22 13 0.24 0.00
 3 22 13 -6.33 0.00
 4 22 13 1.71 0.00
 5 22 13 7.59 0.00
 6 22 13 3.49 0.00
 7 22 13 -5.51 0.00
 8 22 13 -1.16 0.00
 9 22 13 8.64 0.00
 10 22 13 -0.60 0.00
 11 22 13 2.50 0.00
 12 22 13 -2.13 0.00
 13 22 13 4.82 0.00
 14 22 13 -1.17 0.00
 15 22 13 -1.51 0.00
 16 22 13 -0.02 0.00
 17 22 13 1.27 0.00
 0 23 13 -0.70 0.00
 1 23 13 3.07 0.00
 2 23 13 6.59 0.00
 3 23 13 7.43 0.00
 4 23 13 -1.55 0.00
 5 23 13 4.73 0.00
 6 23 13 2.02 0.00
 7 23 13 -4.77 0.00
 8 23 13 -0.08 0.00
 9 23 13 4.86 0.00
 10 23 13 2.39 0.00
 11 23 13 -9.41 0.00
 12 23 13 -2.39 0.00
 13 23 13 2.82 0.00
 14 23 13 5.47 0.00
 15 23 13 0.21 0.00
 16 23 13 -1.18 0.00
 1 24 13 10.25 0.00
 2 24 13 0.59 0.00
 3 24 13 -7.59 0.00
 4 24 13 -0.67 0.00
 5 24 13 12.40 0.00
 6 24 13 -8.53 0.00
 7 24 13 -2.06 0.00
 8 24 13 1.31 0.00
 9 24 13 -6.97 0.00
 10 24 13 0.80 0.00
 11 24 13 -5.14 0.00
 12 24 13 -3.92 0.00
 13 24 13 -3.94 0.00
 14 24 13 1.21 0.00
 15 24 13 -1.56 0.00
 16 24 13 3.07 0.00
 0 25 13 -5.90 0.00
 1 25 13 -1.60 0.00
 2 25 13 -3.07 0.00
 3 25 13 -10.88 0.00
 4 25 13 0.38 0.00
 5 25 13 -4.25 0.00
 6 25 13 3.33 0.00
 7 25 13 0.99 0.00
 8 25 13 -4.43 0.00
 9 25 13 5.54 0.00
 10 25 13 1.13 0.00
 11 25 13 0.68 0.00
 12 25 13 3.09 0.00
 13 25 13 -3.77 0.00
 14 25 13 -8.31 0.00
 15 25 13 5.37 0.00
 1 26 13 -2.86 0.00
 2 26 13 -0.55 0.00
 3 26 13 1.75 0.00
 4 26 13 -0.06 0.00
 5 26 13 -1.82 0.00
 6 26 13 6.73 0.00
 7 26 13 -6.32 0.00
 8 26 13 4.26 0.00
 9 26 13 10.84 0.00
 10 26 13 3.21 0.00
 11 26 13 2.26 0.00
 12 26 13 -1.72 0.00
 13 26 13 4.61 0.00
 0 27 13 8.28 0.00
 1 27 13 -1.15 0.00
 2 27 13 3.72 0.00
 3 27 13 4.68 0.00
 4 27 13 -8.97 0.00
 5 27 13 5.44 0.00
 6 27 13 2.09 0.00
 7 27 13 -0.09 0.00
 8 27 13 -0.27 0.00
 9 27 13 -1.79 0.00
 10 27 13 -1.00 0.00
 11 27 13 -0.28 0.00
 12 27 13 1.25 0.00
 1 28 13 -8.85 0.00
 2 28 13 3.86 0.00
 3 28 13 4.95 0.00
 4 28 13 -1.91 0.00
 5 28 13 -4.91 0.00
 6 28 13 -6.61 0.00
 7 28 13 -1.52 0.00
 8 28 13 -1.18 0.00
 9 28 13 0.10 0.00
 10 28 13 -9.35 0.00
 11 28 13 -3.93 0.00
 0 29 13 -3.29 0.00
 1 29 13 3.12 0.00
 2 29 13 -1.67 0.00
 3 29 13 2.11 0.00
 4 29 13 4.18 0.00
 5 29 13 -3.31 0.00
 6 29 13 0.79 0.00
 7 29 13 -3.63 0.00
 8 29 13 1.71 0.00
 9 29 13 0.26 0.00
 1 30 13 -4.48 0.00
 2 30 13 0.13 0.00
 3 30 13 3.60 0.00
 4 30 13 1.62 0.00
 5 30 13 5.77 0.00
 6 30 13 1.08 0.00
 7 30 13 0.72 0.00
 0 31 13 0.29 0.00
 1 31 13 -7.27 0.00
 2 31 13 -3.74 0.00
 3 31 13 2.83 0.00
 0 0 14 -20.83 0.00
 2 0 14 27.57 0.00
 4 0 14 -13.20 0.00
 6 0 14 5.87 0.00
 8 0 14 -22.42 0.00
 10 0 14 1.99 0.00
 12 0 14 2.73 0.00
 14 0 14 4.51 0.00
 16 0 14 12.24 0.00
 18 0 14 -9.43 0.00
 20 0 14 9.54 0.00
 22 0 14 -6.21 0.00
 1 1 14 6.24 0.00
 2 1 14 3.66 0.00
 3 1 14 1.48 0.00
 4 1 14 4.29 0.00
 5 1 14 9.22 0.00
 6 1 14 5.10 0.00
 7 1 14 -5.20 0.00
 8 1 14 8.65 0.00
 9 1 14 0.27 0.00
 10 1 14 -20.04 0.00
 11 1 14 3.45 0.00
 12 1 14 14.44 0.00
 13 1 14 -4.61 0.00
 14 1 14 -20.48 0.00
 15 1 14 0.91 0.00
 16 1 14 5.96 0.00
 17 1 14 -1.41 0.00
 18 1 14 -2.99 0.00
 19 1 14 0.17 0.00
 20 1 14 3.07 0.00
 21 1 14 -0.85 0.00
 22 1 14 7.39 0.00
 23 1 14 0.07 0.00
 0 2 14 -5.97 0.00
 1 2 14 -4.80 0.00
 2 2 14 2.83 0.00
 3 2 14 -21.52 0.00
 4 2 14 -4.42 0.00
 5 2 14 13.13 0.00
 6 2 14 1.81 0.00
 7 2 14 3.16 0.00
 8 2 14 7.04 0.00
 9 2 14 -3.18 0.00
 10 2 14 11.87 0.00
 11 2 14 -6.67 0.00
 12 2 14 -16.50 0.00
 13 2 14 13.50 0.00
 14 2 14 4.52 0.00
 15 2 14 -8.99 0.00
 16 2 14 -7.71 0.00
 17 2 14 0.55 0.00
 18 2 14 -1.97 0.00
 19 2 14 4.58 0.00
 20 2 14 -0.73 0.00
 21 2 14 -10.19 0.00
 22 2 14 3.07 0.00
 23 2 14 6.12 0.00
 1 3 14 -8.34 0.00
 2 3 14 1.17 0.00
 3 3 14 -9.42 0.00
 4 3 14 1.96 0.00
 5 3 14 -5.95 0.00
 6 3 14 -3.76 0.00
 7 3 14 2.54 0.00
 8 3 14 -2.91 0.00
 9 3 14 -0.37 0.00
 10 3 14 -5.47 0.00
 11 3 14 0.99 0.00
 12 3 14 4.40 0.00
 13 3 14 5.32 0.00
 14 3 14 3.85 0.00
 15 3 14 -2.19 0.00
 16 3 14 0.83 0.00
 17 3 14 7.27 0.00
 18 3 14 2.09 0.00
 19 3 14 -4.38 0.00
 20 3 14 0.53 0.00
 21 3 14 6.35 0.00
 22 3 14 -6.22 0.00
 23 3 14 -3.22 0.00
 0 4 14 6.48 0.00
 1 4 14 5.92 0.00
 2 4 14 -18.18 0.00
 3 4 14 16.83 0.00
 4 4 14 4.26 0.00
 5 4 14 -3.26 0.00
 6 4 14 11.72 0.00
 7 4 14 -7.19 0.00
 8 4 14 -8.80 0.00
 9 4 14 9.80 0.00
 10 4 14 1.48 0.00
 11 4 14 -6.91 0.00
 12 4 14 1.22 0.00
 13 4 14 11.52 0.00
 14 4 14 5.74 0.00
 15 4 14 -7.98 0.00
 16 4 14 0.04 0.00
 17 4 14 -0.05 0.00
 18 4 14 2.26 0.00
 19 4 14 7.19 0.00
 20 4 14 1.74 0.00
 21 4 14 -0.54 0.00
 22 4 14 2.73 0.00
 23 4 14 -0.44 0.00
 1 5 14 10.07 0.00
 2 5 14 -3.30 0.00
 3 5 14 1.24 0.00
 4 5 14 -17.91 0.00
 5 5 14 -6.50 0.00
 6 5 14 10.30 0.00
 7 5 14 5.17 0.00
 8 5 14 2.37 0.00
 9 5 14 -5.18 0.00
 10 5 14 9.60 0.00
 11 5 14 -5.71 0.00
 12 5 14 -1.98 0.00
 13 5 14 -3.94 0.00
 14 5 14 3.44 0.00
 15 5 14 -0.47 0.00
 16 5 14 -5.82 0.00
 17 5 14 -2.12 0.00
 18 5 14 -2.20 0.00
 19 5 14 -5.35 0.00
 20 5 14 3.34 0.00
 21 5 14 2.89 0.00
 22 5 14 -4.30 0.00
 23 5 14 -5.27 0.00
 0 6 14 19.07 0.00
 1 6 14 -0.89 0.00
 2 6 14 13.27 0.00
 3 6 14 -0.42 0.00
 4 6 14 -4.95 0.00
 5 6 14 -14.37 0.00
 6 6 14 -8.58 0.00
 7 6 14 5.23 0.00
 8 6 14 2.55 0.00
 9 6 14 -3.36 0.00
 10 6 14 -5.64 0.00
 11 6 14 -6.92 0.00
 12 6 14 0.69 0.00
 13 6 14 -3.82 0.00
 14 6 14 -6.45 0.00
 15 6 14 -0.29 0.00
 16 6 14 2.58 0.00
 17 6 14 2.12 0.00
 18 6 14 -4.61 0.00
 19 6 14 -3.27 0.00
 20 6 14 0.84 0.00
 21 6 14 0.28 0.00
 22 6 14 -1.51 0.00
 23 6 14 -0.83 0.00
 1 7 14 -17.14 0.00
 2 7 14 11.89 0.00
 3 7 14 22.20 0.00
 4 7 14 8.98 0.00
 5 7 14 1.32 0.00
 6 7 14 -5.34 0.00
 7 7 14 7.39 0.00
 8 7 14 0.79 0.00
 9 7 14 -0.72 0.00
 10 7 14 -10.05 0.00
 11 7 14 11.09 0.00
 12 7 14 -5.31 0.00
 13 7 14 0.26 0.00
 14 7 14 6.57 0.00
 15 7 14 5.63 0.00
 16 7 14 -4.14 0.00
 17 7 14 -3.56 0.00
 18 7 14 -3.64 0.00
 19 7 14 5.67 0.00
 20 7 14 13.12 0.00
 21 7 14 0.54 0.00
 22 7 14 -7.26 0.00
 23 7 14 2.21 0.00
 0 8 14 -40.75 0.00
 1 8 14 -9.21 0.00
 2 8 14 7.97 0.00
 3 8 14 4.56 0.00
 4 8 14 -5.18 0.00
 5 8 14 10.10 0.00
 6 8 14 0.62 0.00
 7 8 14 2.76 0.00
 8 8 14 3.28 0.00
 9 8 14 4.68 0.00
 10 8 14 3.47 0.00
 11 8 14 5.26 0.00
 12 8 14 7.43 0.00
 13 8 14 6.69 0.00
 14 8 14 -4.97 0.00
 15 8 14 1.70 0.00
 16 8 14 10.93 0.00
 17 8 14 -2.30 0.00
 18 8 14 -6.20 0.00
 19 8 14 -1.11 0.00
 20 8 14 2.15 0.00
 21 8 14 -0.63 0.00
 22 8 14 -0.44 0.00
 23 8 14 -1.03 0.00
 1 9 14 -26.66 0.00
 2 9 14 -4.81 0.00
 3 9 14 4.88 0.00
 4 9 14 2.07 0.00
 5 9 14 -16.56 0.00
 6 9 14 -0.65 0.00
 7 9 14 -3.69 0.00
 8 9 14 1.54 0.00
 9 9 14 -0.84 0.00
 10 9 14 -0.06 0.00
 11 9 14 -4.55 0.00
 12 9 14 9.87 0.00
 13 9 14 -5.13 0.00
 14 9 14 -5.86 0.00
 15 9 14 -0.49 0.00
 16 9 14 3.85 0.00
 17 9 14 0.82 0.00
 18 9 14 2.84 0.00
 19 9 14 -2.03 0.00
 20 9 14 -7.02 0.00
 21 9 14 0.32 0.00
 22 9 14 -0.52 0.00
 0 10 14 19.00 0.00
 1 10 14 9.01 0.00
 2 10 14 -10.81 0.00
 3 10 14 -9.84 0.00
 4 10 14 7.77 0.00
 5 10 14 -3.50 0.00
 6 10 14 8.83 0.00
 7 10 14 -9.84 0.00
 8 10 14 -8.53 0.00
 9 10 14 3.24 0.00
 10 10 14 -1.28 0.00
 11 10 14 -5.91 0.00
 12 10 14 -4.18 0.00
 13 10 14 -9.09 0.00
 14 10 14 -3.70 0.00
 15 10 14 2.00 0.00
 16 10 14 -0.44 0.00
 17 10 14 1.17 0.00
 18 10 14 -0.97 0.00
 19 10 14 -0.63 0.00
 20 10 14 0.87 0.00
 21 10 14 6.65 0.00
 22 10 14 1.59 0.00
 1 11 14 9.50 0.00
 2 11 14 -7.26 0.00
 3 11 14 5.39 0.00
 4 11 14 -11.73 0.00
 5 11 14 1.05 0.00
 6 11 14 4.59 0.00
 7 11 14 0.98 0.00
 8 11 14 -2.11 0.00
 9 11 14 1.01 0.00
 10 11 14 -1.39 0.00
 11 11 14 1.68 0.00
 12 11 14 -3.73 0.00
 13 11 14 2.74 0.00
 14 11 14 3.72 0.00
 15 11 14 -1.62 0.00
 16 11 14 -5.20 0.00
 17 11 14 5.39 0.00
 18 11 14 2.92 0.00
 19 11 14 -7.33 0.00
 20 11 14 -1.53 0.00
 21 11 14 8.40 0.00
 22 11 14 3.98 0.00
 0 12 14 23.86 0.00
 1 12 14 -4.44 0.00
 2 12 14 -4.59 0.00
 3 12 14 13.09 0.00
 4 12 14 -6.11 0.00
 5 12 14 5.56 0.00
 6 12 14 2.91 0.00
 7 12 14 -3.57 0.00
 8 12 14 -6.46 0.00
 9 12 14 2.69 0.00
 10 12 14 8.75 0.00
 11 12 14 -2.04 0.00
 12 12 14 2.14 0.00
 13 12 14 7.33 0.00
 14 12 14 -3.45 0.00
 15 12 14 1.91 0.00
 16 12 14 8.27 0.00
 17 12 14 -2.84 0.00
 18 12 14 -3.42 0.00
 19 12 14 3.28 0.00
 20 12 14 0.53 0.00
 21 12 14 -5.57 0.00
 1 13 14 11.47 0.00
 2 13 14 15.37 0.00
 3 13 14 -12.56 0.00
 4 13 14 5.14 0.00
 5 13 14 8.88 0.00
 6 13 14 4.95 0.00
 7 13 14 11.23 0.00
 8 13 14 -2.39 0.00
 9 13 14 -8.29 0.00
 10 13 14 9.13 0.00
 11 13 14 4.04 0.00
 12 13 14 -5.98 0.00
 13 13 14 0.30 0.00
 14 13 14 1.70 0.00
 15 13 14 -3.64 0.00
 16 13 14 -1.44 0.00
 17 13 14 -0.31 0.00
 18 13 14 0.22 0.00
 19 13 14 -0.26 0.00
 20 13 14 4.26 0.00
 21 13 14 0.42 0.00
 0 14 14 -22.39 0.00
 1 14 14 -3.26 0.00
 2 14 14 8.22 0.00
 3 14 14 -3.22 0.00
 4 14 14 -6.52 0.00
 5 14 14 -5.53 0.00
 6 14 14 3.70 0.00
 7 14 14 1.72 0.00
 8 14 14 0.79 0.00
 9 14 14 10.19 0.00
 10 14 14 -8.84 0.00
 11 14 14 -4.58 0.00
 12 14 14 7.77 0.00
 13 14 14 -0.71 0.00
 14 14 14 -4.09 0.00
 15 14 14 -5.92 0.00
 16 14 14 -0.89 0.00
 17 14 14 0.93 0.00
 18 14 14 -1.67 0.00
 19 14 14 -3.95 0.00
 20 14 14 1.22 0.00
 21 14 14 -3.87 0.00
 1 15 14 8.10 0.00
 2 15 14 -6.02 0.00
 3 15 14 -5.28 0.00
 4 15 14 -0.64 0.00
 5 15 14 -7.62 0.00
 6 15 14 -6.38 0.00
 7 15 14 -8.43 0.00
 8 15 14 -2.35 0.00
 9 15 14 1.62 0.00
 10 15 14 -2.47 0.00
 11 15 14 -5.32 0.00
 12 15 14 3.60 0.00
 13 15 14 5.61 0.00
 14 15 14 -4.91 0.00
 15 15 14 -3.13 0.00
 16 15 14 10.93 0.00
 17 15 14 4.41 0.00
 18 15 14 -7.00 0.00
 19 15 14 0.41 0.00
 20 15 14 -3.00 0.00
 0 16 14 -1.76 0.00
 1 16 14 -2.39 0.00
 2 16 14 -4.81 0.00
 3 16 14 7.90 0.00
 4 16 14 8.09 0.00
 5 16 14 -4.45 0.00
 6 16 14 -3.20 0.00
 7 16 14 -7.36 0.00
 8 16 14 3.13 0.00
 9 16 14 5.75 0.00
 10 16 14 0.39 0.00
 11 16 14 -12.44 0.00
 12 16 14 2.66 0.00
 13 16 14 10.35 0.00
 14 16 14 -7.01 0.00
 15 16 14 0.58 0.00
 16 16 14 1.86 0.00
 17 16 14 9.36 0.00
 18 16 14 -0.40 0.00
 19 16 14 -0.77 0.00
 20 16 14 2.99 0.00
 1 17 14 -4.88 0.00
 2 17 14 -1.03 0.00
 3 17 14 6.80 0.00
 4 17 14 -8.07 0.00
 5 17 14 2.35 0.00
 6 17 14 7.37 0.00
 7 17 14 7.94 0.00
 8 17 14 -1.48 0.00
 9 17 14 1.77 0.00
 10 17 14 -0.85 0.00
 11 17 14 3.03 0.00
 12 17 14 4.97 0.00
 13 17 14 -5.53 0.00
 14 17 14 -8.76 0.00
 15 17 14 7.13 0.00
 16 17 14 4.56 0.00
 17 17 14 -7.40 0.00
 18 17 14 -2.93 0.00
 19 17 14 6.83 0.00
 0 18 14 24.90 0.00
 1 18 14 0.70 0.00
 2 18 14 -5.68 0.00
 3 18 14 6.35 0.00
 4 18 14 3.48 0.00
 5 18 14 0.91 0.00
 6 18 14 -1.90 0.00
 7 18 14 1.22 0.00
 8 18 14 -0.06 0.00
 9 18 14 1.67 0.00
 10 18 14 -3.78 0.00
 11 18 14 1.65 0.00
 12 18 14 1.58 0.00
 13 18 14 -1.78 0.00
 14 18 14 5.06 0.00
 15 18 14 -8.55 0.00
 16 18 14 5.65 0.00
 17 18 14 -2.70 0.00
 18 18 14 -1.10 0.00
 19 18 14 -0.62 0.00
 1 19 14 -2.57 0.00
 2 19 14 5.54 0.00
 3 19 14 4.90 0.00
 4 19 14 3.74 0.00
 5 19 14 -10.30 0.00
 6 19 14 3.21 0.00
 7 19 14 0.42 0.00
 8 19 14 0.85 0.00
 9 19 14 -3.92 0.00
 10 19 14 0.57 0.00
 11 19 14 -0.26 0.00
 12 19 14 1.36 0.00
 13 19 14 -3.87 0.00
 14 19 14 -1.00 0.00
 15 19 14 3.47 0.00
 16 19 14 1.80 0.00
 17 19 14 -6.57 0.00
 18 19 14 0.39 0.00
 0 20 14 -10.88 0.00
 1 20 14 -2.83 0.00
 2 20 14 1.59 0.00
 3 20 14 -6.47 0.00
 4 20 14 -6.89 0.00
 5 20 14 -0.97 0.00
 6 20 14 1.90 0.00
 7 20 14 3.43 0.00
 8 20 14 -0.13 0.00
 9 20 14 -0.95 0.00
 10 20 14 2.05 0.00
 11 20 14 -2.89 0.00
 12 20 14 -2.64 0.00
 13 20 14 9.40 0.00
 14 20 14 -4.55 0.00
 15 20 14 -1.43 0.00
 16 20 14 -7.66 0.00
 17 20 14 2.65 0.00
 1 21 14 -5.13 0.00
 2 21 14 -1.03 0.00
 3 21 14 2.92 0.00
 4 21 14 2.11 0.00
 5 21 14 -0.66 0.00
 6 21 14 -10.40 0.00
 7 21 14 6.25 0.00
 8 21 14 2.90 0.00
 9 21 14 -4.13 0.00
 10 21 14 -3.23 0.00
 11 21 14 7.15 0.00
 12 21 14 -1.64 0.00
 13 21 14 -2.84 0.00
 14 21 14 -2.23 0.00
 15 21 14 4.39 0.00
 16 21 14 4.25 0.00
 17 21 14 3.57 0.00
 0 22 14 -7.11 0.00
 1 22 14 4.25 0.00
 2 22 14 -0.33 0.00
 3 22 14 0.40 0.00
 4 22 14 4.73 0.00
 5 22 14 1.07 0.00
 6 22 14 -2.62 0.00
 7 22 14 -3.26 0.00
 8 22 14 4.85 0.00
 9 22 14 -0.34 0.00
 10 22 14 -3.23 0.00
 11 22 14 -2.40 0.00
 12 22 14 4.14 0.00
 13 22 14 -3.15 0.00
 14 22 14 2.90 0.00
 15 22 14 0.80 0.00
 16 22 14 6.82 0.00
 1 23 14 0.18 0.00
 2 23 14 1.23 0.00
 3 23 14 -1.85 0.00
 4 23 14 -4.07 0.00
 5 23 14 1.33 0.00
 6 23 14 -1.99 0.00
 7 23 14 -2.60 0.00
 8 23 14 8.01 0.00
 9 23 14 1.73 0.00
 10 23 14 -2.71 0.00
 11 23 14 0.38 0.00
 12 23 14 6.03 0.00
 13 23 14 -2.64 0.00
 14 23 14 1.22 0.00
 15 23 14 -0.83 0.00
 0 24 14 11.20 0.00
 1 24 14 -1.17 0.00
 2 24 14 0.26 0.00
 3 24 14 1.68 0.00
 4 24 14 5.20 0.00
 5 24 14 -3.94 0.00
 6 24 14 -2.40 0.00
 7 24 14 5.54 0.00
 8 24 14 -3.80 0.00
 9 24 14 -1.02 0.00
 10 24 14 1.39 0.00
 11 24 14 4.22 0.00
 12 24 14 -1.65 0.00
 13 24 14 0.73 0.00
 14 24 14 -2.24 0.00
 1 25 14 0.71 0.00
 2 25 14 -2.99 0.00
 3 25 14 3.02 0.00
 4 25 14 4.01 0.00
 5 25 14 1.54 0.00
 6 25 14 3.19 0.00
 7 25 14 -4.50 0.00
 8 25 14 -0.52 0.00
 9 25 14 -3.42 0.00
 10 25 14 -4.78 0.00
 11 25 14 3.57 0.00
 12 25 14 -4.24 0.00
 13 25 14 -6.99 0.00
 0 26 14 -8.23 0.00
 1 26 14 -0.74 0.00
 2 26 14 2.59 0.00
 3 26 14 -2.45 0.00
 4 26 14 -6.18 0.00
 5 26 14 5.46 0.00
 6 26 14 -3.53 0.00
 7 26 14 -1.20 0.00
 8 26 14 9.33 0.00
 9 26 14 -2.26 0.00
 10 26 14 -6.82 0.00
 11 26 14 -4.04 0.00
 12 26 14 2.48 0.00
 1 27 14 -1.30 0.00
 2 27 14 4.71 0.00
 3 27 14 -10.80 0.00
 4 27 14 -1.44 0.00
 5 27 14 8.31 0.00
 6 27 14 -2.08 0.00
 7 27 14 1.57 0.00
 8 27 14 -1.03 0.00
 9 27 14 1.92 0.00
 10 27 14 3.46 0.00
 0 28 14 -12.42 0.00
 1 28 14 2.95 0.00
 2 28 14 8.21 0.00
 3 28 14 -3.24 0.00
 4 28 14 -5.43 0.00
 5 28 14 -2.87 0.00
 6 28 14 2.09 0.00
 7 28 14 -0.49 0.00
 8 28 14 5.52 0.00
 1 29 14 6.53 0.00
 2 29 14 -0.65 0.00
 3 29 14 0.81 0.00
 4 29 14 -3.63 0.00
 5 29 14 -0.22 0.00
 6 29 14 0.45 0.00
 0 30 14 -6.29 0.00
 1 30 14 -0.04 0.00
 2 30 14 10.65 0.00
 1 0 15 22.63 0.00
 3 0 15 -13.94 0.00
 5 0 15 14.29 0.00
 7 0 15 -7.85 0.00
 9 0 15 15.01 0.00
 11 0 15 9.94 0.00
 13 0 15 8.02 0.00
 15 0 15 9.67 0.00
 17 0 15 -16.40 0.00
 19 0 15 14.30 0.00
 21 0 15 -10.49 0.00
 0 1 15 18.97 0.00
 1 1 15 7.55 0.00
 2 1 15 -4.26 0.00
 3 1 15 1.74 0.00
 4 1 15 10.34 0.00
 5 1 15 2.75 0.00
 6 1 15 -13.38 0.00
 7 1 15 -2.27 0.00
 8 1 15 6.44 0.00
 9 1 15 -17.57 0.00
 10 1 15 0.42 0.00
 11 1 15 12.13 0.00
 12 1 15 -3.59 0.00
 13 1 15 -17.70 0.00
 14 1 15 1.05 0.00
 15 1 15 12.27 0.00
 16 1 15 0.26 0.00
 17 1 15 -2.21 0.00
 18 1 15 -1.09 0.00
 19 1 15 -2.76 0.00
 20 1 15 3.57 0.00
 21 1 15 1.21 0.00
 22 1 15 -2.65 0.00
 1 2 15 1.73 0.00
 2 2 15 1.14 0.00
 3 2 15 -8.95 0.00
 4 2 15 19.75 0.00
 5 2 15 -0.47 0.00
 6 2 15 -1.36 0.00
 7 2 15 -1.10 0.00
 8 2 15 -4.90 0.00
 9 2 15 -1.56 0.00
 10 2 15 -5.38 0.00
 11 2 15 -18.82 0.00
 12 2 15 8.84 0.00
 13 2 15 1.54 0.00
 14 2 15 -3.54 0.00
 15 2 15 -4.45 0.00
 16 2 15 -8.35 0.00
 17 2 15 0.24 0.00
 18 2 15 7.92 0.00
 19 2 15 0.47 0.00
 20 2 15 -5.90 0.00
 21 2 15 4.07 0.00
 22 2 15 5.38 0.00
 0 3 15 -19.32 0.00
 1 3 15 -0.49 0.00
 2 3 15 -12.47 0.00
 3 3 15 -5.77 0.00
 4 3 15 2.56 0.00
 5 3 15 -2.95 0.00
 6 3 15 3.37 0.00
 7 3 15 2.40 0.00
 8 3 15 -0.25 0.00
 9 3 15 0.65 0.00
 10 3 15 -1.96 0.00
 11 3 15 8.78 0.00
 12 3 15 -0.28 0.00
 13 3 15 0.67 0.00
 14 3 15 2.29 0.00
 15 3 15 -1.78 0.00
 16 3 15 5.69 0.00
 17 3 15 2.52 0.00
 18 3 15 -12.74 0.00
 19 3 15 -2.76 0.00
 20 3 15 8.03 0.00
 21 3 15 0.98 0.00
 22 3 15 -4.62 0.00
 1 4 15 -3.29 0.00
 2 4 15 -1.35 0.00
 3 4 15 13.44 0.00
 4 4 15 -15.59 0.00
 5 4 15 7.15 0.00
 6 4 15 -4.02 0.00
 7 4 15 -9.29 0.00
 8 4 15 19.20 0.00
 9 4 15 4.87 0.00
 10 4 15 -8.75 0.00
 11 4 15 2.62 0.00
 12 4 15 6.71 0.00
 13 4 15 4.22 0.00
 14 4 15 0.73 0.00
 15 4 15 -4.53 0.00
 16 4 15 -2.41 0.00
 17 4 15 4.14 0.00
 18 4 15 11.25 0.00
 19 4 15 -0.69 0.00
 20 4 15 -8.26 0.00
 21 4 15 -2.16 0.00
 22 4 15 0.74 0.00
 0 5 15 19.21 0.00
 1 5 15 -3.79 0.00
 2 5 15 5.22 0.00
 3 5 15 -3.58 0.00
 4 5 15 -2.52 0.00
 5 5 15 13.99 0.00
 6 5 15 2.91 0.00
 7 5 15 -1.52 0.00
 8 5 15 3.55 0.00
 9 5 15 -0.75 0.00
 10 5 15 2.82 0.00
 11 5 15 -5.56 0.00
 12 5 15 -3.07 0.00
 13 5 15 -0.15 0.00
 14 5 15 1.52 0.00
 15 5 15 -2.09 0.00
 16 5 15 -0.98 0.00
 17 5 15 0.37 0.00
 18 5 15 0.26 0.00
 19 5 15 3.10 0.00
 20 5 15 2.18 0.00
 21 5 15 -1.28 0.00
 22 5 15 0.79 0.00
 1 6 15 -2.49 0.00
 2 6 15 -1.27 0.00
 3 6 15 -16.51 0.00
 4 6 15 -1.04 0.00
 5 6 15 -5.60 0.00
 6 6 15 -2.39 0.00
 7 6 15 8.70 0.00
 8 6 15 -8.84 0.00
 9 6 15 -2.72 0.00
 10 6 15 -5.73 0.00
 11 6 15 -0.34 0.00
 12 6 15 -2.52 0.00
 13 6 15 5.08 0.00
 14 6 15 0.69 0.00
 15 6 15 -1.43 0.00
 16 6 15 -5.64 0.00
 17 6 15 1.73 0.00
 18 6 15 1.58 0.00
 19 6 15 -0.28 0.00
 20 6 15 -1.79 0.00
 21 6 15 0.60 0.00
 22 6 15 1.44 0.00
 0 7 15 -24.96 0.00
 1 7 15 8.50 0.00
 2 7 15 18.26 0.00
 3 7 15 2.43 0.00
 4 7 15 -12.16 0.00
 5 7 15 -9.82 0.00
 6 7 15 1.45 0.00
 7 7 15 1.51 0.00
 8 7 15 -13.78 0.00
 9 7 15 -2.15 0.00
 10 7 15 1.73 0.00
 11 7 15 2.75 0.00
 12 7 15 -1.23 0.00
 13 7 15 4.12 0.00
 14 7 15 2.76 0.00
 15 7 15 -5.65 0.00
 16 7 15 -6.15 0.00
 17 7 15 -0.22 0.00
 18 7 15 8.55 0.00
 19 7 15 4.82 0.00
 20 7 15 -4.47 0.00
 21 7 15 -7.31 0.00
 22 7 15 0.25 0.00
 1 8 15 22.16 0.00
 2 8 15 8.31 0.00
 3 8 15 2.20 0.00
 4 8 15 10.17 0.00
 5 8 15 2.80 0.00
 6 8 15 4.82 0.00
 7 8 15 1.02 0.00
 8 8 15 10.04 0.00
 9 8 15 1.36 0.00
 10 8 15 3.67 0.00
 11 8 15 -0.84 0.00
 12 8 15 5.42 0.00
 13 8 15 -5.89 0.00
 14 8 15 2.44 0.00
 15 8 15 0.78 0.00
 16 8 15 -1.25 0.00
 17 8 15 -4.24 0.00
 18 8 15 1.09 0.00
 19 8 15 1.46 0.00
 20 8 15 0.63 0.00
 21 8 15 -1.59 0.00
 0 9 15 -15.94 0.00
 1 9 15 -7.09 0.00
 2 9 15 11.63 0.00
 3 9 15 4.84 0.00
 4 9 15 -8.77 0.00
 5 9 15 -2.56 0.00
 6 9 15 15.11 0.00
 7 9 15 0.14 0.00
 8 9 15 2.01 0.00
 9 9 15 -0.76 0.00
 10 9 15 6.31 0.00
 11 9 15 6.03 0.00
 12 9 15 -2.94 0.00
 13 9 15 -6.35 0.00
 14 9 15 -1.15 0.00
 15 9 15 6.40 0.00
 16 9 15 1.07 0.00
 17 9 15 3.13 0.00
 18 9 15 -2.66 0.00
 19 9 15 -6.58 0.00
 20 9 15 -1.86 0.00
 21 9 15 6.99 0.00
 1 10 15 -21.35 0.00
 2 10 15 -11.30 0.00
 3 10 15 8.69 0.00
 4 10 15 -6.54 0.00
 5 10 15 3.21 0.00
 6 10 15 -6.75 0.00
 7 10 15 -10.99 0.00
 8 10 15 -2.02 0.00
 9 10 15 1.41 0.00
 10 10 15 -10.23 0.00
 11 10 15 0.26 0.00
 12 10 15 -1.71 0.00
 13 10 15 2.33 0.00
 14 10 15 -1.52 0.00
 15 10 15 2.88 0.00
 16 10 15 1.22 0.00
 17 10 15 0.67 0.00
 18 10 15 -3.22 0.00
 19 10 15 3.63 0.00
 20 10 15 4.77 0.00
 21 10 15 -3.71 0.00
 0 11 15 13.75 0.00
 1 11 15 -3.93 0.00
 2 11 15 -14.77 0.00
 3 11 15 -4.15 0.00
 4 11 15 -0.37 0.00
 5 11 15 5.46 0.00
 6 11 15 -2.06 0.00
 7 11 15 -1.12 0.00
 8 11 15 -6.30 0.00
 9 11 15 -0.84 0.00
 10 11 15 -1.34 0.00
 11 11 15 -3.61 0.00
 12 11 15 5.76 0.00
 13 11 15 1.94 0.00
 14 11 15 -4.56 0.00
 15 11 15 -7.45 0.00
 16 11 15 6.93 0.00
 17 11 15 2.80 0.00
 18 11 15 -3.23 0.00
 19 11 15 -4.79 0.00
 20 11 15 6.98 0.00
 21 11 15 4.26 0.00
 1 12 15 -10.81 0.00
 2 12 15 10.90 0.00
 3 12 15 -3.62 0.00
 4 12 15 -3.28 0.00
 5 12 15 0.50 0.00
 6 12 15 -0.84 0.00
 7 12 15 -4.47 0.00
 8 12 15 8.22 0.00
 9 12 15 7.82 0.00
 10 12 15 -3.63 0.00
 11 12 15 -3.25 0.00
 12 12 15 10.71 0.00
 13 12 15 -1.15 0.00
 14 12 15 -4.13 0.00
 15 12 15 2.73 0.00
 16 12 15 0.85 0.00
 17 12 15 -6.09 0.00
 18 12 15 1.85 0.00
 19 12 15 1.47 0.00
 20 12 15 -1.97 0.00
 0 13 15 26.74 0.00
 1 13 15 11.20 0.00
 2 13 15 -9.52 0.00
 3 13 15 0.57 0.00
 4 13 15 14.52 0.00
 5 13 15 3.04 0.00
 6 13 15 2.62 0.00
 7 13 15 0.21 0.00
 8 13 15 -11.05 0.00
 9 13 15 5.74 0.00
 10 13 15 5.80 0.00
 11 13 15 -5.48 0.00
 12 13 15 -1.37 0.00
 13 13 15 6.70 0.00
 14 13 15 -4.54 0.00
 15 13 15 -0.08 0.00
 16 13 15 0.43 0.00
 17 13 15 4.03 0.00
 18 13 15 -0.15 0.00
 19 13 15 1.37 0.00
 20 13 15 0.98 0.00
 1 14 15 15.05 0.00
 2 14 15 -0.04 0.00
 3 14 15 -1.47 0.00
 4 14 15 2.61 0.00
 5 14 15 4.77 0.00
 6 14 15 3.23 0.00
 7 14 15 4.03 0.00
 8 14 15 2.56 0.00
 9 14 15 -2.32 0.00
 10 14 15 -4.79 0.00
 11 14 15 3.37 0.00
 12 14 15 0.20 0.00
 13 14 15 -5.81 0.00
 14 14 15 -3.74 0.00
 15 14 15 0.34 0.00
 16 14 15 5.79 0.00
 17 14 15 1.01 0.00
 18 14 15 -7.49 0.00
 19 14 15 2.09 0.00
 0 15 15 -1.65 0.00
 1 15 15 -7.43 0.00
 2 15 15 -11.79 0.00
 3 15 15 1.51 0.00
 4 15 15 -2.92 0.00
 5 15 15 -10.53 0.00
 6 15 15 1.59 0.00
 7 15 15 -3.69 0.00
 8 15 15 6.85 0.00
 9 15 15 -1.29 0.00
 10 15 15 -1.49 0.00
 11 15 15 3.16 0.00
 12 15 15 4.43 0.00
 13 15 15 -7.70 0.00
 14 15 15 -3.75 0.00
 15 15 15 7.47 0.00
 16 15 15 3.84 0.00
 17 15 15 -9.21 0.00
 18 15 15 -5.38 0.00
 19 15 15 0.78 0.00
 1 16 15 -4.21 0.00
 2 16 15 3.66 0.00
 3 16 15 8.88 0.00
 4 16 15 -8.81 0.00
 5 16 15 -12.58 0.00
 6 16 15 -1.71 0.00
 7 16 15 2.45 0.00
 8 16 15 1.46 0.00
 9 16 15 -0.52 0.00
 10 16 15 -4.89 0.00
 11 16 15 0.94 0.00
 12 16 15 5.26 0.00
 13 16 15 -0.47 0.00
 14 16 15 -4.44 0.00
 15 16 15 7.47 0.00
 16 16 15 7.67 0.00
 17 16 15 -3.08 0.00
 18 16 15 -7.89 0.00
 19 16 15 1.24 0.00
 0 17 15 -0.78 0.00
 1 17 15 -3.71 0.00
 2 17 15 7.38 0.00
 3 17 15 0.62 0.00
 4 17 15 -2.01 0.00
 5 17 15 12.37 0.00
 6 17 15 0.16 0.00
 7 17 15 -1.68 0.00
 8 17 15 -6.70 0.00
 9 17 15 2.99 0.00
 10 17 15 0.66 0.00
 11 17 15 6.60 0.00
 12 17 15 -5.01 0.00
 13 17 15 -9.98 0.00
 14 17 15 8.41 0.00
 15 17 15 5.36 0.00
 16 17 15 -4.84 0.00
 17 17 15 -2.66 0.00
 18 17 15 9.91 0.00
 1 18 15 -12.61 0.00
 2 18 15 -0.90 0.00
 3 18 15 2.03 0.00
 4 18 15 1.47 0.00
 5 18 15 -1.46 0.00
 6 18 15 0.89 0.00
 7 18 15 1.28 0.00
 8 18 15 -2.52 0.00
 9 18 15 -3.56 0.00
 10 18 15 8.82 0.00
 11 18 15 -4.65 0.00
 12 18 15 -5.48 0.00
 13 18 15 4.21 0.00
 14 18 15 -1.22 0.00
 15 18 15 -5.01 0.00
 16 18 15 4.93 0.00
 17 18 15 -3.33 0.00
 0 19 15 -0.59 0.00
 1 19 15 7.46 0.00
 2 19 15 5.20 0.00
 3 19 15 -1.39 0.00
 4 19 15 -8.27 0.00
 5 19 15 -2.34 0.00
 6 19 15 9.29 0.00
 7 19 15 -3.13 0.00
 8 19 15 -1.22 0.00
 9 19 15 -0.85 0.00
 10 19 15 3.75 0.00
 11 19 15 -4.16 0.00
 12 19 15 -2.55 0.00
 13 19 15 4.17 0.00
 14 19 15 1.73 0.00
 15 19 15 3.30 0.00
 16 19 15 -8.50 0.00
 17 19 15 5.32 0.00
 1 20 15 9.05 0.00
 2 20 15 -1.01 0.00
 3 20 15 -5.55 0.00
 4 20 15 7.70 0.00
 5 20 15 5.68 0.00
 6 20 15 -0.98 0.00
 7 20 15 0.20 0.00
 8 20 15 -2.97 0.00
 9 20 15 9.64 0.00
 10 20 15 1.64 0.00
 11 20 15 -2.09 0.00
 12 20 15 0.09 0.00
 13 20 15 2.93 0.00
 14 20 15 -3.75 0.00
 15 20 15 -1.68 0.00
 16 20 15 -0.26 0.00
 0 21 15 -6.46 0.00
 1 21 15 -1.96 0.00
 2 21 15 1.98 0.00
 3 21 15 1.17 0.00
 4 21 15 -1.98 0.00
 5 21 15 -5.98 0.00
 6 21 15 1.69 0.00
 7 21 15 6.73 0.00
 8 21 15 -3.73 0.00
 9 21 15 1.12 0.00
 10 21 15 1.95 0.00
 11 21 15 -2.06 0.00
 12 21 15 -3.13 0.00
 13 21 15 0.45 0.00
 14 21 15 5.29 0.00
 15 21 15 -6.18 0.00
 1 22 15 6.93 0.00
 2 22 15 -4.29 0.00
 3 22 15 0.48 0.00
 4 22 15 -1.00 0.00
 5 22 15 0.64 0.00
 6 22 15 -6.84 0.00
 7 22 15 -5.18 0.00
 8 22 15 3.85 0.00
 9 22 15 -7.11 0.00
 10 22 15 -2.39 0.00
 11 22 15 1.39 0.00
 12 22 15 -1.17 0.00
 13 22 15 -2.95 0.00
 14 22 15 6.29 0.00
 0 23 15 -2.81 0.00
 1 23 15 -0.74 0.00
 2 23 15 -0.58 0.00
 3 23 15 -5.99 0.00
 4 23 15 1.85 0.00
 5 23 15 2.14 0.00
 6 23 15 -4.04 0.00
 7 23 15 2.68 0.00
 8 23 15 3.65 0.00
 9 23 15 -5.50 0.00
 10 23 15 -1.12 0.00
 11 23 15 0.97 0.00
 12 23 15 -2.94 0.00
 13 23 15 5.00 0.00
 1 24 15 -2.12 0.00
 2 24 15 3.64 0.00
 3 24 15 -5.72 0.00
 4 24 15 -0.37 0.00
 5 24 15 2.60 0.00
 6 24 15 5.81 0.00
 7 24 15 -1.50 0.00
 8 24 15 0.57 0.00
 9 24 15 7.79 0.00
 10 24 15 6.53 0.00
 11 24 15 0.41 0.00
 12 24 15 -6.08 0.00
 0 25 15 1.90 0.00
 1 25 15 1.78 0.00
 2 25 15 6.01 0.00
 3 25 15 4.89 0.00
 4 25 15 -0.46 0.00
 5 25 15 3.02 0.00
 6 25 15 -1.67 0.00
 7 25 15 -2.16 0.00
 8 25 15 -0.67 0.00
 9 25 15 2.79 0.00
 10 25 15 5.65 0.00
 11 25 15 -2.64 0.00
 1 26 15 5.58 0.00
 2 26 15 -3.53 0.00
 3 26 15 -3.65 0.00
 4 26 15 3.79 0.00
 5 26 15 2.72 0.00
 6 26 15 -6.00 0.00
 7 26 15 3.20 0.00
 8 26 15 -5.20 0.00
 9 26 15 -9.31 0.00
 0 27 15 -4.95 0.00
 1 27 15 2.56 0.00
 2 27 15 -7.23 0.00
 3 27 15 -6.58 0.00
 4 27 15 6.65 0.00
 5 27 15 -0.10 0.00
 6 27 15 -2.49 0.00
 7 27 15 -3.95 0.00
 8 27 15 -0.08 0.00
 1 28 15 5.53 0.00
 2 28 15 -0.95 0.00
 3 28 15 -4.32 0.00
 4 28 15 0.17 0.00
 5 28 15 2.77 0.00
 0 0 16 16.50 0.00
 2 0 16 -9.95 0.00
 4 0 16 10.66 0.00
 6 0 16 -2.19 0.00
 8 0 16 4.42 0.00
 10 0 16 5.53 0.00
 12 0 16 -6.67 0.00
 14 0 16 -1.13 0.00
 16 0 16 -17.19 0.00
 18 0 16 14.92 0.00
 20 0 16 -8.57 0.00
 1 1 16 -11.69 0.00
 2 1 16 -0.79 0.00
 3 1 16 2.63 0.00
 4 1 16 2.26 0.00
 5 1 16 -12.87 0.00
 6 1 16 0.88 0.00
 7 1 16 6.80 0.00
 8 1 16 -5.02 0.00
 9 1 16 -0.49 0.00
 10 1 16 13.35 0.00
 11 1 16 -0.89 0.00
 12 1 16 -11.72 0.00
 13 1 16 0.27 0.00
 14 1 16 18.28 0.00
 15 1 16 0.30 0.00
 16 1 16 -0.60 0.00
 17 1 16 1.63 0.00
 18 1 16 -2.28 0.00
 19 1 16 1.13 0.00
 20 1 16 3.93 0.00
 21 1 16 -4.67 0.00
 0 2 16 -5.85 0.00
 1 2 16 9.27 0.00
 2 2 16 -0.39 0.00
 3 2 16 10.07 0.00
 4 2 16 -1.21 0.00
 5 2 16 -5.76 0.00
 6 2 16 -0.01 0.00
 7 2 16 -5.51 0.00
 8 2 16 -3.53 0.00
 9 2 16 0.08 0.00
 10 2 16 -5.22 0.00
 11 2 16 9.85 0.00
 12 2 16 7.09 0.00
 13 2 16 -0.88 0.00
 14 2 16 3.53 0.00
 15 2 16 -11.80 0.00
 16 2 16 5.81 0.00
 17 2 16 13.90 0.00
 18 2 16 -2.85 0.00
 19 2 16 -0.93 0.00
 20 2 16 2.82 0.00
 21 2 16 0.37 0.00
 1 3 16 8.05 0.00
 2 3 16 -5.45 0.00
 3 3 16 11.85 0.00
 4 3 16 2.54 0.00
 5 3 16 8.85 0.00
 6 3 16 3.49 0.00
 7 3 16 -1.48 0.00
 8 3 16 -1.38 0.00
 9 3 16 -4.63 0.00
 10 3 16 5.68 0.00
 11 3 16 -1.04 0.00
 12 3 16 -1.24 0.00
 13 3 16 5.74 0.00
 14 3 16 -4.44 0.00
 15 3 16 -2.44 0.00
 16 3 16 -0.61 0.00
 17 3 16 -12.17 0.00
 18 3 16 -5.81 0.00
 19 3 16 12.66 0.00
 20 3 16 4.93 0.00
 21 3 16 -3.31 0.00
 0 4 16 -1.62 0.00
 1 4 16 -10.35 0.00
 2 4 16 9.19 0.00
 3 4 16 -11.47 0.00
 4 4 16 -5.49 0.00
 5 4 16 3.46 0.00
 6 4 16 -2.38 0.00
 7 4 16 13.33 0.00
 8 4 16 4.02 0.00
 9 4 16 -17.68 0.00
 10 4 16 1.38 0.00
 11 4 16 0.12 0.00
 12 4 16 -2.12 0.00
 13 4 16 3.21 0.00
 14 4 16 -8.78 0.00
 15 4 16 -5.60 0.00
 16 4 16 6.16 0.00
 17 4 16 5.20 0.00
 18 4 16 -6.53 0.00
 19 4 16 -11.06 0.00
 20 4 16 -0.32 0.00
 21 4 16 0.52 0.00
 1 5 16 -9.75 0.00
 2 5 16 1.00 0.00
 3 5 16 -8.24 0.00
 4 5 16 5.45 0.00
 5 5 16 -4.07 0.00
 6 5 16 -7.57 0.00
 7 5 16 8.87 0.00
 8 5 16 -3.46 0.00
 9 5 16 -2.13 0.00
 10 5 16 -8.44 0.00
 11 5 16 -1.72 0.00
 12 5 16 0.60 0.00
 13 5 16 3.63 0.00
 14 5 16 0.51 0.00
 15 5 16 2.77 0.00
 16 5 16 -1.27 0.00
 17 5 16 0.51 0.00
 18 5 16 5.41 0.00
 19 5 16 -1.51 0.00
 20 5 16 -0.07 0.00
 21 5 16 3.95 0.00
 0 6 16 -1.64 0.00
 1 6 16 1.89 0.00
 2 6 16 -10.33 0.00
 3 6 16 10.86 0.00
 4 6 16 1.36 0.00
 5 6 16 -7.18 0.00
 6 6 16 9.61 0.00
 7 6 16 4.84 0.00
 8 6 16 -8.62 0.00
 9 6 16 7.80 0.00
 10 6 16 0.43 0.00
 11 6 16 2.04 0.00
 12 6 16 7.56 0.00
 13 6 16 4.12 0.00
 14 6 16 -4.28 0.00
 15 6 16 -2.98 0.00
 16 6 16 6.61 0.00
 17 6 16 4.24 0.00
 18 6 16 -3.17 0.00
 19 6 16 2.55 0.00
 20 6 16 5.49 0.00
 21 6 16 1.52 0.00
 1 7 16 16.88 0.00
 2 7 16 -0.06 0.00
 3 7 16 -8.85 0.00
 4 7 16 -9.12 0.00
 5 7 16 0.17 0.00
 6 7 16 8.32 0.00
 7 7 16 -11.07 0.00
 8 7 16 1.82 0.00
 9 7 16 3.14 0.00
 10 7 16 7.40 0.00
 11 7 16 2.85 0.00
 12 7 16 -0.15 0.00
 13 7 16 -7.32 0.00
 14 7 16 1.47 0.00
 15 7 16 -3.64 0.00
 16 7 16 -0.45 0.00
 17 7 16 5.89 0.00
 18 7 16 0.59 0.00
 19 7 16 -6.62 0.00
 20 7 16 -4.51 0.00
 0 8 16 22.78 0.00
 1 8 16 2.78 0.00
 2 8 16 -2.39 0.00
 3 8 16 0.03 0.00
 4 8 16 1.93 0.00
 5 8 16 -6.36 0.00
 6 8 16 0.86 0.00
 7 8 16 -1.49 0.00
 8 8 16 2.33 0.00
 9 8 16 -9.23 0.00
 10 8 16 -2.25 0.00
 11 8 16 -2.21 0.00
 12 8 16 -2.40 0.00
 13 8 16 -0.98 0.00
 14 8 16 -2.91 0.00
 15 8 16 -2.94 0.00
 16 8 16 1.09 0.00
 17 8 16 -1.75 0.00
 18 8 16 -2.99 0.00
 19 8 16 3.37 0.00
 20 8 16 -0.68 0.00
 1 9 16 5.33 0.00
 2 9 16 8.01 0.00
 3 9 16 -2.38 0.00
 4 9 16 -4.71 0.00
 5 9 16 15.88 0.00
 6 9 16 3.39 0.00
 7 9 16 -3.43 0.00
 8 9 16 -4.10 0.00
 9 9 16 8.17 0.00
 10 9 16 4.86 0.00
 11 9 16 -5.35 0.00
 12 9 16 -10.12 0.00
 13 9 16 3.68 0.00
 14 9 16 9.18 0.00
 15 9 16 6.34 0.00
 16 9 16 -5.86 0.00
 17 9 16 -1.82 0.00
 18 9 16 -1.25 0.00
 19 9 16 -1.02 0.00
 20 9 16 7.17 0.00
 0 10 16 -27.37 0.00
 1 10 16 -4.85 0.00
 2 10 16 11.25 0.00
 3 10 16 3.92 0.00
 4 10 16 -3.47 0.00
 5 10 16 6.16 0.00
 6 10 16 -8.97 0.00
 7 10 16 0.43 0.00
 8 10 16 3.03 0.00
 9 10 16 3.43 0.00
 10 10 16 1.39 0.00
 11 10 16 6.15 0.00
 12 10 16 3.11 0.00
 13 10 16 -1.49 0.00
 14 10 16 0.78 0.00
 15 10 16 4.40 0.00
 16 10 16 1.65 0.00
 17 10 16 -3.87 0.00
 18 10 16 1.86 0.00
 19 10 16 3.90 0.00
 20 10 16 -2.52 0.00
 1 11 16 -20.01 0.00
 2 11 16 -1.27 0.00
 3 11 16 12.07 0.00
 4 11 16 3.08 0.00
 5 11 16 -7.35 0.00
 6 11 16 -0.60 0.00
 7 11 16 -5.27 0.00
 8 11 16 -0.52 0.00
 9 11 16 0.99 0.00
 10 11 16 -1.89 0.00
 11 11 16 3.80 0.00
 12 11 16 -1.64 0.00
 13 11 16 -8.83 0.00
 14 11 16 -0.31 0.00
 15 11 16 3.05 0.00
 16 11 16 1.08 0.00
 17 11 16 -4.36 0.00
 18 11 16 -1.07 0.00
 19 11 16 0.31 0.00
 0 12 16 -1.17 0.00
 1 12 16 -0.21 0.00
 2 12 16 -1.45 0.00
 3 12 16 -9.49 0.00
 4 12 16 2.24 0.00
 5 12 16 0.80 0.00
 6 12 16 -1.60 0.00
 7 12 16 1.04 0.00
 8 12 16 3.02 0.00
 9 12 16 -5.91 0.00
 10 12 16 -2.89 0.00
 11 12 16 4.40 0.00
 12 12 16 0.59 0.00
 13 12 16 -8.58 0.00
 14 12 16 -4.04 0.00
 15 12 16 2.14 0.00
 16 12 16 -0.77 0.00
 17 12 16 1.01 0.00
 18 12 16 0.43 0.00
 19 12 16 -0.85 0.00
 1 13 16 -20.74 0.00
 2 13 16 -3.53 0.00
 3 13 16 7.99 0.00
 4 13 16 -0.33 0.00
 5 13 16 -5.55 0.00
 6 13 16 -3.69 0.00
 7 13 16 -4.54 0.00
 8 13 16 -0.46 0.00
 9 13 16 5.20 0.00
 10 13 16 -1.70 0.00
 11 13 16 -1.98 0.00
 12 13 16 8.74 0.00
 13 13 16 -3.19 0.00
 14 13 16 -1.36 0.00
 15 13 16 3.89 0.00
 16 13 16 2.17 0.00
 17 13 16 3.22 0.00
 18 13 16 -1.92 0.00
 19 13 16 1.04 0.00
 0 14 16 17.53 0.00
 1 14 16 6.13 0.00
 2 14 16 -7.94 0.00
 3 14 16 7.60 0.00
 4 14 16 7.33 0.00
 5 14 16 -2.83 0.00
 6 14 16 4.22 0.00
 7 14 16 -3.03 0.00
 8 14 16 -0.75 0.00
 9 14 16 4.67 0.00
 10 14 16 -2.05 0.00
 11 14 16 -2.13 0.00
 12 14 16 0.59 0.00
 13 14 16 3.51 0.00
 14 14 16 0.33 0.00
 15 14 16 5.28 0.00
 16 14 16 3.54 0.00
 17 14 16 -6.44 0.00
 18 14 16 -2.82 0.00
 1 15 16 3.26 0.00
 2 15 16 6.25 0.00
 3 15 16 7.41 0.00
 4 15 16 -6.40 0.00
 5 15 16 5.42 0.00
 6 15 16 6.29 0.00
 7 15 16 4.33 0.00
 8 15 16 6.15 0.00
 9 15 16 -2.85 0.00
 10 15 16 -0.71 0.00
 11 15 16 8.01 0.00
 12 15 16 -10.79 0.00
 13 15 16 -3.32 0.00
 14 15 16 4.09 0.00
 15 15 16 3.97 0.00
 16 15 16 -7.62 0.00
 17 15 16 -7.58 0.00
 18 15 16 5.28 0.00
 0 16 16 -2.00 0.00
 1 16 16 -4.62 0.00
 2 16 16 4.85 0.00
 3 16 16 -5.20 0.00
 4 16 16 -14.99 0.00
 5 16 16 6.66 0.00
 6 16 16 3.72 0.00
 7 16 16 -1.12 0.00
 8 16 16 -2.49 0.00
 9 16 16 1.52 0.00
 10 16 16 0.86 0.00
 11 16 16 -3.73 0.00
 12 16 16 1.16 0.00
 13 16 16 -3.11 0.00
 14 16 16 4.04 0.00
 15 16 16 2.09 0.00
 16 16 16 -4.03 0.00
 17 16 16 -10.43 0.00
 1 17 16 -0.43 0.00
 2 17 16 4.91 0.00
 3 17 16 -6.64 0.00
 4 17 16 5.26 0.00
 5 17 16 -5.53 0.00
 6 17 16 -11.72 0.00
 7 17 16 -3.55 0.00
 8 17 16 2.44 0.00
 9 17 16 -0.91 0.00
 10 17 16 6.69 0.00
 11 17 16 -6.23 0.00
 12 17 16 -5.66 0.00
 13 17 16 1.93 0.00
 14 17 16 10.86 0.00
 15 17 16 -3.15 0.00
 16 17 16 -0.94 0.00
 0 18 16 -11.88 0.00
 1 18 16 -2.50 0.00
 2 18 16 1.45 0.00
 3 18 16 3.21 0.00
 4 18 16 1.52 0.00
 5 18 16 -6.53 0.00
 6 18 16 4.74 0.00
 7 18 16 -2.93 0.00
 8 18 16 -6.00 0.00
 9 18 16 8.48 0.00
 10 18 16 -0.86 0.00
 11 18 16 -7.84 0.00
 12 18 16 5.59 0.00
 13 18 16 6.27 0.00
 14 18 16 -10.09 0.00
 15 18 16 5.71 0.00
 16 18 16 -1.88 0.00
 1 19 16 -1.15 0.00
 2 19 16 -7.65 0.00
 3 19 16 -1.06 0.00
 4 19 16 -0.29 0.00
 5 19 16 9.54 0.00
 6 19 16 -0.51 0.00
 7 19 16 -1.83 0.00
 8 19 16 0.87 0.00
 9 19 16 5.32 0.00
 10 19 16 -9.51 0.00
 11 19 16 1.55 0.00
 12 19 16 3.18 0.00
 13 19 16 1.17 0.00
 14 19 16 -3.90 0.00
 15 19 16 -0.58 0.00
 0 20 16 14.75 0.00
 1 20 16 5.11 0.00
 2 20 16 -4.14 0.00
 3 20 16 6.28 0.00
 4 20 16 4.75 0.00
 5 20 16 -3.67 0.00
 6 20 16 -1.08 0.00
 7 20 16 4.62 0.00
 8 20 16 7.83 0.00
 9 20 16 -0.54 0.00
 10 20 16 -6.12 0.00
 11 20 16 -2.43 0.00
 12 20 16 3.85 0.00
 13 20 16 -1.03 0.00
 14 20 16 3.35 0.00
 1 21 16 0.02 0.00
 2 21 16 4.76 0.00
 3 21 16 0.52 0.00
 4 21 16 -3.22 0.00
 5 21 16 -1.12 0.00
 6 21 16 7.18 0.00
 7 21 16 -2.55 0.00
 8 21 16 2.09 0.00
 9 21 16 -1.05 0.00
 10 21 16 1.77 0.00
 11 21 16 -2.26 0.00
 12 21 16 4.86 0.00
 13 21 16 0.56 0.00
 0 22 16 0.58 0.00
 1 22 16 -5.24 0.00
 2 22 16 -2.13 0.00
 3 22 16 -2.37 0.00
 4 22 16 -0.15 0.00
 5 22 16 -5.72 0.00
 6 22 16 -7.38 0.00
 7 22 16 8.92 0.00
 8 22 16 -0.14 0.00
 9 22 16 -6.56 0.00
 10 22 16 4.04 0.00
 11 22 16 2.97 0.00
 12 22 16 -6.84 0.00
 1 23 16 1.57 0.00
 2 23 16 -5.63 0.00
 3 23 16 2.79 0.00
 4 23 16 4.69 0.00
 5 23 16 -4.79 0.00
 6 23 16 -1.62 0.00
 7 23 16 4.13 0.00
 8 23 16 -7.53 0.00
 9 23 16 -2.77 0.00
 10 23 16 -0.41 0.00
 11 23 16 0.83 0.00
 0 24 16 -0.67 0.00
 1 24 16 2.98 0.00
 2 24 16 -4.49 0.00
 3 24 16 -0.45 0.00
 4 24 16 5.87 0.00
 5 24 16 1.68 0.00
 6 24 16 -3.80 0.00
 7 24 16 -0.85 0.00
 8 24 16 5.95 0.00
 9 24 16 -0.02 0.00
 10 24 16 -3.96 0.00
 1 25 16 2.88 0.00
 2 25 16 2.38 0.00
 3 25 16 -5.54 0.00
 4 25 16 -0.23 0.00
 5 25 16 1.71 0.00
 6 25 16 -2.61 0.00
 7 25 16 1.31 0.00
 8 25 16 5.73 0.00
 0 26 16 4.48 0.00
 1 26 16 -2.03 0.00
 2 26 16 -1.58 0.00
 3 26 16 5.61 0.00
 4 26 16 4.25 0.00
 5 26 16 -4.01 0.00
 6 26 16 -0.22 0.00
 1 27 16 0.76 0.00
 2 27 16 -5.08 0.00
 3 27 16 3.36 0.00
 1 0 17 -10.51 0.00
 3 0 17 0.18 0.00
 5 0 17 -6.24 0.00
 7 0 17 -9.55 0.00
 9 0 17 2.03 0.00
 11 0 17 -14.04 0.00
 13 0 17 -0.03 0.00
 15 0 17 -11.10 0.00
 17 0 17 7.14 0.00
 19 0 17 -6.39 0.00
 0 1 17 -6.07 0.00
 1 1 17 1.30 0.00
 2 1 17 -3.10 0.00
 3 1 17 -0.27 0.00
 4 1 17 -2.58 0.00
 5 1 17 1.48 0.00
 6 1 17 2.77 0.00
 7 1 17 -2.77 0.00
 8 1 17 3.10 0.00
 9 1 17 5.11 0.00
 10 1 17 -2.77 0.00
 11 1 17 -12.67 0.00
 12 1 17 -2.54 0.00
 13 1 17 15.09 0.00
 14 1 17 3.58 0.00
 15 1 17 -7.29 0.00
 16 1 17 0.00 0.00
 17 1 17 -3.98 0.00
 18 1 17 -2.60 0.00
 19 1 17 3.73 0.00
 20 1 17 -2.82 0.00
 1 2 17 9.09 0.00
 2 2 17 -5.29 0.00
 3 2 17 -0.85 0.00
 4 2 17 -6.38 0.00
 5 2 17 5.07 0.00
 6 2 17 -9.22 0.00
 7 2 17 3.01 0.00
 8 2 17 6.87 0.00
 9 2 17 3.06 0.00
 10 2 17 6.75 0.00
 11 2 17 5.81 0.00
 12 2 17 -4.22 0.00
 13 2 17 2.47 0.00
 14 2 17 -6.57 0.00
 15 2 17 7.31 0.00
 16 2 17 13.32 0.00
 17 2 17 -7.13 0.00
 18 2 17 -1.73 0.00
 19 2 17 9.21 0.00
 20 2 17 -6.79 0.00
 0 3 17 19.17 0.00
 1 3 17 -1.76 0.00
 2 3 17 2.74 0.00
 3 3 17 7.88 0.00
 4 3 17 7.92 0.00
 5 3 17 -1.94 0.00
 6 3 17 -8.20 0.00
 7 3 17 -1.71 0.00
 8 3 17 -1.01 0.00
 9 3 17 3.57 0.00
 10 3 17 3.48 0.00
 11 3 17 1.88 0.00
 12 3 17 5.49 0.00
 13 3 17 -4.83 0.00
 14 3 17 -5.61 0.00
 15 3 17 1.37 0.00
 16 3 17 -4.81 0.00
 17 3 17 1.20 0.00
 18 3 17 14.27 0.00
 19 3 17 3.62 0.00
 20 3 17 -4.71 0.00
 1 4 17 4.80 0.00
 2 4 17 3.48 0.00
 3 4 17 -6.78 0.00
 4 4 17 13.10 0.00
 5 4 17 3.51 0.00
 6 4 17 4.38 0.00
 7 4 17 -0.15 0.00
 8 4 17 -11.56 0.00
 9 4 17 1.41 0.00
 10 4 17 0.29 0.00
 11 4 17 -2.69 0.00
 12 4 17 3.34 0.00
 13 4 17 -2.90 0.00
 14 4 17 -3.55 0.00
 15 4 17 8.72 0.00
 16 4 17 -2.07 0.00
 17 4 17 -10.88 0.00
 18 4 17 -1.87 0.00
 19 4 17 3.35 0.00
 20 4 17 2.25 0.00
 0 5 17 -18.00 0.00
 1 5 17 -4.07 0.00
 2 5 17 -3.83 0.00
 3 5 17 1.59 0.00
 4 5 17 -3.19 0.00
 5 5 17 -5.68 0.00
 6 5 17 6.79 0.00
 7 5 17 4.88 0.00
 8 5 17 -11.11 0.00
 9 5 17 -8.96 0.00
 10 5 17 -0.32 0.00
 11 5 17 8.98 0.00
 12 5 17 1.44 0.00
 13 5 17 -1.55 0.00
 14 5 17 1.46 0.00
 15 5 17 -6.23 0.00
 16 5 17 -3.10 0.00
 17 5 17 8.13 0.00
 18 5 17 -1.59 0.00
 19 5 17 -7.77 0.00
 1 6 17 -9.48 0.00
 2 6 17 5.22 0.00
 3 6 17 4.83 0.00
 4 6 17 -14.16 0.00
 5 6 17 3.17 0.00
 6 6 17 8.49 0.00
 7 6 17 -9.81 0.00
 8 6 17 5.23 0.00
 9 6 17 1.14 0.00
 10 6 17 -4.09 0.00
 11 6 17 0.72 0.00
 12 6 17 5.45 0.00
 13 6 17 -5.77 0.00
 14 6 17 0.78 0.00
 15 6 17 0.92 0.00
 16 6 17 -0.72 0.00
 17 6 17 -2.67 0.00
 18 6 17 4.60 0.00
 19 6 17 6.00 0.00
 0 7 17 13.66 0.00
 1 7 17 2.10 0.00
 2 7 17 -2.31 0.00
 3 7 17 -5.58 0.00
 4 7 17 1.33 0.00
 5 7 17 5.35 0.00
 6 7 17 2.31 0.00
 7 7 17 -3.05 0.00
 8 7 17 8.81 0.00
 9 7 17 2.97 0.00
 10 7 17 5.82 0.00
 11 7 17 -6.74 0.00
 12 7 17 -11.49 0.00
 13 7 17 7.34 0.00
 14 7 17 6.01 0.00
 15 7 17 -4.69 0.00
 16 7 17 1.03 0.00
 17 7 17 6.42 0.00
 18 7 17 -2.91 0.00
 19 7 17 -1.99 0.00
 1 8 17 -13.14 0.00
 2 8 17 -4.76 0.00
 3 8 17 5.78 0.00
 4 8 17 -3.54 0.00
 5 8 17 -5.18 0.00
 6 8 17 -1.54 0.00
 7 8 17 4.47 0.00
 8 8 17 -5.86 0.00
 9 8 17 -3.18 0.00
 10 8 17 -0.74 0.00
 11 8 17 4.10 0.00
 12 8 17 -2.17 0.00
 13 8 17 0.08 0.00
 14 8 17 -4.15 0.00
 15 8 17 4.74 0.00
 16 8 17 -2.18 0.00
 17 8 17 -1.51 0.00
 18 8 17 6.42 0.00
 19 8 17 -0.06 0.00
 0 9 17 -2.34 0.00
 1 9 17 4.55 0.00
 2 9 17 -1.14 0.00
 3 9 17 -1.89 0.00
 4 9 17 4.13 0.00
 5 9 17 6.52 0.00
 6 9 17 -12.61 0.00
 7 9 17 -4.38 0.00
 8 9 17 2.04 0.00
 9 9 17 6.82 0.00
 10 9 17 -8.14 0.00
 11 9 17 -8.04 0.00
 12 9 17 7.42 0.00
 13 9 17 10.13 0.00
 14 9 17 2.10 0.00
 15 9 17 -14.81 0.00
 16 9 17 -4.09 0.00
 17 9 17 5.74 0.00
 18 9 17 2.87 0.00
 19 9 17 -2.62 0.00
 1 10 17 15.33 0.00
 2 10 17 8.66 0.00
 3 10 17 -3.29 0.00
 4 10 17 4.91 0.00
 5 10 17 -0.63 0.00
 6 10 17 -3.43 0.00
 7 10 17 5.74 0.00
 8 10 17 9.32 0.00
 9 10 17 -0.43 0.00
 10 10 17 2.64 0.00
 11 10 17 1.76 0.00
 12 10 17 0.74 0.00
 13 10 17 -2.58 0.00
 14 10 17 7.19 0.00
 15 10 17 -1.73 0.00
 16 10 17 -2.92 0.00
 17 10 17 0.46 0.00
 18 10 17 2.28 0.00
 0 11 17 -17.77 0.00
 1 11 17 -2.34 0.00
 2 11 17 20.70 0.00
 3 11 17 -0.29 0.00
 4 11 17 -9.93 0.00
 5 11 17 -1.40 0.00
 6 11 17 5.48 0.00
 7 11 17 2.53 0.00
 8 11 17 3.45 0.00
 9 11 17 -4.19 0.00
 10 11 17 0.95 0.00
 11 11 17 0.69 0.00
 12 11 17 -5.08 0.00
 13 11 17 5.61 0.00
 14 11 17 0.82 0.00
 15 11 17 -0.94 0.00
 16 11 17 -2.43 0.00
 17 11 17 4.70 0.00
 18 11 17 -1.43 0.00
 1 12 17 -5.16 0.00
 2 12 17 -4.88 0.00
 3 12 17 2.50 0.00
 4 12 17 3.34 0.00
 5 12 17 -2.37 0.00
 6 12 17 -3.02 0.00
 7 12 17 -2.12 0.00
 8 12 17 -3.69 0.00
 9 12 17 2.37 0.00
 10 12 17 -1.46 0.00
 11 12 17 -3.39 0.00
 12 12 17 -6.75 0.00
 13 12 17 -3.85 0.00
 14 12 17 1.80 0.00
 15 12 17 4.31 0.00
 16 12 17 -0.73 0.00
 17 12 17 -0.48 0.00
 0 13 17 -23.97 0.00
 1 13 17 -2.04 0.00
 2 13 17 4.99 0.00
 3 13 17 0.00 0.00
 4 13 17 -4.90 0.00
 5 13 17 -7.29 0.00
 6 13 17 1.23 0.00
 7 13 17 -0.73 0.00
 8 13 17 0.00 0.00
 9 13 17 -1.46 0.00
 10 13 17 -0.49 0.00
 11 13 17 5.43 0.00
 12 13 17 -2.65 0.00
 13 13 17 -8.40 0.00
 14 13 17 5.32 0.00
 15 13 17 0.90 0.00
 16 13 17 1.31 0.00
 17 13 17 -4.82 0.00
 1 14 17 -13.66 0.00
 2 14 17 0.61 0.00
 3 14 17 9.33 0.00
 4 14 17 -9.33 0.00
 5 14 17 -3.85 0.00
 6 14 17 0.93 0.00
 7 14 17 -3.23 0.00
 8 14 17 9.64 0.00
 9 14 17 -2.91 0.00
 10 14 17 -7.75 0.00
 11 14 17 6.72 0.00
 12 14 17 5.81 0.00
 13 14 17 0.80 0.00
 14 14 17 -0.93 0.00
 15 14 17 4.25 0.00
 16 14 17 -2.60 0.00
 17 14 17 -5.73 0.00
 0 15 17 21.13 0.00
 1 15 17 5.31 0.00
 2 15 17 1.30 0.00
 3 15 17 -1.96 0.00
 4 15 17 0.92 0.00
 5 15 17 11.81 0.00
 6 15 17 -1.33 0.00
 7 15 17 7.77 0.00
 8 15 17 -4.67 0.00
 9 15 17 -4.81 0.00
 10 15 17 10.51 0.00
 11 15 17 -2.07 0.00
 12 15 17 -6.91 0.00
 13 15 17 5.98 0.00
 14 15 17 4.29 0.00
 15 15 17 -0.46 0.00
 16 15 17 -5.93 0.00
 1 16 17 1.72 0.00
 2 16 17 4.61 0.00
 3 16 17 -7.01 0.00
 4 16 17 9.00 0.00
 5 16 17 9.86 0.00
 6 16 17 -6.66 0.00
 7 16 17 0.91 0.00
 8 16 17 4.28 0.00
 9 16 17 2.38 0.00
 10 16 17 -3.54 0.00
 11 16 17 -6.38 0.00
 12 16 17 4.78 0.00
 13 16 17 -1.17 0.00
 14 16 17 2.27 0.00
 15 16 17 -6.05 0.00
 0 17 17 -5.96 0.00
 1 17 17 2.86 0.00
 2 17 17 -6.18 0.00
 3 17 17 -3.92 0.00
 4 17 17 -1.29 0.00
 5 17 17 -15.64 0.00
 6 17 17 7.10 0.00
 7 17 17 3.97 0.00
 8 17 17 -1.35 0.00
 9 17 17 1.90 0.00
 10 17 17 -3.89 0.00
 11 17 17 -8.05 0.00
 12 17 17 1.42 0.00
 13 17 17 6.13 0.00
 14 17 17 -0.60 0.00
 15 17 17 -2.48 0.00
 1 18 17 5.27 0.00
 2 18 17 3.11 0.00
 3 18 17 1.41 0.00
 4 18 17 -9.31 0.00
 5 18 17 -0.22 0.00
 6 18 17 2.25 0.00
 7 18 17 -12.11 0.00
 8 18 17 3.99 0.00
 9 18 17 11.72 0.00
 10 18 17 -7.88 0.00
 11 18 17 4.09 0.00
 12 18 17 1.61 0.00
 13 18 17 -1.63 0.00
 14 18 17 -1.47 0.00
 0 19 17 -3.04 0.00
 1 19 17 -7.70 0.00
 2 19 17 3.72 0.00
 3 19 17 6.05 0.00
 4 19 17 1.37 0.00
 5 19 17 3.30 0.00
 6 19 17 -6.61 0.00
 7 19 17 2.32 0.00
 8 19 17 2.13 0.00
 9 19 17 -6.36 0.00
 10 19 17 -1.24 0.00
 11 19 17 8.22 0.00
 12 19 17 -1.35 0.00
 13 19 17 -3.73 0.00
 1 20 17 -8.77 0.00
 2 20 17 -4.09 0.00
 3 20 17 0.11 0.00
 4 20 17 -0.97 0.00
 5 20 17 1.91 0.00
 6 20 17 5.33 0.00
 7 20 17 2.48 0.00
 8 20 17 -6.81 0.00
 9 20 17 -9.85 0.00
 10 20 17 4.55 0.00
 11 20 17 -3.09 0.00
 12 20 17 1.18 0.00
 0 21 17 -0.15 0.00
 1 21 17 8.39 0.00
 2 21 17 2.29 0.00
 3 21 17 -5.86 0.00
 4 21 17 -0.41 0.00
 5 21 17 3.31 0.00
 6 21 17 1.63 0.00
 7 21 17 -1.32 0.00
 8 21 17 2.26 0.00
 9 21 17 0.78 0.00
 10 21 17 0.03 0.00
 11 21 17 -0.63 0.00
 1 22 17 6.35 0.00
 2 22 17 0.60 0.00
 3 22 17 -1.26 0.00
 4 22 17 1.40 0.00
 5 22 17 -2.41 0.00
 6 22 17 8.62 0.00
 7 22 17 5.29 0.00
 8 22 17 -8.06 0.00
 9 22 17 5.40 0.00
 10 22 17 6.57 0.00
 0 23 17 3.17 0.00
 1 23 17 -6.94 0.00
 2 23 17 -0.15 0.00
 3 23 17 6.58 0.00
 4 23 17 -4.66 0.00
 5 23 17 -1.58 0.00
 6 23 17 2.65 0.00
 7 23 17 -3.30 0.00
 8 23 17 -2.16 0.00
 1 24 17 -3.19 0.00
 2 24 17 -1.64 0.00
 3 24 17 2.72 0.00
 4 24 17 -1.75 0.00
 5 24 17 -3.77 0.00
 6 24 17 -3.03 0.00
 7 24 17 2.98 0.00
 0 25 17 -0.33 0.00
 1 25 17 2.99 0.00
 2 25 17 -5.70 0.00
 3 25 17 -3.84 0.00
 4 25 17 5.45 0.00
 0 0 18 -16.94 0.00
 2 0 18 -1.87 0.00
 4 0 18 -4.31 0.00
 6 0 18 -6.88 0.00
 8 0 18 9.80 0.00
 10 0 18 -6.39 0.00
 12 0 18 10.28 0.00
 14 0 18 -4.87 0.00
 16 0 18 7.74 0.00
 18 0 18 -1.55 0.00
 1 1 18 -3.82 0.00
 2 1 18 -4.67 0.00
 3 1 18 6.01 0.00
 4 1 18 0.38 0.00
 5 1 18 -0.40 0.00
 6 1 18 -4.37 0.00
 7 1 18 6.90 0.00
 8 1 18 1.47 0.00
 9 1 18 -7.24 0.00
 10 1 18 -6.32 0.00
 11 1 18 -0.71 0.00
 12 1 18 16.04 0.00
 13 1 18 5.22 0.00
 14 1 18 -11.76 0.00
 15 1 18 -5.25 0.00
 16 1 18 -4.39 0.00
 17 1 18 -0.30 0.00
 18 1 18 0.77 0.00
 0 2 18 13.48 0.00
 1 2 18 -7.90 0.00
 2 2 18 -1.30 0.00
 3 2 18 1.46 0.00
 4 2 18 5.24 0.00
 5 2 18 -9.74 0.00
 6 2 18 3.25 0.00
 7 2 18 11.43 0.00
 8 2 18 -3.44 0.00
 9 2 18 -1.79 0.00
 10 2 18 -0.72 0.00
 11 2 18 -6.09 0.00
 12 2 18 -3.77 0.00
 13 2 18 -0.04 0.00
 14 2 18 1.37 0.00
 15 2 18 4.57 0.00
 16 2 18 -10.30 0.00
 17 2 18 -3.45 0.00
 18 2 18 10.02 0.00
 1 3 18 -9.41 0.00
 2 3 18 5.05 0.00
 3 3 18 0.05 0.00
 4 3 18 -8.79 0.00
 5 3 18 -11.94 0.00
 6 3 18 2.39 0.00
 7 3 18 1.12 0.00
 8 3 18 -1.93 0.00
 9 3 18 2.41 0.00
 10 3 18 -0.19 0.00
 11 3 18 2.27 0.00
 12 3 18 -9.41 0.00
 13 3 18 -1.75 0.00
 14 3 18 3.40 0.00
 15 3 18 -0.16 0.00
 16 3 18 5.27 0.00
 17 3 18 8.65 0.00
 18 3 18 -0.77 0.00
 0 4 18 4.32 0.00
 1 4 18 7.28 0.00
 2 4 18 -3.75 0.00
 3 4 18 10.47 0.00
 4 4 18 0.48 0.00
 5 4 18 -4.35 0.00
 6 4 18 -2.68 0.00
 7 4 18 2.41 0.00
 8 4 18 1.00 0.00
 9 4 18 -0.05 0.00
 10 4 18 -1.37 0.00
 11 4 18 4.38 0.00
 12 4 18 4.11 0.00
 13 4 18 3.18 0.00
 14 4 18 7.79 0.00
 15 4 18 -6.37 0.00
 16 4 18 -8.42 0.00
 17 4 18 8.26 0.00
 18 4 18 6.99 0.00
 1 5 18 13.48 0.00
 2 5 18 7.70 0.00
 3 5 18 -0.05 0.00
 4 5 18 -1.17 0.00
 5 5 18 9.24 0.00
 6 5 18 12.40 0.00
 7 5 18 -7.17 0.00
 8 5 18 -10.11 0.00
 9 5 18 5.94 0.00
 10 5 18 19.92 0.00
 11 5 18 -0.76 0.00
 12 5 18 -5.73 0.00
 13 5 18 -2.82 0.00
 14 5 18 -1.73 0.00
 15 5 18 -1.87 0.00
 16 5 18 10.42 0.00
 17 5 18 0.48 0.00
 18 5 18 -13.23 0.00
 0 6 18 -14.28 0.00
 1 6 18 -3.55 0.00
 2 6 18 8.27 0.00
 3 6 18 -12.23 0.00
 4 6 18 -0.90 0.00
 5 6 18 3.33 0.00
 6 6 18 0.83 0.00
 7 6 18 -3.69 0.00
 8 6 18 1.96 0.00
 9 6 18 -9.72 0.00
 10 6 18 1.16 0.00
 11 6 18 4.13 0.00
 12 6 18 -2.99 0.00
 13 6 18 -0.33 0.00
 14 6 18 -5.16 0.00
 15 6 18 -8.21 0.00
 16 6 18 2.22 0.00
 17 6 18 6.29 0.00
 18 6 18 -0.11 0.00
 1 7 18 -3.32 0.00
 2 7 18 -4.56 0.00
 3 7 18 -5.55 0.00
 4 7 18 -2.28 0.00
 5 7 18 5.89 0.00
 6 7 18 -2.41 0.00
 7 7 18 -1.93 0.00
 8 7 18 -1.68 0.00
 9 7 18 0.78 0.00
 10 7 18 -8.39 0.00
 11 7 18 -9.23 0.00
 12 7 18 6.36 0.00
 13 7 18 12.67 0.00
 14 7 18 -9.07 0.00
 15 7 18 -1.97 0.00
 16 7 18 6.89 0.00
 17 7 18 -1.52 0.00
 0 8 18 -15.67 0.00
 1 8 18 -1.30 0.00
 2 8 18 11.57 0.00
 3 8 18 8.77 0.00
 4 8 18 -14.84 0.00
 5 8 18 3.55 0.00
 6 8 18 7.35 0.00
 7 8 18 4.29 0.00
 8 8 18 -10.54 0.00
 9 8 18 4.26 0.00
 10 8 18 6.55 0.00
 11 8 18 -1.29 0.00
 12 8 18 -3.42 0.00
 13 8 18 1.94 0.00
 14 8 18 4.34 0.00
 15 8 18 0.53 0.00
 16 8 18 1.46 0.00
 17 8 18 5.55 0.00
 1 9 18 2.28 0.00
 2 9 18 0.15 0.00
 3 9 18 0.62 0.00
 4 9 18 1.34 0.00
 5 9 18 -8.30 0.00
 6 9 18 -5.77 0.00
 7 9 18 4.04 0.00
 8 9 18 5.26 0.00
 9 9 18 -1.72 0.00
 10 9 18 -3.91 0.00
 11 9 18 4.85 0.00
 12 9 18 4.99 0.00
 13 9 18 -9.25 0.00
 14 9 18 -9.65 0.00
 15 9 18 -1.44 0.00
 16 9 18 10.69 0.00
 17 9 18 2.80 0.00
 0 10 18 12.83 0.00
 1 10 18 4.13 0.00
 2 10 18 -2.55 0.00
 3 10 18 -7.10 0.00
 4 10 18 5.54 0.00
 5 10 18 -8.48 0.00
 6 10 18 3.74 0.00
 7 10 18 3.46 0.00
 8 10 18 -2.07 0.00
 9 10 18 -2.92 0.00
 10 10 18 4.85 0.00
 11 10 18 -2.44 0.00
 12 10 18 -3.50 0.00
 13 10 18 3.72 0.00
 14 10 18 -1.83 0.00
 15 10 18 -6.83 0.00
 16 10 18 3.48 0.00
 1 11 18 17.32 0.00
 2 11 18 0.89 0.00
 3 11 18 -12.13 0.00
 4 11 18 3.39 0.00
 5 11 18 9.23 0.00
 6 11 18 6.84 0.00
 7 11 18 -2.48 0.00
 8 11 18 -6.23 0.00
 9 11 18 0.45 0.00
 10 11 18 9.09 0.00
 11 11 18 3.73 0.00
 12 11 18 0.88 0.00
 13 11 18 -1.26 0.00
 14 11 18 -0.66 0.00
 15 11 18 6.48 0.00
 16 11 18 2.70 0.00
 0 12 18 -4.75 0.00
 1 12 18 -1.65 0.00
 2 12 18 -0.56 0.00
 3 12 18 8.47 0.00
 4 12 18 -1.16 0.00
 5 12 18 -0.21 0.00
 6 12 18 -3.53 0.00
 7 12 18 -0.50 0.00
 8 12 18 8.23 0.00
 9 12 18 1.07 0.00
 10 12 18 -8.83 0.00
 11 12 18 -0.66 0.00
 12 12 18 2.24 0.00
 13 12 18 5.88 0.00
 14 12 18 1.60 0.00
 15 12 18 -1.59 0.00
 16 12 18 -0.45 0.00
 1 13 18 7.29 0.00
 2 13 18 2.12 0.00
 3 13 18 1.53 0.00
 4 13 18 -9.13 0.00
 5 13 18 1.08 0.00
 6 13 18 2.88 0.00
 7 13 18 -2.85 0.00
 8 13 18 -3.21 0.00
 9 13 18 1.34 0.00
 10 13 18 2.39 0.00
 11 13 18 -2.83 0.00
 12 13 18 -12.34 0.00
 13 13 18 2.68 0.00
 14 13 18 4.98 0.00
 15 13 18 -2.31 0.00
 0 14 18 -12.54 0.00
 1 14 18 -3.14 0.00
 2 14 18 9.02 0.00
 3 14 18 -7.52 0.00
 4 14 18 -8.27 0.00
 5 14 18 4.49 0.00
 6 14 18 -2.02 0.00
 7 14 18 5.18 0.00
 8 14 18 -2.93 0.00
 9 14 18 -10.11 0.00
 10 14 18 5.08 0.00
 11 14 18 1.88 0.00
 12 14 18 -0.86 0.00
 13 14 18 -4.26 0.00
 14 14 18 0.89 0.00
 15 14 18 -1.02 0.00
 1 15 18 -19.72 0.00
 2 15 18 -1.93 0.00
 3 15 18 1.61 0.00
 4 15 18 5.19 0.00
 5 15 18 -4.61 0.00
 6 15 18 -0.40 0.00
 7 15 18 -2.69 0.00
 8 15 18 -6.48 0.00
 9 15 18 8.87 0.00
 10 15 18 6.09 0.00
 11 15 18 -11.89 0.00
 12 15 18 4.89 0.00
 13 15 18 2.53 0.00
 14 15 18 4.08 0.00
 0 16 18 2.12 0.00
 1 16 18 5.82 0.00
 2 16 18 -0.17 0.00
 3 16 18 5.24 0.00
 4 16 18 8.88 0.00
 5 16 18 -12.21 0.00
 6 16 18 1.93 0.00
 7 16 18 7.20 0.00
 8 16 18 2.05 0.00
 9 16 18 -0.94 0.00
 10 16 18 -6.68 0.00
 11 16 18 6.32 0.00
 12 16 18 4.85 0.00
 13 16 18 3.11 0.00
 1 17 18 -2.43 0.00
 2 17 18 -3.67 0.00
 3 17 18 7.36 0.00
 4 17 18 -4.11 0.00
 5 17 18 9.98 0.00
 6 17 18 9.67 0.00
 7 17 18 -4.79 0.00
 8 17 18 0.45 0.00
 9 17 18 0.60 0.00
 10 17 18 -10.20 0.00
 11 17 18 7.46 0.00
 12 17 18 0.99 0.00
 13 17 18 1.74 0.00
 0 18 18 6.26 0.00
 1 18 18 1.09 0.00
 2 18 18 -1.55 0.00
 3 18 18 -7.49 0.00
 4 18 18 -4.62 0.00
 5 18 18 6.92 0.00
 6 18 18 -8.78 0.00
 7 18 18 3.07 0.00
 8 18 18 17.04 0.00
 9 18 18 -5.37 0.00
 10 18 18 -9.52 0.00
 11 18 18 -2.78 0.00
 12 18 18 3.04 0.00
 1 19 18 1.37 0.00
 2 19 18 8.35 0.00
 3 19 18 -3.85 0.00
 4 19 18 -1.24 0.00
 5 19 18 -7.17 0.00
 6 19 18 -3.23 0.00
 7 19 18 1.53 0.00
 8 19 18 -1.83 0.00
 9 19 18 -4.08 0.00
 10 19 18 11.32 0.00
 11 19 18 -2.61 0.00
 0 20 18 -12.10 0.00
 1 20 18 -5.88 0.00
 2 20 18 0.30 0.00
 3 20 18 5.38 0.00
 4 20 18 4.12 0.00
 5 20 18 -2.49 0.00
 6 20 18 -2.17 0.00
 7 20 18 -7.19 0.00
 8 20 18 -6.63 0.00
 9 20 18 7.35 0.00
 10 20 18 -0.46 0.00
 1 21 18 -1.21 0.00
 2 21 18 -11.81 0.00
 3 21 18 1.71 0.00
 4 21 18 3.70 0.00
 5 21 18 2.54 0.00
 6 21 18 0.17 0.00
 7 21 18 2.23 0.00
 8 21 18 -2.09 0.00
 0 22 18 15.13 0.00
 1 22 18 2.34 0.00
 2 22 18 -3.43 0.00
 3 22 18 3.53 0.00
 4 22 18 1.54 0.00
 5 22 18 2.66 0.00
 6 22 18 3.50 0.00
 1 23 18 -4.16 0.00
 2 23 18 9.34 0.00
 3 23 18 -1.55 0.00
 4 23 18 -1.19 0.00
 1 0 19 6.34 0.00
 3 0 19 3.87 0.00
 5 0 19 1.69 0.00
 7 0 19 13.66 0.00
 9 0 19 -6.83 0.00
 11 0 19 8.83 0.00
 13 0 19 -6.10 0.00
 15 0 19 11.96 0.00
 0 1 19 -0.87 0.00
 1 1 19 -5.77 0.00
 2 1 19 3.83 0.00
 3 1 19 1.65 0.00
 4 1 19 -1.52 0.00
 5 1 19 -3.33 0.00
 6 1 19 6.38 0.00
 7 1 19 7.01 0.00
 8 1 19 -9.82 0.00
 9 1 19 0.35 0.00
 10 1 19 5.02 0.00
 11 1 19 14.49 0.00
 12 1 19 -0.15 0.00
 13 1 19 -13.74 0.00
 14 1 19 -2.50 0.00
 15 1 19 0.96 0.00
 16 1 19 1.65 0.00
 1 2 19 -7.33 0.00
 2 2 19 8.57 0.00
 3 2 19 2.70 0.00
 4 2 19 -7.96 0.00
 5 2 19 -4.34 0.00
 6 2 19 12.56 0.00
 7 2 19 -6.28 0.00
 8 2 19 -3.62 0.00
 9 2 19 2.04 0.00
 10 2 19 -3.35 0.00
 11 2 19 -2.42 0.00
 12 2 19 0.62 0.00
 13 2 19 -0.45 0.00
 14 2 19 -2.80 0.00
 15 2 19 -5.35 0.00
 16 2 19 -0.08 0.00
 0 3 19 -5.26 0.00
 1 3 19 0.60 0.00
 2 3 19 -4.36 0.00
 3 3 19 -5.61 0.00
 4 3 19 -3.45 0.00
 5 3 19 5.57 0.00
 6 3 19 -0.52 0.00
 7 3 19 -5.88 0.00
 8 3 19 0.68 0.00
 9 3 19 -1.55 0.00
 10 3 19 2.51 0.00
 11 3 19 -7.01 0.00
 12 3 19 -0.13 0.00
 13 3 19 4.22 0.00
 14 3 19 -1.63 0.00
 15 3 19 1.08 0.00
 16 3 19 1.53 0.00
 1 4 19 -7.26 0.00
 2 4 19 0.53 0.00
 3 4 19 0.01 0.00
 4 4 19 -10.31 0.00
 5 4 19 -1.96 0.00
 6 4 19 4.60 0.00
 7 4 19 0.76 0.00
 8 4 19 -7.72 0.00
 9 4 19 -3.49 0.00
 10 4 19 3.71 0.00
 11 4 19 4.54 0.00
 12 4 19 7.80 0.00
 13 4 19 0.36 0.00
 14 4 19 -9.22 0.00
 15 4 19 -5.87 0.00
 16 4 19 11.47 0.00
 0 5 19 23.89 0.00
 1 5 19 7.36 0.00
 2 5 19 -7.78 0.00
 3 5 19 -1.96 0.00
 4 5 19 12.35 0.00
 5 5 19 7.48 0.00
 6 5 19 -3.48 0.00
 7 5 19 -13.50 0.00
 8 5 19 6.86 0.00
 9 5 19 18.13 0.00
 10 5 19 -2.57 0.00
 11 5 19 -11.26 0.00
 12 5 19 -3.78 0.00
 13 5 19 5.06 0.00
 14 5 19 4.08 0.00
 15 5 19 7.24 0.00
 16 5 19 -1.55 0.00
 1 6 19 8.05 0.00
 2 6 19 0.62 0.00
 3 6 19 0.76 0.00
 4 6 19 3.85 0.00
 5 6 19 6.05 0.00
 6 6 19 2.52 0.00
 7 6 19 -1.05 0.00
 8 6 19 -2.25 0.00
 9 6 19 4.71 0.00
 10 6 19 4.10 0.00
 11 6 19 -2.41 0.00
 12 6 19 -1.05 0.00
 13 6 19 -2.17 0.00
 14 6 19 -11.06 0.00
 15 6 19 7.76 0.00
 16 6 19 10.54 0.00
 0 7 19 -8.36 0.00
 1 7 19 -3.82 0.00
 2 7 19 -7.38 0.00
 3 7 19 -2.98 0.00
 4 7 19 5.38 0.00
 5 7 19 4.24 0.00
 6 7 19 -14.27 0.00
 7 7 19 1.03 0.00
 8 7 19 1.90 0.00
 9 7 19 -2.90 0.00
 10 7 19 -5.86 0.00
 11 7 19 6.68 0.00
 12 7 19 11.22 0.00
 13 7 19 -8.89 0.00
 14 7 19 -5.11 0.00
 15 7 19 1.56 0.00
 16 7 19 -1.83 0.00
 1 8 19 11.79 0.00
 2 8 19 7.57 0.00
 3 8 19 -14.81 0.00
 4 8 19 -5.62 0.00
 5 8 19 11.65 0.00
 6 8 19 1.13 0.00
 7 8 19 -12.54 0.00
 8 8 19 -0.83 0.00
 9 8 19 10.38 0.00
 10 8 19 -3.28 0.00
 11 8 19 -7.38 0.00
 12 8 19 9.03 0.00
 13 8 19 4.27 0.00
 14 8 19 -1.28 0.00
 15 8 19 -2.60 0.00
 0 9 19 3.50 0.00
 1 9 19 -0.43 0.00
 2 9 19 4.76 0.00
 3 9 19 -0.71 0.00
 4 9 19 -1.82 0.00
 5 9 19 -6.27 0.00
 6 9 19 8.06 0.00
 7 9 19 3.49 0.00
 8 9 19 5.05 0.00
 9 9 19 -4.79 0.00
 10 9 19 -2.62 0.00
 11 9 19 -0.37 0.00
 12 9 19 -8.11 0.00
 13 9 19 1.64 0.00
 14 9 19 6.73 0.00
 15 9 19 5.39 0.00
 1 10 19 -6.62 0.00
 2 10 19 -8.96 0.00
 3 10 19 3.92 0.00
 4 10 19 0.21 0.00
 5 10 19 -5.85 0.00
 6 10 19 2.85 0.00
 7 10 19 -3.54 0.00
 8 10 19 0.87 0.00
 9 10 19 3.74 0.00
 10 10 19 -7.45 0.00
 11 10 19 -6.17 0.00
 12 10 19 1.43 0.00
 13 10 19 1.77 0.00
 14 10 19 -10.18 0.00
 15 10 19 4.26 0.00
 0 11 19 9.67 0.00
 1 11 19 1.44 0.00
 2 11 19 -10.52 0.00
 3 11 19 5.58 0.00
 4 11 19 4.58 0.00
 5 11 19 1.59 0.00
 6 11 19 -8.27 0.00
 7 11 19 -5.39 0.00
 8 11 19 2.45 0.00
 9 11 19 10.16 0.00
 10 11 19 4.03 0.00
 11 11 19 -7.98 0.00
 12 11 19 -6.80 0.00
 13 11 19 3.45 0.00
 14 11 19 10.80 0.00
 1 12 19 -3.03 0.00
 2 12 19 10.17 0.00
 3 12 19 6.43 0.00
 4 12 19 -4.22 0.00
 5 12 19 -1.91 0.00
 6 12 19 -1.80 0.00
 7 12 19 13.27 0.00
 8 12 19 5.10 0.00
 9 12 19 -9.54 0.00
 10 12 19 1.28 0.00
 11 12 19 8.34 0.00
 12 12 19 8.31 0.00
 13 12 19 -2.65 0.00
 14 12 19 -3.31 0.00
 0 13 19 -0.05 0.00
 1 13 19 3.07 0.00
 2 13 19 5.55 0.00
 3 13 19 -10.07 0.00
 4 13 19 -3.13 0.00
 5 13 19 8.61 0.00
 6 13 19 -0.04 0.00
 7 13 19 -0.81 0.00
 8 13 19 1.96 0.00
 9 13 19 3.32 0.00
 10 13 19 -0.96 0.00
 11 13 19 -6.03 0.00
 12 13 19 1.47 0.00
 13 13 19 8.22 0.00
 1 14 19 8.31 0.00
 2 14 19 -1.72 0.00
 3 14 19 -6.27 0.00
 4 14 19 3.97 0.00
 5 14 19 -0.21 0.00
 6 14 19 1.23 0.00
 7 14 19 -3.65 0.00
 8 14 19 -7.43 0.00
 9 14 19 2.39 0.00
 10 14 19 -0.11 0.00
 11 14 19 -3.10 0.00
 12 14 19 -0.24 0.00
 0 15 19 -26.94 0.00
 1 15 19 -1.61 0.00
 2 15 19 12.93 0.00
 3 15 19 -1.44 0.00
 4 15 19 -6.77 0.00
 5 15 19 -4.41 0.00
 6 15 19 2.94 0.00
 7 15 19 -4.76 0.00
 8 15 19 4.79 0.00
 9 15 19 0.69 0.00
 10 15 19 -11.84 0.00
 11 15 19 -1.66 0.00
 12 15 19 2.83 0.00
 1 16 19 0.02 0.00
 2 16 19 1.05 0.00
 3 16 19 0.29 0.00
 4 16 19 -13.74 0.00
 5 16 19 -1.20 0.00
 6 16 19 10.87 0.00
 7 16 19 -1.16 0.00
 8 16 19 -3.27 0.00
 9 16 19 -0.99 0.00
 10 16 19 1.35 0.00
 11 16 19 7.90 0.00
 0 17 19 -3.56 0.00
 1 17 19 0.35 0.00
 2 17 19 10.32 0.00
 3 17 19 3.29 0.00
 4 17 19 1.48 0.00
 5 17 19 6.29 0.00
 6 17 19 -9.06 0.00
 7 17 19 3.65 0.00
 8 17 19 2.59 0.00
 9 17 19 -5.28 0.00
 10 17 19 7.44 0.00
 1 18 19 -2.53 0.00
 2 18 19 -4.38 0.00
 3 18 19 -1.27 0.00
 4 18 19 9.64 0.00
 5 18 19 2.08 0.00
 6 18 19 2.06 0.00
 7 18 19 11.56 0.00
 8 18 19 -4.59 0.00
 9 18 19 -16.64 0.00
 0 19 19 -2.73 0.00
 1 19 19 4.33 0.00
 2 19 19 -2.67 0.00
 3 19 19 -4.22 0.00
 4 19 19 -2.94 0.00
 5 19 19 -5.07 0.00
 6 19 19 5.21 0.00
 7 19 19 1.05 0.00
 1 20 19 5.61 0.00
 2 20 19 6.43 0.00
 3 20 19 1.57 0.00
 4 20 19 -7.77 0.00
 5 20 19 -4.31 0.00
 6 20 19 -0.97 0.00
 0 21 19 -3.02 0.00
 1 21 19 -10.06 0.00
 2 21 19 4.02 0.00
 0 0 20 5.46 0.00
 2 0 20 10.98 0.00
 4 0 20 2.62 0.00
 6 0 20 5.65 0.00
 8 0 20 -13.38 0.00
 10 0 20 4.62 0.00
 12 0 20 -6.39 0.00
 14 0 20 6.58 0.00
 1 1 20 -2.36 0.00
 2 1 20 2.86 0.00
 3 1 20 -0.12 0.00
 4 1 20 -2.63 0.00
 5 1 20 3.96 0.00
 6 1 20 7.98 0.00
 7 1 20 -10.49 0.00
 8 1 20 -9.64 0.00
 9 1 20 8.52 0.00
 10 1 20 3.96 0.00
 11 1 20 -6.19 0.00
 12 1 20 -16.31 0.00
 13 1 20 7.86 0.00
 14 1 20 5.59 0.00
 0 2 20 -13.50 0.00
 1 2 20 6.09 0.00
 2 2 20 2.49 0.00
 3 2 20 -7.56 0.00
 4 2 20 -11.74 0.00
 5 2 20 10.52 0.00
 6 2 20 2.36 0.00
 7 2 20 -0.86 0.00
 8 2 20 5.87 0.00
 9 2 20 -4.25 0.00
 10 2 20 -1.25 0.00
 11 2 20 -0.90 0.00
 12 2 20 2.71 0.00
 13 2 20 -0.34 0.00
 14 2 20 2.27 0.00
 1 3 20 -5.51 0.00
 2 3 20 2.10 0.00
 3 3 20 5.30 0.00
 4 3 20 3.02 0.00
 5 3 20 -0.69 0.00
 6 3 20 0.07 0.00
 7 3 20 4.29 0.00
 8 3 20 2.79 0.00
 9 3 20 4.47 0.00
 10 3 20 5.66 0.00
 11 3 20 -5.11 0.00
 12 3 20 3.84 0.00
 13 3 20 -3.44 0.00
 14 3 20 0.24 0.00
 0 4 20 -11.44 0.00
 1 4 20 -2.54 0.00
 2 4 20 9.44 0.00
 3 4 20 -9.07 0.00
 4 4 20 -1.74 0.00
 5 4 20 1.46 0.00
 6 4 20 4.13 0.00
 7 4 20 -8.46 0.00
 8 4 20 -4.82 0.00
 9 4 20 4.64 0.00
 10 4 20 5.13 0.00
 11 4 20 6.32 0.00
 12 4 20 -6.37 0.00
 13 4 20 -10.84 0.00
 14 4 20 -5.24 0.00
 1 5 20 -15.87 0.00
 2 5 20 -4.07 0.00
 3 5 20 9.22 0.00
 4 5 20 -2.62 0.00
 5 5 20 -8.93 0.00
 6 5 20 -11.80 0.00
 7 5 20 -1.59 0.00
 8 5 20 6.74 0.00
 9 5 20 -2.30 0.00
 10 5 20 -11.04 0.00
 11 5 20 -1.63 0.00
 12 5 20 2.28 0.00
 13 5 20 7.55 0.00
 14 5 20 -0.46 0.00
 0 6 20 1.25 0.00
 1 6 20 7.09 0.00
 2 6 20 3.06 0.00
 3 6 20 3.69 0.00
 4 6 20 -1.17 0.00
 5 6 20 9.73 0.00
 6 6 20 -4.16 0.00
 7 6 20 -0.18 0.00
 8 6 20 1.13 0.00
 9 6 20 2.72 0.00
 10 6 20 -4.83 0.00
 11 6 20 0.91 0.00
 12 6 20 4.58 0.00
 13 6 20 -7.18 0.00
 14 6 20 7.38 0.00
 1 7 20 7.60 0.00
 2 7 20 1.35 0.00
 3 7 20 5.40 0.00
 4 7 20 6.19 0.00
 5 7 20 -8.41 0.00
 6 7 20 4.43 0.00
 7 7 20 11.68 0.00
 8 7 20 -2.21 0.00
 9 7 20 -3.59 0.00
 10 7 20 7.77 0.00
 11 7 20 7.36 0.00
 12 7 20 -6.92 0.00
 13 7 20 -8.76 0.00
 0 8 20 8.25 0.00
 1 8 20 -1.51 0.00
 2 8 20 -9.59 0.00
 3 8 20 -13.45 0.00
 4 8 20 10.68 0.00
 5 8 20 -0.99 0.00
 6 8 20 -6.88 0.00
 7 8 20 -5.88 0.00
 8 8 20 12.43 0.00
 9 8 20 -3.25 0.00
 10 8 20 -5.83 0.00
 11 8 20 7.05 0.00
 12 8 20 3.25 0.00
 13 8 20 -6.95 0.00
 1 9 20 6.52 0.00
 2 9 20 3.78 0.00
 3 9 20 -9.81 0.00
 4 9 20 -6.64 0.00
 5 9 20 6.12 0.00
 6 9 20 7.01 0.00
 7 9 20 0.48 0.00
 8 9 20 -4.91 0.00
 9 9 20 -8.58 0.00
 10 9 20 3.02 0.00
 11 9 20 2.82 0.00
 12 9 20 4.58 0.00
 13 9 20 7.44 0.00
 0 10 20 -6.58 0.00
 1 10 20 -2.05 0.00
 2 10 20 3.50 0.00
 3 10 20 10.73 0.00
 4 10 20 -7.70 0.00
 5 10 20 2.28 0.00
 6 10 20 -0.03 0.00
 7 10 20 5.55 0.00
 8 10 20 0.23 0.00
 9 10 20 -6.54 0.00
 10 10 20 -5.05 0.00
 11 10 20 5.93 0.00
 12 10 20 3.28 0.00
 1 11 20 -1.31 0.00
 2 11 20 2.05 0.00
 3 11 20 1.13 0.00
 4 11 20 -7.57 0.00
 5 11 20 -4.46 0.00
 6 11 20 -2.94 0.00
 7 11 20 4.74 0.00
 8 11 20 0.25 0.00
 9 11 20 -0.75 0.00
 10 11 20 -9.78 0.00
 11 11 20 -7.70 0.00
 12 11 20 6.24 0.00
 0 12 20 -4.56 0.00
 1 12 20 5.90 0.00
 2 12 20 7.87 0.00
 3 12 20 -10.66 0.00
 4 12 20 -4.49 0.00
 5 12 20 -1.56 0.00
 6 12 20 10.58 0.00
 7 12 20 4.10 0.00
 8 12 20 -11.79 0.00
 9 12 20 -3.09 0.00
 10 12 20 8.19 0.00
 11 12 20 2.64 0.00
 1 13 20 8.17 0.00
 2 13 20 -8.96 0.00
 3 13 20 -7.11 0.00
 4 13 20 14.92 0.00
 5 13 20 4.19 0.00
 6 13 20 0.74 0.00
 7 13 20 0.23 0.00
 8 13 20 4.21 0.00
 9 13 20 1.06 0.00
 10 13 20 1.64 0.00
 0 14 20 8.67 0.00
 1 14 20 -0.62 0.00
 2 14 20 -5.12 0.00
 3 14 20 2.07 0.00
 4 14 20 0.65 0.00
 5 14 20 0.26 0.00
 6 14 20 -0.26 0.00
 7 14 20 -2.80 0.00
 8 14 20 5.38 0.00
 9 14 20 2.22 0.00
 1 15 20 19.31 0.00
 2 15 20 -1.87 0.00
 3 15 20 -9.95 0.00
 4 15 20 -0.79 0.00
 5 15 20 7.16 0.00
 6 15 20 -2.47 0.00
 7 15 20 -1.15 0.00
 8 15 20 -5.36 0.00
 0 16 20 0.02 0.00
 1 16 20 0.59 0.00
 2 16 20 -3.39 0.00
 3 16 20 -9.11 0.00
 4 16 20 -0.11 0.00
 5 16 20 12.32 0.00
 6 16 20 -2.81 0.00
 7 16 20 -6.14 0.00
 1 17 20 6.31 0.00
 2 17 20 -0.20 0.00
 3 17 20 -6.77 0.00
 4 17 20 -1.69 0.00
 5 17 20 -6.28 0.00
 6 17 20 5.41 0.00
 0 18 20 -0.85 0.00
 1 18 20 -1.61 0.00
 2 18 20 0.68 0.00
 3 18 20 9.15 0.00
 1 0 21 10.26 0.00
 3 0 21 -6.26 0.00
 5 0 21 -3.59 0.00
 7 0 21 -7.28 0.00
 9 0 21 8.50 0.00
 11 0 21 -3.00 0.00
 0 1 21 -3.29 0.00
 1 1 21 2.44 0.00
 2 1 21 1.03 0.00
 3 1 21 0.07 0.00
 4 1 21 3.02 0.00
 5 1 21 5.19 0.00
 6 1 21 -9.65 0.00
 7 1 21 -17.24 0.00
 8 1 21 9.58 0.00
 9 1 21 5.43 0.00
 10 1 21 -6.38 0.00
 11 1 21 -10.48 0.00
 12 1 21 11.90 0.00
 1 2 21 7.63 0.00
 2 2 21 -5.28 0.00
 3 2 21 -8.98 0.00
 4 2 21 6.51 0.00
 5 2 21 10.81 0.00
 6 2 21 -1.78 0.00
 7 2 21 0.11 0.00
 8 2 21 -7.18 0.00
 9 2 21 -5.44 0.00
 10 2 21 1.62 0.00
 11 2 21 4.27 0.00
 12 2 21 5.61 0.00
 0 3 21 -4.96 0.00
 1 3 21 2.14 0.00
 2 3 21 5.35 0.00
 3 3 21 -3.31 0.00
 4 3 21 2.12 0.00
 5 3 21 5.37 0.00
 6 3 21 2.60 0.00
 7 3 21 -0.75 0.00
 8 3 21 1.62 0.00
 9 3 21 8.99 0.00
 10 3 21 -9.10 0.00
 11 3 21 -3.31 0.00
 12 3 21 -0.48 0.00
 1 4 21 11.51 0.00
 2 4 21 -3.53 0.00
 3 4 21 -5.54 0.00
 4 4 21 3.79 0.00
 5 4 21 5.80 0.00
 6 4 21 0.53 0.00
 7 4 21 -4.44 0.00
 8 4 21 5.29 0.00
 9 4 21 7.32 0.00
 10 4 21 1.13 0.00
 11 4 21 -7.31 0.00
 0 5 21 -11.72 0.00
 1 5 21 -2.18 0.00
 2 5 21 3.25 0.00
 3 5 21 -3.75 0.00
 4 5 21 -9.11 0.00
 5 5 21 -2.26 0.00
 6 5 21 -4.22 0.00
 7 5 21 2.25 0.00
 8 5 21 4.58 0.00
 9 5 21 -1.25 0.00
 10 5 21 -1.82 0.00
 11 5 21 -2.11 0.00
 1 6 21 1.55 0.00
 2 6 21 -2.62 0.00
 3 6 21 -4.72 0.00
 4 6 21 3.21 0.00
 5 6 21 -1.38 0.00
 6 6 21 -9.72 0.00
 7 6 21 -2.79 0.00
 8 6 21 1.57 0.00
 9 6 21 -2.11 0.00
 10 6 21 0.74 0.00
 11 6 21 6.86 0.00
 0 7 21 20.86 0.00
 1 7 21 2.61 0.00
 2 7 21 -2.69 0.00
 3 7 21 2.91 0.00
 4 7 21 2.11 0.00
 5 7 21 2.59 0.00
 6 7 21 9.98 0.00
 7 7 21 -7.54 0.00
 8 7 21 -3.76 0.00
 9 7 21 5.52 0.00
 10 7 21 5.02 0.00
 1 8 21 -8.47 0.00
 2 8 21 -4.22 0.00
 3 8 21 8.36 0.00
 4 8 21 8.04 0.00
 5 8 21 -4.36 0.00
 6 8 21 -2.11 0.00
 7 8 21 6.33 0.00
 8 8 21 2.20 0.00
 9 8 21 -4.62 0.00
 10 8 21 1.67 0.00
 0 9 21 7.34 0.00
 1 9 21 3.18 0.00
 2 9 21 -17.93 0.00
 3 9 21 -9.73 0.00
 4 9 21 8.89 0.00
 5 9 21 9.84 0.00
 6 9 21 -6.54 0.00
 7 9 21 -4.13 0.00
 8 9 21 -6.89 0.00
 9 9 21 6.31 0.00
 1 10 21 1.32 0.00
 2 10 21 7.09 0.00
 3 10 21 -0.89 0.00
 4 10 21 -7.33 0.00
 5 10 21 3.09 0.00
 6 10 21 4.03 0.00
 7 10 21 2.44 0.00
 8 10 21 -4.78 0.00
 9 10 21 1.20 0.00
 0 11 21 8.03 0.00
 1 11 21 1.32 0.00
 2 11 21 -2.51 0.00
 3 11 21 -6.44 0.00
 4 11 21 0.10 0.00
 5 11 21 2.83 0.00
 6 11 21 5.04 0.00
 7 11 21 -3.70 0.00
 8 11 21 -0.32 0.00
 1 12 21 2.99 0.00
 2 12 21 -7.98 0.00
 3 12 21 -5.31 0.00
 4 12 21 3.02 0.00
 5 12 21 2.05 0.00
 6 12 21 2.24 0.00
 7 12 21 -13.60 0.00
 0 13 21 8.71 0.00
 1 13 21 -5.45 0.00
 2 13 21 -6.65 0.00
 3 13 21 14.22 0.00
 4 13 21 5.64 0.00
 5 13 21 -6.70 0.00
 6 13 21 -2.90 0.00
 1 14 21 -6.49 0.00
 2 14 21 1.64 0.00
 3 14 21 2.94 0.00
 4 14 21 -0.88 0.00
 0 15 21 13.67 0.00
 1 15 21 -0.78 0.00
 2 15 21 -11.69 0.00
 0 0 22 7.18 0.00
 2 0 22 -13.37 0.00
 4 0 22 -5.65 0.00
 6 0 22 3.09 0.00
 8 0 22 6.83 0.00
 1 1 22 -0.15 0.00
 2 1 22 2.02 0.00
 3 1 22 2.74 0.00
 4 1 22 3.59 0.00
 5 1 22 -6.90 0.00
 6 1 22 -8.34 0.00
 7 1 22 8.53 0.00
 8 1 22 16.79 0.00
 0 2 22 7.61 0.00
 1 2 22 -1.90 0.00
 2 2 22 -0.02 0.00
 3 2 22 1.80 0.00
 4 2 22 10.17 0.00
 5 2 22 -2.69 0.00
 6 2 22 -4.18 0.00
 7 2 22 -4.28 0.00
 8 2 22 -5.22 0.00
 1 3 22 1.83 0.00
 2 3 22 -3.93 0.00
 3 3 22 3.33 0.00
 4 3 22 3.11 0.00
 5 3 22 -4.77 0.00
 6 3 22 -9.35 0.00
 7 3 22 -0.03 0.00
 8 3 22 2.16 0.00
 0 4 22 2.48 0.00
 1 4 22 0.88 0.00
 2 4 22 -6.10 0.00
 3 4 22 5.34 0.00
 4 4 22 1.59 0.00
 5 4 22 3.65 0.00
 6 4 22 -3.98 0.00
 7 4 22 0.58 0.00
 8 4 22 5.61 0.00
 1 5 22 2.11 0.00
 2 5 22 0.66 0.00
 3 5 22 -1.36 0.00
 4 5 22 3.03 0.00
 5 5 22 0.81 0.00
 6 5 22 4.36 0.00
 7 5 22 8.92 0.00
 0 6 22 -3.31 0.00
 1 6 22 -5.13 0.00
 2 6 22 1.73 0.00
 3 6 22 -3.06 0.00
 4 6 22 0.87 0.00
 5 6 22 -9.94 0.00
 6 6 22 -2.28 0.00
 7 6 22 5.12 0.00
 1 7 22 -13.11 0.00
 2 7 22 -0.03 0.00
 3 7 22 2.29 0.00
 4 7 22 -1.30 0.00
 5 7 22 -1.07 0.00
 6 7 22 -7.78 0.00
 0 8 22 -8.53 0.00
 1 8 22 4.09 0.00
 2 8 22 9.73 0.00
 3 8 22 9.93 0.00
 4 8 22 -5.72 0.00
 5 8 22 -1.47 0.00
 1 9 22 -10.08 0.00
 2 9 22 -7.22 0.00
 3 9 22 14.66 0.00
 4 9 22 8.92 0.00
 0 10 22 -4.40 0.00
 1 10 22 -0.18 0.00
 2 10 22 2.05 0.00
 2 0 0 -500.83 0.00
 4 0 0 232.33 0.00
 6 0 0 -6.33 0.00
 8 0 0 31.32 0.00
 10 0 0 -27.23 0.00
 2 1 0 175.22 0.00
 8 1 0 -77.00 0.00
 0 2 0 -197.21 0.00
 2 2 0 -232.64 0.00
 28 4 0 9.42 0.00
 28 15 0 3.67 0.00
 22 17 0 -6.99 0.00
 26 20 0 -2.53 0.00
 24 23 0 -1.82 0.00
 22 26 0 6.78 0.00
 20 29 0 4.67 0.00
 18 31 0 0.24 0.00
 14 34 0 8.59 0.00
 12 35 0 -11.24 0.00
 10 36 0 -8.79 0.00
 8 37 0 9.04 0.00
 1 0 1 -783.95 0.00
 3 0 1 233.33 0.00
 0 1 1 -21.62 0.00
 1 1 1 196.40 0.00
 2 1 1 27.42 0.00
 1 2 1 76.10 0.00
 29 2 1 2.65 0.00
 16 4 1 0.53 0.00
 29 4 1 -6.12 0.00
 29 11 1 15.74 0.00
 28 15 1 -2.87 0.00
 27 17 1 5.77 0.00
 26 20 1 -2.09 0.00
 25 22 1 3.94 0.00
 24 23 1 -1.09 0.00
 23 25 1 0.99 0.00
 22 26 1 -0.20 0.00
 20 29 1 -0.56 0.00
 19 30 1 -3.26 0.00
 18 31 1 -0.64 0.00
 14 34 1 2.77 0.00
 12 35 1 0.86 0.00
 10 36 1 0.55 0.00
 8 37 1 0.94 0.00
 0 0 2 -612.06 0.00
 29 1 2 -1.52 0.00
 5 7 2 -9.33 0.00
 29 10 2 1.10 0.00
 29 11 2 4.65 0.00
 5 13 2 -2.92 0.00
 28 14 2 -1.51 0.00
 27 17 2 -1.65 0.00
 24 23 2 -3.40 0.00
 23 25 2 -2.22 0.00
 22 26 2 -1.34 0.00
 15 33 2 2.82 0.00
 14 34 2 -6.99 0.00
 12 35 2 3.45 0.00
 10 36 2 5.06 0.00
 7 37 2 3.91 0.00
 8 37 2 -5.93 0.00
 29 0 3 8.50 0.00
 0 1 3 -90.50 0.00
 28 4 3 5.47 0.00
 28 5 3 8.62 0.00
 28 6 3 2.88 0.00
 29 6 3 -18.53 0.00
 29 9 3 4.40 0.00
 29 10 3 5.29 0.00
 28 14 3 1.77 0.00
 27 17 3 -7.76 0.00
 26 19 3 1.07 0.00
 25 21 3 -3.35 0.00
 24 23 3 0.16 0.00
 22 26 3 -1.27 0.00
 21 27 3 -0.28 0.00
 16 32 3 -6.86 0.00
 15 33 3 7.69 0.00
 12 35 3 -3.44 0.00
 10 36 3 -0.11 0.00
 6 37 3 6.23 0.00
 7 37 3 0.36 0.00
 6 2 4 -56.62 0.00
 25 3 4 -4.07 0.00
 29 8 4 -0.46 0.00
 29 9 4 -2.86 0.00
 25 11 4 9.08 0.00
 28 13 4 -1.68 0.00
 27 16 4 1.42 0.00
 26 19 4 7.69 0.00
 25 21 4 -3.90 0.00
 23 24 4 2.27 0.00
 21 27 4 -2.77 0.00
 20 28 4 2.83 0.00
 19 29 4 5.25 0.00
 18 30 4 -0.25 0.00
 17 31 4 -0.65 0.00
 16 32 4 -5.66 0.00
 13 34 4 3.47 0.00
 11 35 4 -3.11 0.00
 9 36 4 2.79 0.00
 5 37 4 7.95 0.00
 6 37 4 2.01 0.00
 29 0 5 -6.80 0.00
 25 3 5 1.27 0.00
 29 7 5 -4.89 0.00
 29 8 5 -7.00 0.00
 24 9 5 -1.09 0.00
 28 12 5 -0.02 0.00
 27 15 5 -5.60 0.00
 26 18 5 -0.67 0.00
 25 20 5 4.23 0.00
 24 22 5 2.66 0.00
 22 25 5 2.17 0.00
 15 32 5 -2.14 0.00
 14 33 5 -1.55 0.00
 12 34 5 2.08 0.00
 10 35 5 -2.51 0.00
 8 36 5 3.41 0.00
 2 37 5 -11.20 0.00
 3 37 5 4.52 0.00
 4 37 5 9.84 0.00
 5 37 5 2.01 0.00
 29 4 6 8.20 0.00
 29 5 6 9.77 0.00
 29 6 6 -7.90 0.00
 28 11 6 7.36 0.00
 27 14 6 -2.64 0.00
 26 17 6 8.76 0.00
 25 19 6 1.62 0.00
 24 21 6 1.38 0.00
 23 23 6 9.29 0.00
 21 26 6 1.44 0.00
 20 27 6 -1.81 0.00
 19 28 6 1.43 0.00
 18 29 6 -0.87 0.00
 17 30 6 6.39 0.00
 16 31 6 3.59 0.00
 15 32 6 -6.20 0.00
 13 33 6 0.59 0.00
 9 35 6 -5.63 0.00
 6 36 6 -3.71 0.00
 7 36 6 1.07 0.00
 1 37 6 -7.61 0.00
 2 37 6 5.64 0.00
 29 0 7 -0.01 0.00
 29 1 7 -2.91 0.00
 29 2 7 4.58 0.00
 28 9 7 0.13 0.00
 27 13 7 -2.40 0.00
 26 16 7 1.44 0.00
 25 18 7 1.25 0.00
 24 20 7 1.80 0.00
 23 22 7 -0.12 0.00
 21 25 7 0.68 0.00
 15 31 7 3.62 0.00
 14 32 7 -5.73 0.00
 12 33 7 2.18 0.00
 8 35 7 -6.81 0.00
 3 36 7 1.76 0.00
 4 36 7 -1.27 0.00
 5 36 7 -4.79 0.00
 28 5 8 0.90 0.00
 28 6 8 -10.29 0.00
 28 7 8 1.89 0.00
 27 11 8 5.38 0.00
 27 12 8 3.13 0.00
 26 15 8 3.03 0.00
 25 17 8 2.01 0.00
 24 19 8 3.31 0.00
 23 21 8 4.38 0.00
 22 23 8 4.85 0.00
 21 24 8 3.39 0.00
 19 27 8 0.14 0.00
 18 28 8 -2.11 0.00
 17 29 8 -2.17 0.00
 13 32 8 -4.70 0.00
 11 33 8 2.09 0.00
 9 34 8 -0.88 0.00
 6 35 8 2.13 0.00
 7 35 8 -2.07 0.00
 0 36 8 2.19 0.00
 1 36 8 -2.75 0.00
 2 36 8 6.38 0.00
 28 1 9 3.71 0.00
 28 2 9 6.05 0.00
 28 3 9 2.23 0.00
 27 9 9 5.88 0.00
 26 13 9 -0.82 0.00
 25 16 9 -2.51 0.00
 24 18 9 -3.16 0.00
 23 20 9 -2.85 0.00
 22 22 9 -2.13 0.00
 21 23 9 4.97 0.00
 19 26 9 4.73 0.00
 18 27 9 -3.35 0.00
 17 28 9 -2.40 0.00
 16 29 9 -0.17 0.00
 15 30 9 -0.66 0.00
 13 31 9 -2.71 0.00
 12 32 9 -5.37 0.00
 10 33 9 0.76 0.00
 7 34 9 0.20 0.00
 8 34 9 -5.02 0.00
 0 35 9 -7.44 0.00
 1 35 9 -4.19 0.00
 2 35 9 8.17 0.00
 3 35 9 -0.16 0.00
 4 35 9 -7.22 0.00
 27 4 10 1.02 0.00
 27 5 10 -2.91 0.00
 27 6 10 -5.63 0.00
 26 10 10 3.55 0.00
 26 11 10 -0.23 0.00
 25 14 10 0.15 0.00
 23 19 10 0.98 0.00
 21 22 10 -1.67 0.00
 19 25 10 4.09 0.00
 18 26 10 10.63 0.00
 17 27 10 -6.73 0.00
 16 28 10 -2.36 0.00
 15 29 10 3.04 0.00
 12 31 10 -1.39 0.00
 10 32 10 -6.03 0.00
 8 33 10 4.04 0.00
 4 34 10 1.04 0.00
 5 34 10 2.66 0.00
 26 7 11 -3.80 0.00
 2 8 11 3.67 0.00
 26 8 11 -0.77 0.00
 25 11 11 -3.05 0.00
 25 12 11 -2.39 0.00
 24 15 11 2.90 0.00
 23 17 11 -1.10 0.00
 22 19 11 2.25 0.00
 21 21 11 3.15 0.00
 20 22 11 -4.37 0.00
 18 25 11 -0.85 0.00
 17 26 11 6.85 0.00
 16 27 11 -4.25 0.00
 15 28 11 2.35 0.00
 12 30 11 0.69 0.00
 10 31 11 -3.59 0.00
 8 32 11 -0.69 0.00
 5 33 11 -0.19 0.00
 6 33 11 -9.07 0.00
 26 0 12 1.01 0.00
 26 1 12 -5.67 0.00
 26 2 12 4.43 0.00
 25 8 12 -8.31 0.00
 25 9 12 9.42 0.00
 24 12 12 -3.54 0.00
 23 15 12 5.06 0.00
 22 17 12 -4.85 0.00
 21 19 12 -2.88 0.00
 20 21 12 8.34 0.00
 19 22 12 -4.20 0.00
 16 26 12 -1.01 0.00
 12 29 12 1.18 0.00
 10 30 12 -3.24 0.00
 8 31 12 1.15 0.00
 5 32 12 1.28 0.00
 6 32 12 -0.74 0.00
 25 0 13 3.55 0.00
 25 1 13 -3.41 0.00
 25 2 13 -3.53 0.00
 25 3 13 -2.50 0.00
 25 4 13 0.03 0.00
 24 9 13 1.67 0.00
 23 12 13 -1.06 0.00
 23 13 13 -7.13 0.00
 22 15 13 0.35 0.00
 21 17 13 -1.01 0.00
 20 19 13 -4.28 0.00
 18 22 13 -1.76 0.00
 17 23 13 -10.81 0.00
 14 26 13 2.55 0.00
 13 27 13 0.29 0.00
 12 28 13 9.32 0.00
 10 29 13 -2.00 0.00
 8 30 13 6.14 0.00
 4 31 13 4.60 0.00
 5 31 13 0.45 0.00
 24 0 14 -4.97 0.00
 24 1 14 -1.19 0.00
 24 2 14 0.93 0.00
 24 3 14 -2.65 0.00
 24 4 14 -6.30 0.00
 23 9 14 -6.22 0.00
 22 12 14 -0.19 0.00
 21 15 14 -5.31 0.00
 20 17 14 2.46 0.00
 19 19 14 -0.13 0.00
 18 20 14 -4.21 0.00
 16 23 14 -3.04 0.00
 15 24 14 -0.21 0.00
 14 25 14 0.74 0.00
 11 27 14 3.38 0.00
 9 28 14 1.16 0.00
 7 29 14 -3.06 0.00
 3 30 14 3.22 0.00
 4 30 14 0.02 0.00
 5 30 14 1.71 0.00
 23 0 15 -5.43 0.00
 23 1 15 -5.63 0.00
 23 2 15 4.35 0.00
 23 3 15 1.71 0.00
 23 4 15 -6.84 0.00
 22 8 15 0.68 0.00
 22 9 15 -2.92 0.00
 21 12 15 -1.06 0.00
 20 14 15 2.55 0.00
 18 18 15 0.65 0.00
 16 21 15 -0.38 0.00
 15 22 15 -0.55 0.00
 14 23 15 2.21 0.00
 13 24 15 1.92 0.00
 12 25 15 -4.72 0.00
 10 26 15 -2.94 0.00
 9 27 15 3.06 0.00
 6 28 15 3.19 0.00
 0 29 15 8.56 0.00
 1 29 15 -1.19 0.00
 2 29 15 -1.85 0.00
 3 29 15 -2.36 0.00
 22 0 16 1.95 0.00
 22 1 16 -4.56 0.00
 21 7 16 2.54 0.00
 21 8 16 -5.03 0.00
 20 11 16 1.87 0.00
 19 14 16 7.18 0.00
 18 16 16 3.81 0.00
 17 17 16 3.98 0.00
 16 19 16 0.39 0.00
 15 20 16 -2.62 0.00
 14 21 16 -3.99 0.00
 13 22 16 5.18 0.00
 12 23 16 2.65 0.00
 11 24 16 -8.07 0.00
 9 25 16 4.05 0.00
 7 26 16 0.64 0.00
 4 27 16 3.59 0.00
 5 27 16 -1.18 0.00
 20 5 17 2.57 0.00
 20 6 17 -5.20 0.00
 19 10 17 -1.45 0.00
 18 12 17 -3.45 0.00
 16 16 17 -3.93 0.00
 15 18 17 4.76 0.00
 14 19 17 3.35 0.00
 13 20 17 0.17 0.00
 12 21 17 1.23 0.00
 11 22 17 -2.22 0.00
 9 23 17 4.19 0.00
 8 24 17 -3.55 0.00
 5 25 17 -2.55 0.00
 6 25 17 -2.36 0.00
 1 26 17 -1.53 0.00
 2 26 17 4.08 0.00
 19 1 18 0.29 0.00
 19 2 18 -7.11 0.00
 19 3 18 -7.74 0.00
 18 7 18 -4.70 0.00
 18 8 18 -2.81 0.00
 17 10 18 1.83 0.00
 17 11 18 -0.97 0.00
 16 13 18 -5.96 0.00
 15 15 18 -3.30 0.00
 14 16 18 -5.15 0.00
 9 21 18 -0.26 0.00
 7 22 18 -4.12 0.00
 5 23 18 1.87 0.00
 0 24 18 -6.50 0.00
 1 24 18 -1.71 0.00
 2 24 18 0.52 0.00
 17 0 19 -2.91 0.00
 17 1 19 3.28 0.00
 17 2 19 3.59 0.00
 17 3 19 -3.91 0.00
 17 4 19 6.28 0.00
 16 8 19 2.80 0.00
 15 11 19 -2.58 0.00
 14 13 19 -0.91 0.00
 13 14 19 -2.58 0.00
 11 17 19 6.75 0.00
 8 19 19 -0.90 0.00
 7 20 19 -1.91 0.00
 3 21 19 7.72 0.00
 4 21 19 -0.80 0.00
 5 21 19 0.66 0.00
 15 1 20 -4.16 0.00
 15 2 20 3.25 0.00
 15 3 20 -1.07 0.00
 15 4 20 8.93 0.00
 14 7 20 2.72 0.00
 13 10 20 -4.98 0.00
 12 12 20 -3.96 0.00
 11 13 20 1.36 0.00
 10 14 20 -1.46 0.00
 9 15 20 -5.76 0.00
 8 16 20 -0.15 0.00
 7 17 20 2.97 0.00
 4 18 20 3.37 0.00
 5 18 20 -4.44 0.00
 1 19 20 0.66 0.00
 2 19 20 -1.09 0.00
 12 4 21 -8.33 0.00
 12 5 21 5.88 0.00
 11 7 21 -6.46 0.00
 11 8 21 -0.99 0.00
 10 9 21 5.63 0.00
 10 10 21 6.24 0.00
 9 11 21 -1.61 0.00
 8 12 21 -4.54 0.00
 7 13 21 1.00 0.00
 5 14 21 3.78 0.00
 6 14 21 1.11 0.00
 3 15 21 1.47 0.00
 4 15 21 6.68 0.00
 1 16 21 -1.89 0.00
 9 1 22 -4.38 0.00
 9 2 22 4.31 0.00
 9 3 22 -5.65 0.00
 8 5 22 5.35 0.00
 8 6 22 3.22 0.00
 7 7 22 -3.60 0.00
 6 8 22 2.51 0.00
 7 8 22 4.55 0.00
 5 9 22 -6.74 0.00
 6 9 22 -4.90 0.00
 3 10 22 -11.43 0.00
 4 10 22 -1.97 0.00
 5 10 22 4.82 0.00
 1 11 22 -6.82 0.00
 2 11 22 -2.78 0.00
 3 11 22 -1.12 0.00
 0 0 0 0.00 0.00
# SQUEEZE RESULTS (Version = 21116)
# Note: Data are Listed for all Voids in the P1 Unit Cell
# i.e. Centre of Gravity, Solvent Accessible Volume,
# Recovered number of Electrons in the Void and
# Details about the Squeezed Material
;
_shelx_fab_checksum              22637
_olex2_submission_special_instructions 'No special instructions were received'
loop_
_space_group_symop_operation_xyz
'x, y, z'
'-x+1/2, -y, z'
'x, -y+1/2, -z+1/2'
'-x+1/2, y+1/2, -z+1/2'
'-x, -y, -z'
'x-1/2, y, -z'
'-x, y-1/2, z-1/2'
'x-1/2, -y-1/2, z-1/2'
loop_
_atom_site_label
_atom_site_type_symbol
_atom_site_fract_x
_atom_site_fract_y
_atom_site_fract_z
_atom_site_U_iso_or_equiv
_atom_site_adp_type
_atom_site_occupancy
_atom_site_site_symmetry_order
_atom_site_calc_flag
_atom_site_refinement_flags_posn
_atom_site_refinement_flags_adp
_atom_site_refinement_flags_occupancy
_atom_site_disorder_assembly
_atom_site_disorder_group
V1 V 0.28690(8) 0.27691(6) 0.65730(12) 0.0271(4) Uani 1 1 d . . . . .
W1 W 0.15726(2) 0.22848(2) 0.61994(3) 0.03564(15) Uani 1 1 d . . . . .
W2 W 0.15852(2) 0.32785(2) 0.69811(3) 0.03795(15) Uani 1 1 d . . . . .
W3 W 0.41384(2) 0.33103(2) 0.70025(3) 0.03719(15) Uani 1 1 d . . . . .
W4 W 0.40934(2) 0.22037(2) 0.61322(3) 0.03475(14) Uani 1 1 d . . . . .
W5 W 0.29388(2) 0.38065(2) 0.74310(3) 0.03462(14) Uani 1 1 d . . . . .
W6 W 0.28847(2) 0.17162(2) 0.57196(3) 0.03879(15) Uani 1 1 d . . . . .
W7 W 0.36738(3) 0.32054(2) 0.50881(3) 0.04001(16) Uani 1 1 d . U . . .
W8 W 0.24545(3) 0.27141(2) 0.46937(3) 0.04049(16) Uani 1 1 d . U . . .
W9 W 0.24734(2) 0.37033(2) 0.54909(3) 0.04041(16) Uani 1 1 d . U . . .
Co1 Co 0.250000 0.500000 0.76082(15) 0.0323(5) Uani 1 2 d S T P . .
Co2 Co 0.53686(7) 0.20623(6) 0.49831(10) 0.0344(4) Uani 1 1 d . . . . .
F1 F 0.4651(4) 0.5766(3) 1.0584(5) 0.053(2) Uani 1 1 d . . . . .
F2 F 0.4269(4) 0.4399(3) 0.9490(5) 0.050(2) Uani 1 1 d . . . . .
F3 F 0.4182(4) 0.4411(4) 0.3870(6) 0.066(3) Uani 1 1 d . . . . .
F4 F 0.5142(5) 0.3969(3) 0.3815(6) 0.066(3) Uani 1 1 d . . . . .
F5 F 0.5457(4) 0.4279(3) 0.6280(5) 0.061(3) Uani 1 1 d . . . . .
F6 F 0.4491(5) 0.4670(4) 0.6387(5) 0.068(3) Uani 1 1 d . . . . .
F7 F 0.6574(4) 0.0233(3) 0.7374(7) 0.063(3) Uani 1 1 d . . . . .
F8 F 0.6194(4) -0.0585(3) 0.7323(6) 0.060(3) Uani 1 1 d . . . . .
F9 F 0.4382(4) -0.0053(3) 0.6933(6) 0.055(2) Uani 1 1 d . . . . .
F10 F 0.4772(4) 0.0775(3) 0.7009(6) 0.055(2) Uani 1 1 d . . . . .
N1 N 0.3057(4) 0.5215(4) 0.8447(7) 0.035(2) Uani 1 1 d . . . . .
N2 N 0.3565(5) 0.5656(4) 0.9160(8) 0.050(3) Uani 1 1 d . . . . .
N3 N 0.3539(5) 0.5247(4) 0.9437(7) 0.043(3) Uani 1 1 d . . . . .
N4 N 0.3090(4) 0.5125(3) 0.6766(6) 0.034(2) Uani 1 1 d . . . . .
N5 N 0.3785(6) 0.5352(4) 0.6046(8) 0.052(3) Uani 1 1 d . . . . .
N6 N 0.3550(6) 0.4978(4) 0.5779(7) 0.046(3) Uani 1 1 d . . . . .
N7 N 0.5607(4) 0.2698(4) 0.5310(7) 0.035(2) Uani 1 1 d . . . . .
N8 N 0.5998(7) 0.3252(5) 0.5940(8) 0.060(4) Uani 1 1 d . . . . .
N9 N 0.5799(5) 0.3399(4) 0.5282(7) 0.041(3) Uani 1 1 d . . . . .
N10 N 0.5825(5) 0.1699(4) 0.5763(8) 0.045(3) Uani 1 1 d . . . . .
N11 N 0.6395(6) 0.1188(5) 0.6203(8) 0.055(4) Uani 1 1 d . . . . .
N12 N 0.5954(5) 0.1250(4) 0.6654(7) 0.038(3) Uani 1 1 d . . . . .
N13 N 0.5572(5) -0.1051(4) 0.6051(8) 0.045(3) Uani 1 1 d . . . . .
N14 N 0.5099(5) -0.1025(4) 0.6442(7) 0.043(3) Uani 1 1 d . . . . .
N15 N 0.4940(5) -0.1482(4) 0.5545(7) 0.038(3) Uani 1 1 d . . . . .
O1 O 0.4898(4) 0.2385(3) 0.4155(6) 0.046(2) Uani 1 1 d . . . . .
O2 O 0.2801(4) 0.4354(3) 0.7607(5) 0.0330(19) Uani 1 1 d . . . . .
O3 O 0.2826(4) 0.3846(3) 0.6386(5) 0.0317(19) Uani 1 1 d . . . . .
O4 O 0.3005(3) 0.3614(3) 0.8394(5) 0.0314(18) Uani 1 1 d . . . . .
O5 O 0.3715(3) 0.3827(3) 0.7273(5) 0.0326(19) Uani 1 1 d . . . . .
O6 O 0.2204(4) 0.3558(3) 0.7429(5) 0.035(2) Uani 1 1 d . . . . .
O7 O 0.3207(4) 0.3114(3) 0.7139(5) 0.0336(19) Uani 1 1 d . . . . .
O8 O 0.4799(4) 0.3505(3) 0.6955(5) 0.038(2) Uani 1 1 d . . . . .
O9 O 0.3924(4) 0.3406(3) 0.6006(5) 0.0329(19) Uani 1 1 d . . . . .
O10 O 0.4229(4) 0.2713(3) 0.6731(5) 0.0330(19) Uani 1 1 d . . . . .
O11 O 0.4189(4) 0.3354(3) 0.4506(6) 0.044(2) Uani 1 1 d . . . . .
O12 O 0.3182(4) 0.2920(3) 0.4398(5) 0.038(2) Uani 1 1 d . U . . .
O13 O 0.3193(4) 0.3701(3) 0.5046(6) 0.041(2) Uani 1 1 d . U . . .
O14 O 0.2863(4) 0.3022(3) 0.5722(5) 0.038(2) Uani 1 1 d . . . . .
O15 O 0.2191(5) 0.2557(4) 0.3866(6) 0.049(3) Uani 1 1 d . . . . .
O16 O 0.1879(4) 0.2585(3) 0.5360(5) 0.035(2) Uani 1 1 d . . . . .
O17 O 0.2173(4) 0.1886(3) 0.6068(5) 0.036(2) Uani 1 1 d . . . . .
O18 O 0.1028(4) 0.2028(3) 0.5733(5) 0.038(2) Uani 1 1 d . . . . .
O19 O 0.1206(4) 0.2822(3) 0.6467(5) 0.0337(19) Uani 1 1 d . . . . .
O20 O 0.2198(4) 0.2703(3) 0.6801(6) 0.034(2) Uani 1 1 d . . . . .
O21 O 0.1457(4) 0.2954(3) 0.7873(5) 0.034(2) Uani 1 1 d . . . . .
O22 O 0.1057(4) 0.3648(3) 0.7103(6) 0.039(2) Uani 1 1 d . . . . .
O23 O 0.1869(4) 0.3498(3) 0.6076(6) 0.039(2) Uani 1 1 d . . . . .
O24 O 0.4157(3) 0.3144(3) 0.8021(5) 0.0306(18) Uani 1 1 d . . . . .
O25 O 0.2238(4) 0.4206(3) 0.5202(6) 0.042(2) Uani 1 1 d . . . . .
O26 O 0.2225(4) 0.3314(3) 0.4734(6) 0.043(2) Uani 1 1 d . U . . .
O27 O 0.4730(4) 0.2085(3) 0.5732(5) 0.0330(19) Uani 1 1 d . . . . .
O28 O 0.3210(4) 0.2285(3) 0.6462(5) 0.033(2) Uani 1 1 d . . . . .
O29 O 0.3896(4) 0.2635(3) 0.5406(5) 0.036(2) Uani 1 1 d . . . . .
O30 O 0.3684(3) 0.1772(3) 0.5624(5) 0.0313(19) Uani 1 1 d . . . . .
O31 O 0.2740(4) 0.1283(3) 0.5153(5) 0.038(2) Uani 1 1 d . . . . .
O32 O 0.2808(4) 0.2181(3) 0.5037(5) 0.038(2) Uani 1 1 d . . . . .
C1 C 0.3261(7) 0.5622(5) 0.8568(8) 0.045(3) Uani 1 1 d . . . . .
H1 H 0.319090 0.585882 0.825753 0.055 Uiso 1 1 calc R . . . .
C2 C 0.3245(6) 0.4992(5) 0.9027(9) 0.045(3) Uani 1 1 d . . . . .
H2 H 0.317341 0.469616 0.912057 0.054 Uiso 1 1 calc R . . . .
C3 C 0.3810(6) 0.5156(5) 1.0150(8) 0.040(3) Uani 1 1 d . . . . .
H3A H 0.364163 0.489810 1.037109 0.047 Uiso 1 1 calc R . . . .
H3B H 0.375121 0.540352 1.047673 0.047 Uiso 1 1 calc R . . . .
C4 C 0.4426(7) 0.5079(5) 1.0056(8) 0.043(3) Uani 1 1 d . . . . .
C5 C 0.4809(7) 0.5381(5) 1.0281(8) 0.047(4) Uani 1 1 d . . . . .
C6 C 0.4634(6) 0.4697(5) 0.9751(8) 0.042(3) Uani 1 1 d . . . . .
C7 C 0.3489(6) 0.5438(5) 0.6629(9) 0.044(3) Uani 1 1 d . . . . .
H7 H 0.354249 0.568554 0.692146 0.052 Uiso 1 1 calc R . . . .
C8 C 0.3144(6) 0.4847(5) 0.6214(8) 0.041(3) Uani 1 1 d . . . . .
H8 H 0.292751 0.459729 0.614179 0.050 Uiso 1 1 calc R . . . .
C9 C 0.3732(6) 0.4775(6) 0.5092(9) 0.049(4) Uani 1 1 d . . . . .
H9A H 0.373594 0.499916 0.471390 0.058 Uiso 1 1 calc R . . . .
H9B H 0.346038 0.455476 0.495047 0.058 Uiso 1 1 calc R . . . .
C10 C 0.4295(6) 0.4561(5) 0.5121(9) 0.041(3) Uani 1 1 d . . . . .
C11 C 0.4496(7) 0.4369(6) 0.4495(9) 0.049(4) Uani 1 1 d . . . . .
C12 C 0.4991(7) 0.4147(5) 0.4441(10) 0.050(4) Uani 1 1 d . . . . .
C13 C 0.5315(6) 0.4108(4) 0.5059(9) 0.045(4) Uani 1 1 d . . . . .
C14 C 0.5139(7) 0.4294(5) 0.5676(8) 0.045(3) Uani 1 1 d . . . . .
C15 C 0.4627(7) 0.4520(5) 0.5726(9) 0.049(4) Uani 1 1 d . . . . .
C16 C 0.5865(7) 0.3851(5) 0.5022(10) 0.046(4) Uani 1 1 d . . . . .
H16A H 0.599726 0.384750 0.452026 0.055 Uiso 1 1 calc R . . . .
H16B H 0.614146 0.400003 0.531906 0.055 Uiso 1 1 calc R . . . .
C17 C 0.5573(8) 0.3054(6) 0.4922(10) 0.055(4) Uani 1 1 d . . . . .
H17 H 0.541464 0.306926 0.445764 0.066 Uiso 1 1 calc R . . . .
C18 C 0.5872(8) 0.2825(5) 0.5924(9) 0.051(4) Uani 1 1 d . . . . .
H18 H 0.595899 0.263201 0.630250 0.061 Uiso 1 1 calc R . . . .
C19 C 0.5632(6) 0.1560(5) 0.6402(9) 0.042(3) Uani 1 1 d . . . . .
H19 H 0.531541 0.166626 0.663385 0.051 Uiso 1 1 calc R . . . .
C20 C 0.6307(6) 0.1462(5) 0.5685(11) 0.052(4) Uani 1 1 d . . . . .
H20 H 0.654734 0.149669 0.528997 0.063 Uiso 1 1 calc R . . . .
C21 C 0.5892(7) 0.0990(5) 0.7312(8) 0.043(3) Uani 1 1 d . . . . .
H21A H 0.563517 0.114049 0.763530 0.052 Uiso 1 1 calc R . . . .
H21B H 0.624920 0.097902 0.755815 0.052 Uiso 1 1 calc R . . . .
C22 C 0.5691(6) 0.0527(5) 0.7208(8) 0.043(3) Uani 1 1 d . . . . .
C23 C 0.6034(7) 0.0177(6) 0.7253(9) 0.049(4) Uani 1 1 d . . . . .
C24 C 0.5839(7) -0.0253(5) 0.7237(9) 0.047(4) Uani 1 1 d . . . . .
C25 C 0.5279(6) -0.0341(5) 0.7135(7) 0.040(3) Uani 1 1 d . . . . .
C26 C 0.4937(7) 0.0012(5) 0.7051(8) 0.047(4) Uani 1 1 d . . . . .
C27 C 0.5130(7) 0.0441(5) 0.7079(8) 0.046(3) Uani 1 1 d . . . . .
C28 C 0.5057(8) -0.0821(5) 0.7144(9) 0.051(4) Uani 1 1 d . . . . .
H28A H 0.526636 -0.099209 0.749794 0.061 Uiso 1 1 calc R . . . .
H28B H 0.467062 -0.082041 0.729754 0.061 Uiso 1 1 calc R . . . .
C29 C 0.5457(6) -0.1315(5) 0.5515(8) 0.041(3) Uani 1 1 d . . . . .
H29 H 0.570883 -0.138335 0.514531 0.049 Uiso 1 1 calc R . . . .
C30 C 0.4724(6) -0.1292(5) 0.6122(9) 0.044(3) Uani 1 1 d . . . . .
H30 H 0.436344 -0.133638 0.628919 0.052 Uiso 1 1 calc R . . . .
loop_
_atom_site_aniso_label
_atom_site_aniso_U_11
_atom_site_aniso_U_22
_atom_site_aniso_U_33
_atom_site_aniso_U_23
_atom_site_aniso_U_13
_atom_site_aniso_U_12
V1 0.0265(10) 0.0287(10) 0.0261(11) 0.0002(8) 0.0014(8) -0.0001(7)
W1 0.0319(3) 0.0396(3) 0.0354(3) -0.0003(2) -0.0037(2) -0.0028(2)
W2 0.0336(3) 0.0389(3) 0.0413(3) 0.0013(2) -0.0009(2) 0.0016(2)
W3 0.0326(3) 0.0383(3) 0.0406(3) -0.0020(2) 0.0002(2) -0.0015(2)
W4 0.0310(3) 0.0382(3) 0.0350(3) -0.0025(2) 0.0031(2) 0.0007(2)
W5 0.0333(3) 0.0320(3) 0.0385(3) -0.0012(2) -0.0005(2) 0.00118(19)
W6 0.0381(3) 0.0409(3) 0.0374(3) -0.0038(2) 0.0006(2) -0.0016(2)
W7 0.0383(3) 0.0443(3) 0.0374(3) 0.0030(2) 0.0024(2) -0.0018(2)
W8 0.0408(3) 0.0466(3) 0.0341(3) 0.0011(2) -0.0022(2) -0.0025(2)
W9 0.0400(3) 0.0415(3) 0.0397(3) 0.0040(2) -0.0011(2) 0.0009(2)
Co1 0.0312(12) 0.0308(12) 0.0351(14) 0.000 0.000 -0.0003(9)
Co2 0.0336(9) 0.0359(9) 0.0339(10) -0.0005(7) 0.0038(7) -0.0024(7)
F1 0.054(5) 0.051(5) 0.054(6) -0.014(4) 0.004(4) 0.012(4)
F2 0.051(5) 0.047(5) 0.053(6) 0.000(4) -0.019(4) -0.001(4)
F3 0.056(6) 0.099(8) 0.042(6) -0.010(5) -0.006(4) 0.012(5)
F4 0.078(7) 0.068(6) 0.051(6) -0.021(5) 0.008(5) 0.017(5)
F5 0.071(7) 0.075(7) 0.036(5) -0.004(4) -0.001(4) 0.020(5)
F6 0.073(7) 0.099(8) 0.032(5) -0.014(5) 0.002(5) 0.039(6)
F7 0.047(5) 0.053(6) 0.088(8) -0.009(5) -0.016(5) 0.004(4)
F8 0.066(6) 0.044(5) 0.069(7) -0.006(5) -0.013(5) 0.008(4)
F9 0.042(5) 0.060(6) 0.065(6) -0.007(5) 0.002(4) -0.008(4)
F10 0.047(5) 0.054(5) 0.063(6) -0.008(4) -0.003(4) 0.000(4)
N1 0.030(5) 0.037(6) 0.038(6) -0.002(5) 0.002(5) -0.001(4)
N2 0.043(7) 0.050(7) 0.056(9) 0.007(6) -0.013(6) 0.000(6)
N3 0.032(6) 0.050(7) 0.047(7) 0.007(6) 0.002(5) -0.003(5)
N4 0.030(5) 0.031(5) 0.040(6) -0.004(5) 0.002(5) -0.006(4)
N5 0.057(8) 0.042(7) 0.057(9) 0.000(6) 0.003(7) -0.002(6)
N6 0.056(8) 0.045(7) 0.036(7) 0.002(5) -0.008(6) 0.008(5)
N7 0.021(5) 0.042(6) 0.041(7) 0.006(5) 0.004(5) 0.000(4)
N8 0.074(10) 0.065(9) 0.040(8) -0.012(7) 0.001(7) -0.016(7)
N9 0.038(6) 0.035(6) 0.049(8) -0.005(5) 0.002(5) -0.001(5)
N10 0.037(7) 0.048(7) 0.048(8) -0.003(6) 0.010(6) 0.006(5)
N11 0.051(8) 0.057(8) 0.057(9) 0.014(7) 0.014(7) 0.020(6)
N12 0.034(6) 0.035(6) 0.046(7) 0.005(5) -0.009(5) 0.000(4)
N13 0.033(6) 0.048(7) 0.054(8) -0.011(6) 0.008(6) 0.001(5)
N14 0.049(7) 0.041(6) 0.038(7) -0.005(5) 0.007(5) -0.004(5)
N15 0.029(6) 0.049(7) 0.037(6) -0.011(5) 0.008(5) 0.000(5)
O1 0.046(6) 0.046(6) 0.048(6) 0.002(5) 0.000(5) -0.003(4)
O2 0.043(5) 0.026(4) 0.030(5) 0.003(3) 0.004(4) 0.003(3)
O3 0.034(5) 0.031(4) 0.030(5) -0.003(4) 0.003(4) -0.003(3)
O4 0.029(4) 0.030(4) 0.034(5) 0.002(4) -0.001(4) 0.003(3)
O5 0.025(4) 0.039(5) 0.034(5) 0.001(4) -0.003(4) -0.003(3)
O6 0.031(5) 0.038(5) 0.035(5) 0.001(4) 0.001(4) -0.015(4)
O7 0.034(5) 0.032(4) 0.035(5) -0.001(4) 0.005(4) 0.001(4)
O8 0.033(5) 0.040(5) 0.040(5) -0.001(4) 0.002(4) 0.000(4)
O9 0.034(5) 0.040(5) 0.025(4) 0.002(4) 0.002(4) 0.006(4)
O10 0.029(5) 0.036(5) 0.034(5) 0.001(4) 0.003(4) -0.002(3)
O11 0.032(5) 0.051(6) 0.048(6) 0.010(5) 0.002(4) -0.003(4)
O12 0.036(4) 0.040(4) 0.037(4) -0.002(3) 0.005(3) 0.004(3)
O13 0.032(4) 0.038(4) 0.054(4) -0.006(3) 0.014(3) -0.007(3)
O14 0.044(6) 0.038(5) 0.034(5) -0.004(4) 0.000(4) -0.001(4)
O15 0.051(6) 0.052(6) 0.043(6) 0.001(5) -0.001(5) -0.014(5)
O16 0.040(5) 0.031(4) 0.034(5) 0.001(4) 0.000(4) 0.000(4)
O17 0.034(5) 0.040(5) 0.033(5) -0.002(4) -0.001(4) 0.004(4)
O18 0.034(5) 0.046(5) 0.035(5) 0.001(4) -0.006(4) -0.006(4)
O19 0.026(4) 0.040(5) 0.036(5) -0.001(4) -0.006(4) 0.004(3)
O20 0.030(5) 0.034(5) 0.038(5) -0.005(4) -0.002(4) -0.001(3)
O21 0.026(4) 0.039(5) 0.037(5) -0.008(4) -0.002(4) 0.002(3)
O22 0.035(5) 0.035(5) 0.046(6) 0.007(4) -0.006(4) -0.006(4)
O23 0.033(5) 0.039(5) 0.044(6) 0.009(4) 0.005(4) -0.004(4)
O24 0.027(4) 0.031(4) 0.034(5) 0.001(4) -0.004(4) 0.002(3)
O25 0.033(5) 0.050(6) 0.042(6) 0.006(4) -0.009(4) -0.002(4)
O26 0.033(4) 0.047(4) 0.050(4) -0.016(3) -0.011(3) 0.007(3)
O27 0.027(4) 0.035(4) 0.037(5) -0.011(4) 0.006(4) 0.007(3)
O28 0.039(5) 0.032(4) 0.029(5) -0.003(4) -0.008(4) 0.006(4)
O29 0.033(5) 0.038(5) 0.037(5) -0.003(4) -0.003(4) 0.001(4)
O30 0.018(4) 0.037(5) 0.039(5) -0.003(4) 0.000(4) -0.002(3)
O31 0.037(5) 0.043(5) 0.033(5) -0.010(4) -0.006(4) 0.000(4)
O32 0.043(5) 0.046(5) 0.024(5) 0.001(4) 0.007(4) -0.006(4)
C1 0.057(9) 0.049(8) 0.030(7) 0.003(6) -0.008(7) -0.010(7)
C2 0.032(7) 0.051(8) 0.051(9) -0.005(7) 0.012(6) -0.009(6)
C3 0.040(8) 0.050(8) 0.028(7) -0.003(6) -0.006(6) -0.003(6)
C4 0.062(10) 0.037(7) 0.030(7) 0.011(6) 0.000(7) 0.012(6)
C5 0.054(9) 0.051(8) 0.037(8) 0.020(7) -0.001(7) 0.011(7)
C6 0.041(8) 0.048(8) 0.036(8) 0.006(6) -0.004(6) 0.002(6)
C7 0.033(7) 0.038(7) 0.060(10) -0.004(7) 0.004(7) -0.009(5)
C8 0.040(8) 0.045(8) 0.040(8) 0.004(6) -0.005(6) 0.002(6)
C9 0.029(7) 0.070(10) 0.047(9) 0.008(8) 0.002(6) 0.003(6)
C10 0.033(7) 0.037(7) 0.052(9) -0.001(6) -0.002(6) -0.001(5)
C11 0.047(9) 0.062(10) 0.037(8) -0.005(7) -0.003(7) 0.000(7)
C12 0.050(9) 0.046(8) 0.054(10) -0.011(7) 0.008(7) 0.000(7)
C13 0.048(8) 0.025(6) 0.063(10) 0.005(6) 0.005(7) -0.010(5)
C14 0.049(9) 0.050(8) 0.036(8) -0.008(6) 0.001(6) 0.014(6)
C15 0.060(10) 0.053(9) 0.034(8) 0.002(7) 0.008(7) 0.016(7)
C16 0.049(9) 0.036(7) 0.054(10) -0.001(7) 0.013(7) -0.008(6)
C17 0.057(10) 0.054(9) 0.053(10) -0.008(8) -0.007(8) -0.003(7)
C18 0.068(11) 0.039(8) 0.045(9) 0.005(7) -0.013(8) 0.000(7)
C19 0.037(7) 0.044(8) 0.047(9) -0.005(6) 0.010(6) -0.002(6)
C20 0.030(7) 0.058(9) 0.069(11) -0.008(8) 0.011(7) 0.012(6)
C21 0.056(9) 0.040(7) 0.034(8) 0.001(6) -0.002(6) 0.002(6)
C22 0.047(8) 0.048(8) 0.034(8) -0.003(6) -0.004(6) -0.007(6)
C23 0.041(8) 0.063(10) 0.043(9) 0.000(7) -0.007(7) 0.004(7)
C24 0.062(10) 0.043(8) 0.037(8) 0.006(6) 0.006(7) 0.005(7)
C25 0.041(8) 0.054(8) 0.025(7) -0.008(6) 0.005(6) 0.004(6)
C26 0.059(10) 0.053(9) 0.029(7) -0.006(6) 0.004(7) 0.009(7)
C27 0.063(10) 0.042(8) 0.032(8) -0.005(6) 0.003(7) 0.004(7)
C28 0.071(11) 0.041(8) 0.040(9) 0.000(6) 0.005(8) 0.000(7)
C29 0.042(8) 0.047(8) 0.034(8) -0.002(6) 0.001(6) 0.001(6)
C30 0.037(8) 0.046(8) 0.047(9) 0.003(7) 0.005(6) -0.008(6)
loop_
_atom_type_symbol
_atom_type_description
_atom_type_scat_dispersion_real
_atom_type_scat_dispersion_imag
_atom_type_scat_source
C C 0.0033 0.0016 'International Tables Vol C Tables 4.2.6.8 and 6.1.1.4'
H H 0.0000 0.0000 'International Tables Vol C Tables 4.2.6.8 and 6.1.1.4'
Co Co 0.3494 0.9721 'International Tables Vol C Tables 4.2.6.8 and 6.1.1.4'
F F 0.0171 0.0103 'International Tables Vol C Tables 4.2.6.8 and 6.1.1.4'
N N 0.0061 0.0033 'International Tables Vol C Tables 4.2.6.8 and 6.1.1.4'
O O 0.0106 0.0060 'International Tables Vol C Tables 4.2.6.8 and 6.1.1.4'
V V 0.3005 0.5294 'International Tables Vol C Tables 4.2.6.8 and 6.1.1.4'
W W -0.8490 6.8722 'International Tables Vol C Tables 4.2.6.8 and 6.1.1.4'
loop_
_geom_angle_atom_site_label_1
_geom_angle_atom_site_label_2
_geom_angle_atom_site_label_3
_geom_angle
_geom_angle_site_symmetry_1
_geom_angle_site_symmetry_3
_geom_angle_publ_flag
O7 V1 O14 106.2(5) . . ?
O7 V1 O28 112.4(4) . . ?
O20 V1 O7 112.8(5) . . ?
O20 V1 O14 105.5(5) . . ?
O20 V1 O28 113.0(5) . . ?
O28 V1 O14 106.3(5) . . ?
O16 W1 O20 82.3(4) . . ?
O17 W1 O16 84.9(4) . . ?
O17 W1 O19 157.5(4) . . ?
O17 W1 O20 85.0(4) . . ?
O18 W1 O16 96.3(4) . . ?
O18 W1 O17 102.9(4) . . ?
O18 W1 O19 99.2(4) . . ?
O18 W1 O20 171.8(4) . . ?
O18 W1 O21 99.0(4) . 3_556 ?
O19 W1 O16 88.6(4) . . ?
O19 W1 O20 72.8(3) . . ?
O21 W1 O16 164.3(4) 3_556 . ?
O21 W1 O17 88.8(4) 3_556 . ?
O21 W1 O19 91.8(4) 3_556 . ?
O21 W1 O20 82.9(4) 3_556 . ?
O6 W2 O19 155.8(4) . . ?
O6 W2 O20 84.2(4) . . ?
O6 W2 O21 89.4(4) . . ?
O6 W2 O23 86.3(4) . . ?
O19 W2 O20 71.7(3) . . ?
O19 W2 O21 88.2(4) . . ?
O19 W2 O23 89.9(4) . . ?
O21 W2 O20 80.5(4) . . ?
O22 W2 O6 103.5(4) . . ?
O22 W2 O19 100.7(4) . . ?
O22 W2 O20 171.7(4) . . ?
O22 W2 O21 96.1(4) . . ?
O22 W2 O23 98.6(4) . . ?
O23 W2 O20 85.0(4) . . ?
O23 W2 O21 165.3(4) . . ?
O5 W3 O7 71.0(3) . . ?
O8 W3 O5 102.9(4) . . ?
O8 W3 O7 173.6(4) . . ?
O8 W3 O9 98.7(4) . . ?
O8 W3 O10 102.3(4) . . ?
O8 W3 O24 96.8(4) . . ?
O9 W3 O5 88.7(4) . . ?
O9 W3 O7 83.1(4) . . ?
O9 W3 O24 164.5(4) . . ?
O10 W3 O5 154.7(4) . . ?
O10 W3 O7 83.9(3) . . ?
O10 W3 O9 85.8(4) . . ?
O10 W3 O24 90.0(4) . . ?
O24 W3 O5 88.8(4) . . ?
O24 W3 O7 81.5(3) . . ?
O10 W4 O28 85.4(3) . . ?
O10 W4 O29 83.3(4) . . ?
O24 W4 O10 88.4(4) 3_556 . ?
O24 W4 O28 85.3(3) 3_556 . ?
O24 W4 O29 166.0(4) 3_556 . ?
O24 W4 O30 93.2(4) 3_556 . ?
O27 W4 O10 104.9(4) . . ?
O27 W4 O24 99.1(4) . 3_556 ?
O27 W4 O28 168.9(4) . . ?
O27 W4 O29 93.9(4) . . ?
O27 W4 O30 96.3(4) . . ?
O29 W4 O28 82.9(4) . . ?
O30 W4 O10 158.2(4) . . ?
O30 W4 O28 73.2(3) . . ?
O30 W4 O29 90.4(4) . . ?
O2 W5 O3 95.6(4) . . ?
O2 W5 O4 98.2(4) . . ?
O2 W5 O5 100.8(4) . . ?
O2 W5 O6 101.6(4) . . ?
O2 W5 O7 173.7(4) . . ?
O3 W5 O7 82.2(3) . . ?
O4 W5 O3 164.9(4) . . ?
O4 W5 O5 94.0(4) . . ?
O4 W5 O6 87.5(4) . . ?
O4 W5 O7 84.6(4) . . ?
O5 W5 O3 89.2(4) . . ?
O5 W5 O6 157.1(4) . . ?
O5 W5 O7 73.3(4) . . ?
O6 W5 O3 83.9(4) . . ?
O6 W5 O7 84.1(4) . . ?
O4 W6 O28 81.2(3) 3_556 . ?
O4 W6 O30 88.4(4) 3_556 . ?
O17 W6 O4 89.7(4) . 3_556 ?
O17 W6 O28 84.7(4) . . ?
O17 W6 O30 154.4(4) . . ?
O30 W6 O28 69.8(3) . . ?
O31 W6 O4 97.9(4) . 3_556 ?
O31 W6 O17 103.2(4) . . ?
O31 W6 O28 172.1(4) . . ?
O31 W6 O30 102.4(4) . . ?
O31 W6 O32 99.0(5) . . ?
O32 W6 O4 163.1(4) . 3_556 ?
O32 W6 O17 86.0(4) . . ?
O32 W6 O28 82.1(4) . . ?
O32 W6 O30 88.4(4) . . ?
O9 W7 O12 157.1(4) . . ?
O9 W7 O13 88.5(4) . . ?
O9 W7 O14 84.5(4) . . ?
O9 W7 O29 86.2(4) . . ?
O11 W7 O9 103.8(5) . . ?
O11 W7 O12 99.2(5) . . ?
O11 W7 O13 102.0(5) . . ?
O11 W7 O14 170.2(4) . . ?
O11 W7 O29 103.2(5) . . ?
O12 W7 O14 72.8(4) . . ?
O13 W7 O12 87.5(4) . . ?
O13 W7 O14 72.6(4) . . ?
O13 W7 O29 154.8(4) . . ?
O29 W7 O12 87.9(4) . . ?
O29 W7 O14 82.4(4) . . ?
O12 W8 O14 73.3(4) . . ?
O15 W8 O12 100.4(5) . . ?
O15 W8 O14 171.2(4) . . ?
O15 W8 O16 103.9(5) . . ?
O15 W8 O26 101.2(5) . . ?
O15 W8 O32 102.5(5) . . ?
O16 W8 O12 155.8(4) . . ?
O16 W8 O14 82.7(4) . . ?
O16 W8 O26 87.8(4) . . ?
O16 W8 O32 86.6(4) . . ?
O26 W8 O12 87.9(4) . . ?
O26 W8 O14 72.9(4) . . ?
O26 W8 O32 156.3(4) . . ?
O32 W8 O12 87.9(4) . . ?
O32 W8 O14 83.6(4) . . ?
O3 W9 O13 87.8(4) . . ?
O3 W9 O14 82.3(4) . . ?
O3 W9 O23 86.2(4) . . ?
O3 W9 O26 154.8(4) . . ?
O13 W9 O14 73.0(4) . . ?
O13 W9 O26 88.5(4) . . ?
O23 W9 O13 157.8(4) . . ?
O23 W9 O14 85.1(4) . . ?
O23 W9 O26 88.0(5) . . ?
O25 W9 O3 102.1(4) . . ?
O25 W9 O13 99.9(5) . . ?
O25 W9 O14 171.6(4) . . ?
O25 W9 O23 102.3(4) . . ?
O25 W9 O26 103.1(5) . . ?
O26 W9 O14 72.8(4) . . ?
N1 Co1 N1 88.5(6) 2_565 . ?
N4 Co1 N1 92.6(4) 2_565 2_565 ?
N4 Co1 N1 92.6(4) . . ?
N4 Co1 N1 172.3(4) 2_565 . ?
N4 Co1 N1 172.3(4) . 2_565 ?
N4 Co1 N4 87.4(6) 2_565 . ?
O2 Co1 N1 86.0(4) . 2_565 ?
O2 Co1 N1 94.0(4) . . ?
O2 Co1 N1 94.0(4) 2_565 2_565 ?
O2 Co1 N1 86.0(4) 2_565 . ?
O2 Co1 N4 86.3(4) . . ?
O2 Co1 N4 93.6(4) 2_565 . ?
O2 Co1 N4 93.6(4) . 2_565 ?
O2 Co1 N4 86.3(4) 2_565 2_565 ?
O2 Co1 O2 179.9(5) 2_565 . ?
N7 Co2 N10 98.4(5) . . ?
N7 Co2 N15 168.2(5) . 5_656 ?
N7 Co2 O1 85.6(4) . . ?
N10 Co2 N15 93.0(5) . 5_656 ?
N10 Co2 O1 175.8(5) . . ?
O1 Co2 N15 82.8(4) . 5_656 ?
O18 Co2 N7 91.0(4) 6_656 . ?
O18 Co2 N10 90.0(4) 6_656 . ?
O18 Co2 N15 86.5(4) 6_656 5_656 ?
O18 Co2 O1 89.0(4) 6_656 . ?
O27 Co2 N7 89.1(4) . . ?
O27 Co2 N10 87.6(4) . . ?
O27 Co2 N15 93.9(4) . 5_656 ?
O27 Co2 O1 93.4(4) . . ?
O27 Co2 O18 177.6(4) . 6_656 ?
C1 N1 Co1 128.7(10) . . ?
C2 N1 Co1 128.6(9) . . ?
C2 N1 C1 102.4(12) . . ?
C1 N2 N3 102.3(13) . . ?
N2 N3 C3 118.9(12) . . ?
C2 N3 N2 111.2(14) . . ?
C2 N3 C3 129.8(14) . . ?
C7 N4 Co1 136.1(10) . . ?
C8 N4 Co1 120.2(9) . . ?
C8 N4 C7 103.7(12) . . ?
C7 N5 N6 103.5(13) . . ?
N5 N6 C9 122.3(14) . . ?
C8 N6 N5 110.0(13) . . ?
C8 N6 C9 127.6(14) . . ?
C17 N7 Co2 126.4(11) . . ?
C17 N7 C18 104.3(13) . . ?
C18 N7 Co2 129.0(10) . . ?
C18 N8 N9 102.7(13) . . ?
N8 N9 C16 123.7(13) . . ?
C17 N9 N8 108.3(13) . . ?
C17 N9 C16 128.0(15) . . ?
C19 N10 Co2 125.3(10) . . ?
C19 N10 C20 102.7(14) . . ?
C20 N10 Co2 130.1(12) . . ?
C20 N11 N12 103.3(12) . . ?
N11 N12 C21 120.6(12) . . ?
C19 N12 N11 110.5(12) . . ?
C19 N12 C21 128.9(13) . . ?
C29 N13 N14 104.9(12) . . ?
N13 N14 C28 124.2(13) . . ?
N13 N14 C30 107.5(12) . . ?
C30 N14 C28 127.0(14) . . ?
C29 N15 Co2 127.7(9) . 5_656 ?
C30 N15 Co2 126.0(10) . 5_656 ?
C30 N15 C29 103.5(12) . . ?
W5 O2 Co1 166.1(6) . . ?
W9 O3 W5 154.5(5) . . ?
W5 O4 W6 161.0(5) . 3_556 ?
W5 O5 W3 122.2(4) . . ?
W2 O6 W5 153.9(6) . . ?
V1 O7 W3 123.9(5) . . ?
V1 O7 W5 125.9(5) . . ?
W5 O7 W3 93.6(3) . . ?
W7 O9 W3 152.1(5) . . ?
W3 O10 W4 154.3(6) . . ?
W7 O12 W8 121.1(5) . . ?
W7 O13 W9 122.4(5) . . ?
V1 O14 W7 122.8(5) . . ?
V1 O14 W8 123.5(5) . . ?
V1 O14 W9 124.3(5) . . ?
W8 O14 W7 92.8(4) . . ?
W9 O14 W7 92.0(4) . . ?
W9 O14 W8 92.4(4) . . ?
W8 O16 W1 153.0(5) . . ?
W6 O17 W1 154.3(6) . . ?
W1 O18 Co2 149.9(6) . 6_556 ?
W2 O19 W1 121.6(4) . . ?
V1 O20 W1 126.0(5) . . ?
V1 O20 W2 124.0(5) . . ?
W1 O20 W2 94.0(3) . . ?
W1 O21 W2 160.6(5) 3_556 . ?
W2 O23 W9 150.6(6) . . ?
W4 O24 W3 160.0(5) 3_556 . ?
W8 O26 W9 121.9(5) . . ?
W4 O27 Co2 161.1(6) . . ?
V1 O28 W4 126.2(5) . . ?
V1 O28 W6 123.3(5) . . ?
W4 O28 W6 94.7(3) . . ?
W7 O29 W4 154.1(5) . . ?
W4 O30 W6 122.3(5) . . ?
W6 O32 W8 151.8(5) . . ?
N1 C1 H1 122.9 . . ?
N2 C1 N1 114.2(14) . . ?
N2 C1 H1 122.9 . . ?
N1 C2 H2 125.0 . . ?
N3 C2 N1 109.9(13) . . ?
N3 C2 H2 125.0 . . ?
N3 C3 H3A 109.4 . . ?
N3 C3 H3B 109.4 . . ?
N3 C3 C4 111.1(12) . . ?
H3A C3 H3B 108.0 . . ?
C4 C3 H3A 109.4 . . ?
C4 C3 H3B 109.4 . . ?
C5 C4 C3 121.7(14) . . ?
C5 C4 C6 116.2(15) . . ?
C6 C4 C3 122.1(15) . . ?
F1 C5 C4 121.0(14) . . ?
F1 C5 C6 116.5(15) . 5_667 ?
C6 C5 C4 122.4(15) 5_667 . ?
F2 C6 C4 118.1(14) . . ?
F2 C6 C5 120.7(14) . 5_667 ?
C5 C6 C4 121.3(15) 5_667 . ?
N4 C7 H7 123.5 . . ?
N5 C7 N4 112.9(13) . . ?
N5 C7 H7 123.5 . . ?
N4 C8 H8 125.1 . . ?
N6 C8 N4 109.9(13) . . ?
N6 C8 H8 125.1 . . ?
N6 C9 H9A 108.5 . . ?
N6 C9 H9B 108.5 . . ?
N6 C9 C10 114.9(13) . . ?
H9A C9 H9B 107.5 . . ?
C10 C9 H9A 108.5 . . ?
C10 C9 H9B 108.5 . . ?
C11 C10 C9 118.3(14) . . ?
C15 C10 C9 126.4(14) . . ?
C15 C10 C11 115.2(14) . . ?
C10 C11 F3 117.2(14) . . ?
C12 C11 F3 117.6(14) . . ?
C12 C11 C10 125.2(15) . . ?
F4 C12 C11 120.4(16) . . ?
F4 C12 C13 121.2(15) . . ?
C11 C12 C13 118.4(15) . . ?
C12 C13 C16 119.7(15) . . ?
C14 C13 C12 118.5(15) . . ?
C14 C13 C16 121.8(15) . . ?
F5 C14 C15 117.4(13) . . ?
C13 C14 F5 120.0(14) . . ?
C13 C14 C15 122.6(15) . . ?
F6 C15 C10 123.8(14) . . ?
F6 C15 C14 116.1(14) . . ?
C10 C15 C14 120.1(14) . . ?
N9 C16 C13 111.7(12) . . ?
N9 C16 H16A 109.3 . . ?
N9 C16 H16B 109.3 . . ?
C13 C16 H16A 109.3 . . ?
C13 C16 H16B 109.3 . . ?
H16A C16 H16B 107.9 . . ?
N7 C17 N9 110.9(15) . . ?
N7 C17 H17 124.6 . . ?
N9 C17 H17 124.6 . . ?
N7 C18 H18 123.0 . . ?
N8 C18 N7 113.9(14) . . ?
N8 C18 H18 123.0 . . ?
N10 C19 H19 125.3 . . ?
N12 C19 N10 109.5(13) . . ?
N12 C19 H19 125.3 . . ?
N10 C20 H20 123.1 . . ?
N11 C20 N10 113.9(15) . . ?
N11 C20 H20 123.1 . . ?
N12 C21 H21A 108.3 . . ?
N12 C21 H21B 108.3 . . ?
N12 C21 C22 116.1(13) . . ?
H21A C21 H21B 107.4 . . ?
C22 C21 H21A 108.3 . . ?
C22 C21 H21B 108.3 . . ?
C23 C22 C21 122.2(14) . . ?
C23 C22 C27 117.1(14) . . ?
C27 C22 C21 120.6(14) . . ?
F7 C23 C22 120.6(15) . . ?
F7 C23 C24 117.0(14) . . ?
C22 C23 C24 122.2(15) . . ?
F8 C24 C23 119.6(15) . . ?
F8 C24 C25 119.7(14) . . ?
C25 C24 C23 120.8(14) . . ?
C24 C25 C28 120.9(14) . . ?
C26 C25 C24 116.9(15) . . ?
C26 C25 C28 122.1(15) . . ?
F9 C26 C27 117.9(14) . . ?
C25 C26 F9 119.8(15) . . ?
C25 C26 C27 122.3(16) . . ?
F10 C27 C22 119.9(14) . . ?
F10 C27 C26 119.6(15) . . ?
C26 C27 C22 120.5(15) . . ?
N14 C28 C25 111.8(12) . . ?
N14 C28 H28A 109.3 . . ?
N14 C28 H28B 109.3 . . ?
C25 C28 H28A 109.3 . . ?
C25 C28 H28B 109.3 . . ?
H28A C28 H28B 107.9 . . ?
N13 C29 N15 113.6(13) . . ?
N13 C29 H29 123.2 . . ?
N15 C29 H29 123.2 . . ?
N14 C30 H30 124.8 . . ?
N15 C30 N14 110.5(13) . . ?
N15 C30 H30 124.8 . . ?
loop_
_geom_bond_atom_site_label_1
_geom_bond_atom_site_label_2
_geom_bond_distance
_geom_bond_site_symmetry_2
_geom_bond_publ_flag
V1 O7 1.682(9) . ?
V1 O14 1.733(10) . ?
V1 O20 1.679(9) . ?
V1 O28 1.698(9) . ?
W1 O16 1.930(9) . ?
W1 O17 1.901(9) . ?
W1 O18 1.747(9) . ?
W1 O19 1.919(9) . ?
W1 O20 2.255(9) . ?
W1 O21 1.863(10) 3_556 ?
W2 O6 1.899(9) . ?
W2 O19 1.906(9) . ?
W2 O20 2.311(9) . ?
W2 O21 1.928(10) . ?
W2 O22 1.709(10) . ?
W2 O23 1.908(10) . ?
W3 O5 1.935(9) . ?
W3 O7 2.332(9) . ?
W3 O8 1.698(9) . ?
W3 O9 1.914(9) . ?
W3 O10 1.892(9) . ?
W3 O24 1.927(9) . ?
W4 O10 1.922(9) . ?
W4 O24 1.878(9) 3_556 ?
W4 O27 1.734(8) . ?
W4 O28 2.222(10) . ?
W4 O29 1.924(10) . ?
W4 O30 1.885(9) . ?
W5 O2 1.726(8) . ?
W5 O3 1.931(9) . ?
W5 O4 1.859(9) . ?
W5 O5 1.891(9) . ?
W5 O6 1.922(8) . ?
W5 O7 2.263(9) . ?
W6 O4 1.926(9) 3_556 ?
W6 O17 1.898(9) . ?
W6 O28 2.330(9) . ?
W6 O30 1.938(8) . ?
W6 O31 1.711(9) . ?
W6 O32 1.891(10) . ?
W7 O9 1.881(9) . ?
W7 O11 1.694(10) . ?
W7 O12 1.934(10) . ?
W7 O13 1.900(10) . ?
W7 O14 2.337(10) . ?
W7 O29 1.904(9) . ?
W8 O12 1.935(10) . ?
W8 O14 2.315(10) . ?
W8 O15 1.707(11) . ?
W8 O16 1.885(9) . ?
W8 O26 1.906(10) . ?
W8 O32 1.935(10) . ?
W9 O3 1.892(9) . ?
W9 O13 1.914(9) . ?
W9 O14 2.311(10) . ?
W9 O23 1.910(9) . ?
W9 O25 1.713(10) . ?
W9 O26 1.914(10) . ?
Co1 N1 2.138(12) . ?
Co1 N1 2.138(12) 2_565 ?
Co1 N4 2.128(11) 2_565 ?
Co1 N4 2.128(11) . ?
Co1 O2 2.092(8) . ?
Co1 O2 2.092(8) 2_565 ?
Co2 N7 2.101(12) . ?
Co2 N10 2.110(14) . ?
Co2 N15 2.142(12) 5_656 ?
Co2 O1 2.127(11) . ?
Co2 O18 2.059(9) 6_656 ?
Co2 O27 2.059(9) . ?
F1 C5 1.348(18) . ?
F2 C6 1.347(17) . ?
F3 C11 1.375(19) . ?
F4 C12 1.317(18) . ?
F5 C14 1.342(18) . ?
F6 C15 1.331(18) . ?
F7 C23 1.329(18) . ?
F8 C24 1.330(18) . ?
F9 C26 1.366(19) . ?
F10 C27 1.336(18) . ?
N1 C1 1.349(18) . ?
N1 C2 1.34(2) . ?
N2 N3 1.344(18) . ?
N2 C1 1.31(2) . ?
N3 C2 1.29(2) . ?
N3 C3 1.481(19) . ?
N4 C7 1.374(17) . ?
N4 C8 1.321(19) . ?
N5 N6 1.361(18) . ?
N5 C7 1.31(2) . ?
N6 C8 1.32(2) . ?
N6 C9 1.46(2) . ?
N7 C17 1.29(2) . ?
N7 C18 1.35(2) . ?
N8 N9 1.37(2) . ?
N8 C18 1.33(2) . ?
N9 C16 1.462(18) . ?
N9 C17 1.35(2) . ?
N10 C19 1.32(2) . ?
N10 C20 1.374(18) . ?
N11 N12 1.357(18) . ?
N11 C20 1.28(2) . ?
N12 C19 1.303(19) . ?
N12 C21 1.445(19) . ?
N13 N14 1.345(17) . ?
N13 C29 1.296(19) . ?
N14 C28 1.43(2) . ?
N14 C30 1.347(19) . ?
N15 C29 1.346(19) . ?
N15 C30 1.308(19) . ?
C1 H1 0.9300 . ?
C2 H2 0.9300 . ?
C3 H3A 0.9700 . ?
C3 H3B 0.9700 . ?
C3 C4 1.51(2) . ?
C4 C5 1.36(2) . ?
C4 C6 1.38(2) . ?
C5 C6 1.36(2) 5_667 ?
C7 H7 0.9300 . ?
C8 H8 0.9300 . ?
C9 H9A 0.9700 . ?
C9 H9B 0.9700 . ?
C9 C10 1.50(2) . ?
C10 C11 1.37(2) . ?
C10 C15 1.37(2) . ?
C11 C12 1.37(2) . ?
C12 C13 1.38(2) . ?
C13 C14 1.33(2) . ?
C13 C16 1.54(2) . ?
C14 C15 1.41(2) . ?
C16 H16A 0.9700 . ?
C16 H16B 0.9700 . ?
C17 H17 0.9300 . ?
C18 H18 0.9300 . ?
C19 H19 0.9300 . ?
C20 H20 0.9300 . ?
C21 H21A 0.9700 . ?
C21 H21B 0.9700 . ?
C21 C22 1.50(2) . ?
C22 C23 1.35(2) . ?
C22 C27 1.39(2) . ?
C23 C24 1.39(2) . ?
C24 C25 1.39(2) . ?
C25 C26 1.36(2) . ?
C25 C28 1.56(2) . ?
C26 C27 1.39(2) . ?
C28 H28A 0.9700 . ?
C28 H28B 0.9700 . ?
C29 H29 0.9300 . ?
C30 H30 0.9300 . ?
loop_
_geom_torsion_atom_site_label_1
_geom_torsion_atom_site_label_2
_geom_torsion_atom_site_label_3
_geom_torsion_atom_site_label_4
_geom_torsion
_geom_torsion_site_symmetry_1
_geom_torsion_site_symmetry_2
_geom_torsion_site_symmetry_3
_geom_torsion_site_symmetry_4
_geom_torsion_publ_flag
Co1 N1 C1 N2 175.5(11) . . . . ?
Co1 N1 C2 N3 -175.0(9) . . . . ?
Co1 N4 C7 N5 174.9(11) . . . . ?
Co1 N4 C8 N6 -176.9(9) . . . . ?
Co2 N7 C17 N9 -175.7(9) . . . . ?
Co2 N7 C18 N8 175.3(11) . . . . ?
Co2 N10 C19 N12 162.4(10) . . . . ?
Co2 N10 C20 N11 -162.3(13) . . . . ?
Co2 N15 C29 N13 -159.5(11) 5_656 . . . ?
Co2 N15 C30 N14 161.3(10) 5_656 . . . ?
F3 C11 C12 F4 -3(2) . . . . ?
F3 C11 C12 C13 179.0(14) . . . . ?
F4 C12 C13 C14 -179.8(15) . . . . ?
F4 C12 C13 C16 0(2) . . . . ?
F5 C14 C15 F6 -5(2) . . . . ?
F5 C14 C15 C10 177.5(15) . . . . ?
F7 C23 C24 F8 -2(2) . . . . ?
F7 C23 C24 C25 178.1(14) . . . . ?
F8 C24 C25 C26 179.9(14) . . . . ?
F8 C24 C25 C28 2(2) . . . . ?
F9 C26 C27 F10 1(2) . . . . ?
F9 C26 C27 C22 179.1(14) . . . . ?
N2 N3 C2 N1 0.3(17) . . . . ?
N2 N3 C3 C4 -81.7(16) . . . . ?
N3 N2 C1 N1 -1.5(19) . . . . ?
N3 C3 C4 C5 108.2(15) . . . . ?
N3 C3 C4 C6 -73.1(17) . . . . ?
N5 N6 C8 N4 0.7(17) . . . . ?
N5 N6 C9 C10 70.9(19) . . . . ?
N6 N5 C7 N4 2.6(18) . . . . ?
N6 C9 C10 C11 -179.2(14) . . . . ?
N6 C9 C10 C15 4(2) . . . . ?
N8 N9 C16 C13 -106.8(17) . . . . ?
N8 N9 C17 N7 1.0(19) . . . . ?
N9 N8 C18 N7 0(2) . . . . ?
N11 N12 C19 N10 3.3(18) . . . . ?
N11 N12 C21 C22 -76.8(18) . . . . ?
N12 N11 C20 N10 -1(2) . . . . ?
N12 C21 C22 C23 104.0(18) . . . . ?
N12 C21 C22 C27 -77.8(19) . . . . ?
N13 N14 C28 C25 54(2) . . . . ?
N13 N14 C30 N15 -0.7(18) . . . . ?
N14 N13 C29 N15 -2.7(18) . . . . ?
O2 W5 O4 W6 124.1(15) . . . 3_556 ?
O2 W5 O5 W3 -177.4(5) . . . . ?
O3 W5 O2 Co1 33(2) . . . . ?
O3 W5 O4 W6 -32(3) . . . 3_556 ?
O3 W5 O5 W3 -81.8(6) . . . . ?
O4 W5 O2 Co1 -141(2) . . . . ?
O4 W5 O5 W3 83.4(6) . . . . ?
O4 W6 O17 W1 142.5(13) 3_556 . . . ?
O4 W6 O32 W8 -60(2) 3_556 . . . ?
O5 W3 O10 W4 55.0(17) . . . . ?
O5 W5 O2 Co1 123(2) . . . . ?
O5 W5 O4 W6 -134.4(16) . . . 3_556 ?
O6 W5 O2 Co1 -52(2) . . . . ?
O6 W5 O4 W6 22.7(16) . . . 3_556 ?
O6 W5 O5 W3 -9.8(14) . . . . ?
O7 V1 O14 W7 60.3(6) . . . . ?
O7 V1 O14 W8 -179.9(5) . . . . ?
O7 V1 O14 W9 -59.1(6) . . . . ?
O7 V1 O20 W1 178.8(5) . . . . ?
O7 V1 O20 W2 52.4(7) . . . . ?
O7 V1 O28 W4 -52.7(7) . . . . ?
O7 V1 O28 W6 -179.8(5) . . . . ?
O7 W3 O10 W4 60.6(12) . . . . ?
O7 W5 O4 W6 -61.6(15) . . . 3_556 ?
O7 W5 O5 W3 0.3(5) . . . . ?
O8 W3 O10 W4 -121.0(12) . . . . ?
O9 W3 O10 W4 -23.0(12) . . . . ?
O10 W4 O27 Co2 -96.4(16) . . . . ?
O10 W4 O30 W6 -8.5(14) . . . . ?
O11 W7 O9 W3 -120.2(11) . . . . ?
O12 W7 O9 W3 57.7(17) . . . . ?
O12 W8 O16 W1 -59.9(16) . . . . ?
O13 W7 O9 W3 137.8(11) . . . . ?
O13 W9 O3 W5 -139.5(12) . . . . ?
O14 V1 O7 W3 -63.5(6) . . . . ?
O14 V1 O7 W5 61.9(7) . . . . ?
O14 V1 O20 W1 63.3(7) . . . . ?
O14 V1 O20 W2 -63.1(7) . . . . ?
O14 V1 O28 W4 63.0(7) . . . . ?
O14 V1 O28 W6 -64.1(7) . . . . ?
O14 W7 O9 W3 65.1(11) . . . . ?
O14 W8 O16 W1 -66.7(12) . . . . ?
O14 W9 O3 W5 -66.4(12) . . . . ?
O15 W8 O16 W1 119.3(12) . . . . ?
O16 W1 O18 Co2 -48.7(12) . . . 6_556 ?
O17 W1 O18 Co2 -134.8(11) . . . 6_556 ?
O17 W6 O32 W8 15.6(12) . . . . ?
O19 W1 O18 Co2 40.9(12) . . . 6_556 ?
O19 W2 O6 W5 59.3(18) . . . . ?
O20 V1 O7 W3 -178.5(5) . . . . ?
O20 V1 O7 W5 -53.1(7) . . . . ?
O20 V1 O14 W7 -179.8(5) . . . . ?
O20 V1 O14 W8 -60.0(6) . . . . ?
O20 V1 O14 W9 60.8(6) . . . . ?
O20 V1 O28 W4 178.2(5) . . . . ?
O20 V1 O28 W6 51.2(7) . . . . ?
O20 W2 O6 W5 63.0(13) . . . . ?
O21 W1 O18 Co2 134.3(11) 3_556 . . 6_556 ?
O21 W2 O6 W5 143.5(13) . . . . ?
O22 W2 O6 W5 -120.3(13) . . . . ?
O23 W2 O6 W5 -22.3(13) . . . . ?
O23 W9 O3 W5 19.2(12) . . . . ?
O24 W3 O10 W4 142.1(12) . . . . ?
O24 W4 O27 Co2 172.9(16) 3_556 . . . ?
O24 W4 O30 W6 85.2(6) 3_556 . . . ?
O25 W9 O3 W5 120.9(12) . . . . ?
O26 W8 O16 W1 -139.7(12) . . . . ?
O26 W9 O3 W5 -57.8(17) . . . . ?
O27 W4 O30 W6 -175.3(6) . . . . ?
O28 V1 O7 W3 52.4(7) . . . . ?
O28 V1 O7 W5 177.8(5) . . . . ?
O28 V1 O14 W7 -59.5(6) . . . . ?
O28 V1 O14 W8 60.3(6) . . . . ?
O28 V1 O14 W9 -178.9(5) . . . . ?
O28 V1 O20 W1 -52.4(7) . . . . ?
O28 V1 O20 W2 -178.8(5) . . . . ?
O28 W4 O27 Co2 60(3) . . . . ?
O28 W4 O30 W6 1.1(5) . . . . ?
O28 W6 O17 W1 61.3(13) . . . . ?
O28 W6 O32 W8 -69.6(12) . . . . ?
O29 W4 O27 Co2 -12.2(16) . . . . ?
O29 W4 O30 W6 -81.3(6) . . . . ?
O29 W7 O9 W3 -17.6(11) . . . . ?
O30 W4 O27 Co2 78.6(16) . . . . ?
O30 W6 O17 W1 56.8(18) . . . . ?
O30 W6 O32 W8 -139.4(12) . . . . ?
O31 W6 O17 W1 -119.4(13) . . . . ?
O31 W6 O32 W8 118.3(12) . . . . ?
O32 W6 O17 W1 -21.1(13) . . . . ?
O32 W8 O16 W1 17.3(12) . . . . ?
C1 N1 C2 N3 -1.1(16) . . . . ?
C1 N2 N3 C2 0.7(17) . . . . ?
C1 N2 N3 C3 -176.2(13) . . . . ?
C2 N1 C1 N2 1.7(18) . . . . ?
C2 N3 C3 C4 102.1(17) . . . . ?
C3 N3 C2 N1 176.8(13) . . . . ?
C3 C4 C5 F1 -1(2) . . . . ?
C3 C4 C5 C6 175.1(14) . . . 5_667 ?
C3 C4 C6 F2 4(2) . . . . ?
C3 C4 C6 C5 -175.1(13) . . . 5_667 ?
C5 C4 C6 F2 -176.9(13) . . . . ?
C5 C4 C6 C5 4(2) . . . 5_667 ?
C6 C4 C5 F1 179.8(13) . . . . ?
C6 C4 C5 C6 -4(2) . . . 5_667 ?
C7 N4 C8 N6 0.9(16) . . . . ?
C7 N5 N6 C8 -2.0(17) . . . . ?
C7 N5 N6 C9 176.2(13) . . . . ?
C8 N4 C7 N5 -2.3(17) . . . . ?
C8 N6 C9 C10 -111.2(17) . . . . ?
C9 N6 C8 N4 -177.4(13) . . . . ?
C9 C10 C11 F3 4(2) . . . . ?
C9 C10 C11 C12 -177.4(16) . . . . ?
C9 C10 C15 F6 0(3) . . . . ?
C9 C10 C15 C14 177.4(15) . . . . ?
C10 C11 C12 F4 179.1(15) . . . . ?
C10 C11 C12 C13 1(3) . . . . ?
C11 C10 C15 F6 -177.3(16) . . . . ?
C11 C10 C15 C14 0(2) . . . . ?
C11 C12 C13 C14 -1(2) . . . . ?
C11 C12 C13 C16 178.4(14) . . . . ?
C12 C13 C14 F5 -177.1(14) . . . . ?
C12 C13 C14 C15 2(2) . . . . ?
C12 C13 C16 N9 -97.2(17) . . . . ?
C13 C14 C15 F6 176.7(15) . . . . ?
C13 C14 C15 C10 -1(3) . . . . ?
C14 C13 C16 N9 82.4(18) . . . . ?
C15 C10 C11 F3 -178.6(15) . . . . ?
C15 C10 C11 C12 0(3) . . . . ?
C16 N9 C17 N7 177.2(13) . . . . ?
C16 C13 C14 F5 3(2) . . . . ?
C16 C13 C14 C15 -178.0(14) . . . . ?
C17 N7 C18 N8 1(2) . . . . ?
C17 N9 C16 C13 77(2) . . . . ?
C18 N7 C17 N9 -1.2(19) . . . . ?
C18 N8 N9 C16 -176.7(14) . . . . ?
C18 N8 N9 C17 -0.3(18) . . . . ?
C19 N10 C20 N11 3(2) . . . . ?
C19 N12 C21 C22 103.6(18) . . . . ?
C20 N10 C19 N12 -3.5(17) . . . . ?
C20 N11 N12 C19 -1.6(18) . . . . ?
C20 N11 N12 C21 178.7(14) . . . . ?
C21 N12 C19 N10 -177.0(13) . . . . ?
C21 C22 C23 F7 -2(2) . . . . ?
C21 C22 C23 C24 172.8(15) . . . . ?
C21 C22 C27 F10 4(2) . . . . ?
C21 C22 C27 C26 -174.0(14) . . . . ?
C22 C23 C24 F8 -176.4(15) . . . . ?
C22 C23 C24 C25 3(3) . . . . ?
C23 C22 C27 F10 -178.1(14) . . . . ?
C23 C22 C27 C26 4(2) . . . . ?
C23 C24 C25 C26 0(2) . . . . ?
C23 C24 C25 C28 -177.8(14) . . . . ?
C24 C25 C26 F9 178.7(13) . . . . ?
C24 C25 C26 C27 -1(2) . . . . ?
C24 C25 C28 N14 -85.9(18) . . . . ?
C25 C26 C27 F10 -178.5(13) . . . . ?
C25 C26 C27 C22 -1(2) . . . . ?
C26 C25 C28 N14 96.2(17) . . . . ?
C27 C22 C23 F7 180.0(15) . . . . ?
C27 C22 C23 C24 -5(2) . . . . ?
C28 N14 C30 N15 -168.4(14) . . . . ?
C28 C25 C26 F9 -3(2) . . . . ?
C28 C25 C26 C27 176.6(14) . . . . ?
C29 N13 N14 C28 170.1(14) . . . . ?
C29 N13 N14 C30 2.0(17) . . . . ?
C29 N15 C30 N14 -0.9(17) . . . . ?
C30 N14 C28 C25 -140.1(15) . . . . ?
C30 N15 C29 N13 2.3(18) . . . . ?
