#------------------------------------------------------------------------------
#$Date: 2020-03-03 04:43:21 +0200 (Tue, 03 Mar 2020) $
#$Revision: 248636 $
#$URL: file:///home/coder/svn-repositories/cod/cif/7/24/00/7240013.cif $
#------------------------------------------------------------------------------
#
# This file is available in the Crystallography Open Database (COD),
# http://www.crystallography.net/
#
# All data on this site have been placed in the public domain by the
# contributors.
#
data_7240013
loop_
_publ_author_name
'Yong-Sheng, Shi'
'Liu, Dong'
'Fu, Lianshe'
'Li, Yuehua'
'Dong, Gui-Ying'
_publ_section_title
;
 Five water-stable luminescent CdII-based metal-organic frameworks as
 sensors for highly sensitive and selective detection of acetylacetone,
 Fe3+ and Cr2O72- ions
;
_journal_name_full               CrystEngComm
_journal_paper_doi               10.1039/D0CE00140F
_journal_year                    2020
_chemical_formula_moiety         'C45 H30 Cd2 Cl4 N6 O8'
_chemical_formula_sum            'C45 H37.5 Cd2 Cl4 N6 O11.75'
_chemical_formula_weight         1216.94
_space_group_crystal_system      monoclinic
_space_group_IT_number           14
_space_group_name_Hall           '-P 2yn'
_space_group_name_H-M_alt        'P 1 21/n 1'
_atom_sites_solution_hydrogens   geom
_atom_sites_solution_primary     iterative
_audit_creation_date             2019-12-23
_audit_creation_method
;
Olex2 1.2-beta
(compiled 2018.05.29 svn.r3508 for OlexSys, GUI svn.r5506)
;
_audit_update_record
;
2020-01-12 deposited with the CCDC.	2020-03-02 downloaded from the CCDC.
;
_cell_angle_alpha                90
_cell_angle_beta                 91.811(2)
_cell_angle_gamma                90
_cell_formula_units_Z            4
_cell_length_a                   18.4777(4)
_cell_length_b                   9.4892(2)
_cell_length_c                   26.8332(4)
_cell_measurement_reflns_used    6123
_cell_measurement_temperature    293(2)
_cell_measurement_theta_max      21.33
_cell_measurement_theta_min      2.15
_cell_volume                     4702.55(16)
_computing_molecular_graphics    'Olex2 (Dolomanov et al., 2009)'
_computing_publication_material  'Olex2 (Dolomanov et al., 2009)'
_computing_structure_refinement  'olex2.refine (Bourhis et al., 2015)'
_computing_structure_solution    'olex2.solve (Bourhis et al., 2015)'
_diffrn_ambient_temperature      293(2)
_diffrn_measured_fraction_theta_full 0.994
_diffrn_measured_fraction_theta_max 0.956
_diffrn_measurement_device_type  'Bruker SMART CCD area-detector'
_diffrn_radiation_type           MoK\a
_diffrn_radiation_wavelength     0.71073
_diffrn_reflns_av_R_equivalents  0.0376
_diffrn_reflns_av_unetI/netI     0.0388
_diffrn_reflns_Laue_measured_fraction_full 0.994
_diffrn_reflns_Laue_measured_fraction_max 0.956
_diffrn_reflns_limit_h_max       25
_diffrn_reflns_limit_h_min       -25
_diffrn_reflns_limit_k_max       13
_diffrn_reflns_limit_k_min       -12
_diffrn_reflns_limit_l_max       35
_diffrn_reflns_limit_l_min       -36
_diffrn_reflns_number            70559
_diffrn_reflns_point_group_measured_fraction_full 0.994
_diffrn_reflns_point_group_measured_fraction_max 0.956
_diffrn_reflns_theta_full        25.242
_diffrn_reflns_theta_max         30.576
_diffrn_reflns_theta_min         2.205
_exptl_absorpt_coefficient_mu    1.196
_exptl_crystal_colour            colourless
_exptl_crystal_colour_primary    colourless
_exptl_crystal_density_diffrn    1.719
_exptl_crystal_description       block
_exptl_crystal_F_000             2370
_refine_diff_density_max         1.169
_refine_diff_density_min         -0.964
_refine_diff_density_rms         0.082
_refine_ls_extinction_method     none
_refine_ls_goodness_of_fit_ref   0.989
_refine_ls_hydrogen_treatment    constr
_refine_ls_matrix_type           full
_refine_ls_number_parameters     623
_refine_ls_number_reflns         13816
_refine_ls_number_restraints     82
_refine_ls_restrained_S_all      1.001
_refine_ls_R_factor_all          0.0593
_refine_ls_R_factor_gt           0.0363
_refine_ls_shift/su_max          0.003
_refine_ls_shift/su_mean         0.000
_refine_ls_structure_factor_coef Fsqd
_refine_ls_weighting_details
'w=1/[\s^2^(Fo^2^)+(0.0400P)^2^+2.4822P] where P=(Fo^2^+2Fc^2^)/3'
_refine_ls_weighting_scheme      calc
_refine_ls_wR_factor_gt          0.0796
_refine_ls_wR_factor_ref         0.0875
_reflns_Friedel_coverage         0.000
_reflns_number_gt                10061
_reflns_number_total             13816
_reflns_threshold_expression     'I > 2\s(I)'
_cod_data_source_file            d0ce00140f2.cif
_cod_data_source_block           3
_cod_original_cell_volume        4702.54(16)
_cod_original_formula_sum        'C45 H37.50 Cd2 Cl4 N6 O11.75'
_cod_database_code               7240013
_shelx_shelxl_version_number     2018/3
_shelx_space_group_comment
;
The symmetry employed for this shelxl refinement is uniquely defined
by the following loop, which should always be used as a source of
symmetry information in preference to the above space-group names.
They are only intended as comments.
;
_olex2_refinement_description
;
1. Fixed Uiso
 At 1.2 times of:
  All C(H) groups, All C(H,H) groups
2. Restrained distances
 O5-O6 \\sim O5B-O6B \\sim O7-O8 \\sim O7B-O8B
 with sigma of 0.01
 C42-O6 \\sim C42-O6B
 with sigma of 0.01
 C42-O5 \\sim C42-O5B
 with sigma of 0.01
 C6-O8 \\sim C6-O8B
 with sigma of 0.01
 C6-O7 \\sim C6-O7B
 with sigma of 0.01
3. Uiso/Uaniso restraints and constraints
O7 \\sim O8 \\sim O5B \\sim O6B \\sim O7B \\sim O8B: within 3.8A with sigma of
0.02 and sigma for terminal atoms of 0.04
O5 \\sim O6 \\sim O7 \\sim O8 \\sim O5B \\sim O6B: within 3.8A with sigma of
0.02 and sigma for terminal atoms of 0.04
4. Others
 Sof(O5B)=Sof(O6B)=Sof(O7B)=Sof(O8B)=1-FVAR(1)
 Sof(O5)=Sof(O6)=Sof(O7)=Sof(O8)=FVAR(1)
5.a Secondary CH2 refined with riding coordinates:
 C18(H18A,H18B), C26(H26A,H26B), C27(H27A,H27B), C28(H28A,H28B), C36(H36A,H36B)
5.b Aromatic/amide H refined with riding coordinates:
 C4(H4), C8(H8), C12(H12), C13(H13), C14(H14), C16(H16), C17(H17), C22(H22),
 C23(H23), C24(H24), C25(H25), C32(H32), C33(H33), C34(H34), C35(H35), C38(H38),
  C39(H39), C40(H40), C41(H41), C45(H45)
;
_shelx_res_file
;
TITL sys-73_a.res in P2(1)/n
    x.res
    created by SHELXL-2018/3 at 17:42:29 on 14-Oct-2019
CELL 0.71073 18.4777 9.4892 26.8332 90 91.811 90
ZERR 4 0.0004 0.0002 0.0004 0 0.002 0
LATT 1
SYMM 0.5-X,0.5+Y,0.5-Z
SFAC C  H  Cd Cl N  O
UNIT 180 138 8 16 24 41
OMIT 0 0 4
OMIT 1 1 4
OMIT 2 0 4
OMIT -1 1 2
L.S. 50 0   42
ACTA
BOND $H
FMAP 2
PLAN 80
SIMU 0.02 0.04 3.8 O7 > O8B
SIMU 0.02 0.04 3.8 O5 > O6B
SADI 0.01 O5 O6 O5B O6B O7 O8 O7B O8B
SADI 0.01 C42 O6 C42 O6B
SADI 0.01 C42 O5 C42 O5B
SADI 0.01 C6 O8 C6 O8B
SADI 0.01 C6 O7 C6 O7B
ABIN
WGHT    0.040000    2.482200
FVAR       0.17372   0.73619
CD1   3    0.104306    0.938734    0.515905    11.00000    0.03666    0.02322 =
         0.03153    0.00330    0.00369    0.00096
CD2   3    0.481779    0.330386    0.325061    11.00000    0.04033    0.02511 =
         0.03166   -0.00377    0.00278   -0.00027
CL1   4    0.069226    0.227006    0.651786    11.00000    0.08109    0.03693 =
         0.06004    0.00019    0.00999   -0.00838
CL2   4    0.039352    0.868869    0.695184    11.00000    0.10082    0.03487 =
         0.06385    0.00634    0.01590   -0.00551
CL3   4    0.109100    1.407947    0.420650    11.00000    0.07985    0.04600 =
         0.08177   -0.00089    0.04641    0.00824
CL4   4    0.351724    0.002550    0.441813    11.00000    0.06456    0.08410 =
         0.05516    0.00729   -0.00565   -0.00951
O1    6    0.058780    0.856036    0.587614    11.00000    0.07213    0.05759 =
         0.05224    0.03045    0.00178   -0.00213
O2    6    0.129895    0.693353    0.558392    11.00000    0.06615    0.05975 =
         0.03876    0.00722    0.00562   -0.02571
O3    6    0.110875    1.173751    0.491537    11.00000    0.04677    0.03864 =
         0.10984    0.01119    0.01097    0.01788
O4    6    0.008478    1.125280    0.526550    11.00000    0.05649    0.01965 =
         0.04356    0.00079   -0.00532   -0.00086
N1    5    0.149833    0.852801    0.442108    11.00000    0.04028    0.03177 =
         0.03427    0.00099    0.00444    0.00140
N2    5    0.369015    0.423852    0.313958    11.00000    0.03651    0.03071 =
         0.03796   -0.00379    0.00468   -0.00235
N3    5    0.270313    0.557195    0.307829    11.00000    0.03252    0.03884 =
         0.03296   -0.00518    0.00225    0.00082
N4    5    0.554523    0.516978    0.334472    11.00000    0.04014    0.03008 =
         0.04536   -0.00444   -0.00213   -0.00608
N5    5    0.590568    0.736821    0.348717    11.00000    0.04223    0.02942 =
         0.06340   -0.00576   -0.00812   -0.00652
N6    5    0.779369    1.012051    0.446440    11.00000    0.05025    0.03810 =
         0.05592    0.00503   -0.01466   -0.01496
C1    1    0.088711    0.739275    0.590658    11.00000    0.04718    0.05007 =
         0.03758    0.01657   -0.00854   -0.02274
C2    1    0.071916    0.645282    0.634488    11.00000    0.03944    0.04267 =
         0.03414    0.01137   -0.00417   -0.01165
C3    1    0.046532    0.691575    0.679858    11.00000    0.04314    0.03443 =
         0.04302    0.00903   -0.00170   -0.00598
C4    1    0.027019    0.595802    0.716222    11.00000    0.05056    0.04160 =
         0.03733    0.00826    0.00706   -0.00304
AFIX  43
H4    2    0.009986    0.629024    0.746277    11.00000   -1.20000
AFIX   0
C5    1    0.032414    0.451872    0.708631    11.00000    0.04091    0.03713 =
         0.03707    0.01013    0.00239   -0.00586
C6    1    0.009909    0.352533    0.748952    11.00000    0.06991    0.04099 =
         0.03556    0.00680    0.01052   -0.01139
C7    1    0.059890    0.405404    0.664052    11.00000    0.04332    0.03554 =
         0.03867    0.00815   -0.00048   -0.00684
C8    1    0.080274    0.501291    0.627972    11.00000    0.04690    0.04471 =
         0.03179    0.00442    0.00280   -0.01140
AFIX  43
H8    2    0.099998    0.468118    0.598748    11.00000   -1.20000
AFIX   0
C9    1    0.050557    1.209376    0.506423    11.00000    0.04417    0.02488 =
         0.04228   -0.00405   -0.00947    0.00454
C10   1    0.026382    1.360780    0.501833    11.00000    0.03021    0.02036 =
         0.03917   -0.00229   -0.00409   -0.00025
C11   1    0.050024    1.455324    0.466511    11.00000    0.03415    0.02609 =
         0.04420   -0.00646    0.00906   -0.00187
C12   1   -0.023899    1.408253    0.534780    11.00000    0.04374    0.02139 =
         0.04432    0.00336    0.00762   -0.00508
AFIX  43
H12   2   -0.040794    1.346432    0.558663    11.00000   -1.20000
AFIX   0
C13   1    0.116298    0.882415    0.397931    11.00000    0.03701    0.03379 =
         0.04144    0.00500    0.00542    0.00670
AFIX  43
H13   2    0.077185    0.944136    0.397405    11.00000   -1.20000
AFIX   0
C14   1    0.137610    0.825012    0.353610    11.00000    0.03536    0.03918 =
         0.03298    0.00533    0.00019   -0.00014
AFIX  43
H14   2    0.112792    0.847276    0.323959    11.00000   -1.20000
AFIX   0
C15   1    0.196287    0.733794    0.353389    11.00000    0.03117    0.03280 =
         0.03218    0.00004    0.00342   -0.00230
C16   1    0.229801    0.701134    0.398806    11.00000    0.03208    0.04227 =
         0.03771   -0.00078   -0.00038    0.00729
AFIX  43
H16   2    0.268506    0.638486    0.400506    11.00000   -1.20000
AFIX   0
C17   1    0.204883    0.762944    0.441432    11.00000    0.03629    0.04197 =
         0.03309    0.00166   -0.00297    0.00261
AFIX  43
H17   2    0.228078    0.740314    0.471641    11.00000   -1.20000
AFIX   0
C18   1    0.221873    0.678927    0.303790    11.00000    0.03876    0.04997 =
         0.03444   -0.00190   -0.00045    0.00915
AFIX  23
H18A  2    0.179856    0.653185    0.283187    11.00000   -1.20000
H18B  2    0.246710    0.754407    0.286951    11.00000   -1.20000
AFIX   0
C19   1    0.344074    0.553312    0.307113    11.00000    0.03663    0.03683 =
         0.02834   -0.00402    0.00202   -0.00023
C20   1    0.246659    0.420014    0.314910    11.00000    0.04154    0.04597 =
         0.02563   -0.00632    0.00341   -0.00544
C21   1    0.308718    0.337636    0.319171    11.00000    0.04041    0.03660 =
         0.03123   -0.00561    0.00508   -0.00758
C22   1    0.303926    0.193910    0.327380    11.00000    0.05135    0.03834 =
         0.05076   -0.00121    0.00271   -0.00622
AFIX  43
H22   2    0.345055    0.137748    0.330606    11.00000   -1.20000
AFIX   0
C23   1    0.235628    0.138112    0.330541    11.00000    0.06983    0.04928 =
         0.06069   -0.00002    0.00637   -0.02446
AFIX  43
H23   2    0.230794    0.041831    0.335991    11.00000   -1.20000
AFIX   0
C24   1    0.173213    0.220537    0.325877    11.00000    0.05041    0.07186 =
         0.05930   -0.00498    0.00705   -0.02587
AFIX  43
H24   2    0.128103    0.178181    0.328490    11.00000   -1.20000
AFIX   0
C25   1    0.177219    0.362988    0.317504    11.00000    0.03805    0.07024 =
         0.04707   -0.00697    0.00216   -0.00836
AFIX  43
H25   2    0.135927    0.418502    0.313761    11.00000   -1.20000
AFIX   0
C26   1    0.389850    0.679271    0.298664    11.00000    0.03758    0.03676 =
         0.05116    0.00740    0.00272   -0.00050
AFIX  23
H26A  2    0.362912    0.744423    0.277288    11.00000   -1.20000
H26B  2    0.432375    0.650145    0.281042    11.00000   -1.20000
AFIX   0
C27   1    0.414412    0.756711    0.345961    11.00000    0.03779    0.03192 =
         0.07478   -0.01482    0.00530   -0.00327
AFIX  23
H27A  2    0.372280    0.779374    0.365085    11.00000   -1.20000
H27B  2    0.437197    0.844688    0.336819    11.00000   -1.20000
AFIX   0
C28   1    0.467617    0.671373    0.378762    11.00000    0.05202    0.04206 =
         0.04223   -0.01541    0.00175   -0.00642
AFIX  23
H28A  2    0.478055    0.723322    0.409282    11.00000   -1.20000
H28B  2    0.444860    0.583237    0.387753    11.00000   -1.20000
AFIX   0
C29   1    0.537164    0.639944    0.354176    11.00000    0.03816    0.03156 =
         0.04084   -0.00295   -0.00788   -0.00291
C30   1    0.646745    0.670608    0.324820    11.00000    0.03984    0.04195 =
         0.05724    0.00152   -0.00597   -0.00828
C31   1    0.624416    0.533169    0.316335    11.00000    0.03766    0.04491 =
         0.04843   -0.00369   -0.00344   -0.00176
C32   1    0.669730    0.437000    0.294552    11.00000    0.05018    0.05384 =
         0.08158   -0.01516    0.00605    0.00006
AFIX  43
H32   2    0.655435    0.344245    0.288905    11.00000   -1.20000
AFIX   0
C33   1    0.737728    0.484868    0.281408    11.00000    0.04817    0.08921 =
         0.10103   -0.02368    0.01276    0.00569
AFIX  43
H33   2    0.769817    0.422573    0.267003    11.00000   -1.20000
AFIX   0
C34   1    0.758462    0.623074    0.289346    11.00000    0.04412    0.08391 =
         0.09406   -0.00345    0.00775   -0.01136
AFIX  43
H34   2    0.803884    0.651959    0.279403    11.00000   -1.20000
AFIX   0
C35   1    0.714499    0.718424    0.311276    11.00000    0.04625    0.06177 =
         0.08417    0.00162    0.00044   -0.01462
AFIX  43
H35   2    0.729081    0.811014    0.316918    11.00000   -1.20000
AFIX   0
C36   1    0.588619    0.885323    0.362637    11.00000    0.05408    0.03148 =
         0.09168   -0.01159   -0.02623   -0.00431
AFIX  23
H36A  2    0.545693    0.902990    0.381573    11.00000   -1.20000
H36B  2    0.585325    0.942384    0.332658    11.00000   -1.20000
AFIX   0
C37   1    0.654740    0.928796    0.393318    11.00000    0.04334    0.03344 =
         0.07182   -0.00921   -0.01515   -0.00589
C38   1    0.685249    0.845245    0.429802    11.00000    0.06386    0.04043 =
         0.07493    0.00821   -0.01606   -0.01978
AFIX  43
H38   2    0.664359    0.759139    0.437551    11.00000   -1.20000
AFIX   0
C39   1    0.747254    0.889875    0.454980    11.00000    0.06157    0.04732 =
         0.05959    0.01167   -0.01562   -0.01251
AFIX  43
H39   2    0.767693    0.831027    0.479304    11.00000   -1.20000
AFIX   0
C40   1    0.686016    1.057719    0.385009    11.00000    0.06133    0.03990 =
         0.09198    0.01416   -0.03481   -0.01342
AFIX  43
H40   2    0.666100    1.119111    0.361295    11.00000   -1.20000
AFIX   0
C41   1    0.747624    1.094446    0.412552    11.00000    0.06182    0.04238 =
         0.09831    0.02020   -0.03212   -0.02147
AFIX  43
H41   2    0.767980    1.182420    0.406910    11.00000   -1.20000
AFIX   0
C42   1    0.482584    0.190066    0.414965    11.00000    0.07054    0.05266 =
         0.04838    0.01749    0.00550   -0.00289
C43   1    0.489750    0.093996    0.459734    11.00000    0.05945    0.04246 =
         0.03611    0.00576    0.00291   -0.00185
C44   1    0.435594    0.001372    0.473197    11.00000    0.05443    0.04506 =
         0.03931    0.00049   -0.00096   -0.00199
C45   1    0.445543   -0.090955    0.512606    11.00000    0.06410    0.04551 =
         0.04460    0.00684    0.00513   -0.01444
AFIX  43
H45   2    0.408332   -0.151974    0.520721    11.00000   -1.20000
PART 1
AFIX   0
O5    6    0.470598    0.138278    0.374961    21.00000    0.11785    0.06958 =
         0.04086    0.01741    0.00242    0.00930
O6    6    0.494423    0.315692    0.420997    21.00000    0.21809    0.06142 =
         0.08556    0.03206   -0.02573   -0.04304
O7    6    0.059845    0.316693    0.780427    21.00000    0.06191    0.07361 =
         0.07195    0.04581    0.01311    0.01242
O8    6   -0.050190    0.306716    0.751551    21.00000    0.08688    0.12209 =
         0.05884    0.04470   -0.02096   -0.07552
PART 2
O5B   6    0.521339    0.171937    0.379694   -21.00000    0.16028    0.07026 =
         0.06581    0.03314    0.02702    0.03950
O6B   6    0.437606    0.286554    0.413419   -21.00000    0.11273    0.09214 =
         0.10756    0.06913    0.02804    0.03074
O7B   6    0.039535    0.244898    0.759864   -21.00000    0.10125    0.04060 =
         0.06600    0.02717    0.02654    0.01083
O8B   6   -0.052454    0.380104    0.762563   -21.00000    0.05740    0.07658 =
         0.08512    0.04795    0.01129   -0.03364
PART 0
HKLF 4




REM  sys-73_a.res in P2(1)/n
REM wR2 = 0.0875, GooF = S = 0.989, Restrained GooF = 1.001 for all data
REM R1 = 0.0363 for 10061 Fo > 4sig(Fo) and 0.0593 for all 13816 data
REM 623 parameters refined using 82 restraints

END

WGHT      0.0345      1.6165

REM Highest difference peak  1.169,  deepest hole -0.964,  1-sigma level  0.082
Q1    1   0.1439  1.4256  0.4479  11.00000  0.05    1.17
Q2    1   0.0862  0.8559  0.6922  11.00000  0.05    0.55
Q3    1   0.3808 -0.2293  0.5056  11.00000  0.05    0.51
Q4    1   0.0361  0.2815  0.7575  11.00000  0.05    0.44
Q5    1   0.0987  0.5749  0.6339  11.00000  0.05    0.39
Q6    1   0.0817  0.9148  0.6038  11.00000  0.05    0.38
Q7    1   0.4311  0.2156  0.3905  11.00000  0.05    0.37
Q8    1   0.1758  0.8035  0.3536  11.00000  0.05    0.35
Q9    1   0.0782  0.3391  0.7818  11.00000  0.05    0.33
Q10   1   0.7005  0.8422  0.2917  11.00000  0.05    0.33
Q11   1   0.5560  0.2588  0.4088  11.00000  0.05    0.33
Q12   1   0.7810  1.0610  0.3929  11.00000  0.05    0.32
Q13   1   0.1572  1.2373  0.5069  11.00000  0.05    0.31
Q14   1   0.3585  0.0679  0.4609  11.00000  0.05    0.30
Q15   1   0.2615  0.5552  0.3778  11.00000  0.05    0.30
Q16   1   0.2794  0.3772  0.3206  11.00000  0.05    0.30
Q17   1   0.0747  0.6799  0.6091  11.00000  0.05    0.29
Q18   1   0.7008  0.4789  0.2891  11.00000  0.05    0.29
Q19   1   0.0825  0.4708  0.6502  11.00000  0.05    0.29
Q20   1   0.1422  1.2240  0.5159  11.00000  0.05    0.29
Q21   1   0.4526  0.3337  0.4182  11.00000  0.05    0.28
Q22   1   0.2234  0.4192  0.3188  11.00000  0.05    0.28
Q23   1   0.1606  0.5925  0.5382  11.00000  0.05    0.28
Q24   1   0.4472  0.3118  0.4317  11.00000  0.05    0.28
Q25   1   0.1585  0.6293  0.5627  11.00000  0.05    0.27
Q26   1   0.2365  0.7807  0.4138  11.00000  0.05    0.27
Q27   1   0.6452  0.9032  0.3670  11.00000  0.05    0.27
Q28   1   0.8191  0.6234  0.3014  11.00000  0.05    0.27
Q29   1  -0.0168  1.3611  0.5582  11.00000  0.05    0.27
Q30   1   0.2806  0.6652  0.3834  11.00000  0.05    0.27
Q31   1   0.8615  0.5060  0.2604  11.00000  0.05    0.27
Q32   1   0.2577  0.5011  0.3212  11.00000  0.05    0.27
Q33   1   0.7551  0.5984  0.2410  11.00000  0.05    0.27
Q34   1   0.3401  0.0989  0.4530  11.00000  0.05    0.26
Q35   1   0.1641  0.4057  0.3159  11.00000  0.05    0.26
Q36   1   0.2127  0.6915  0.3699  11.00000  0.05    0.26
Q37   1   0.2033  0.6965  0.3367  11.00000  0.05    0.26
Q38   1   0.2761 -0.0170  0.3940  11.00000  0.05    0.26
Q39   1   0.2444  0.6024  0.3076  11.00000  0.05    0.26
Q40   1   0.2783  0.5917  0.4104  11.00000  0.05    0.26
Q41   1   0.2436  0.8410  0.2690  11.00000  0.05    0.25
Q42   1   0.1013  0.7105  0.5620  11.00000  0.05    0.25
Q43   1   0.7337  0.6835  0.2651  11.00000  0.05    0.25
Q44   1   0.2629 -0.1048  0.3765  11.00000  0.05    0.25
Q45   1   0.4374  0.3586  0.3226  11.00000  0.05    0.25
Q46   1   0.2380  0.5021  0.3879  11.00000  0.05    0.25
Q47   1  -0.0770  0.3925  0.7660  11.00000  0.05    0.25
Q48   1   0.3827  0.1445  0.4535  11.00000  0.05    0.25
Q49   1   0.4143  0.3902  0.2578  11.00000  0.05    0.25
Q50   1   0.3252 -0.1843  0.5144  11.00000  0.05    0.25
Q51   1   0.4171  0.1802  0.4865  11.00000  0.05    0.25
Q52   1   0.2211  0.7011  0.4265  11.00000  0.05    0.24
Q53   1   0.0378  0.5193  0.7179  11.00000  0.05    0.24
Q54   1   0.2809  0.4027  0.3626  11.00000  0.05    0.24
Q55   1   0.6776  1.1003  0.3252  11.00000  0.05    0.24
Q56   1   0.7580  0.7634  0.5077  11.00000  0.05    0.24
Q57   1   0.3205  0.8107  0.4032  11.00000  0.05    0.24
Q58   1   0.7986  0.4009  0.2843  11.00000  0.05    0.24
Q59   1   0.7146  1.0760  0.4038  11.00000  0.05    0.24
Q60   1   0.7566  0.4428  0.2562  11.00000  0.05    0.24
Q61   1   0.2359  0.8050  0.4767  11.00000  0.05    0.24
Q62   1   0.2682 -0.0581  0.4700  11.00000  0.05    0.24
Q63   1   0.5873  0.5247  0.3227  11.00000  0.05    0.23
Q64   1   0.7528  0.5567  0.3048  11.00000  0.05    0.23
Q65   1   0.4666 -0.0837  0.5368  11.00000  0.05    0.23
Q66   1   0.2970  0.3356  0.3354  11.00000  0.05    0.23
Q67   1   0.6379  1.2285  0.3652  11.00000  0.05    0.23
Q68   1   0.7316  0.8805  0.4277  11.00000  0.05    0.23
Q69   1   0.1525  1.1836  0.4770  11.00000  0.05    0.23
Q70   1   0.1434  0.7470  0.5715  11.00000  0.05    0.23
Q71   1   0.2989  0.2710  0.3143  11.00000  0.05    0.23
Q72   1   0.7944  1.1263  0.3719  11.00000  0.05    0.23
Q73   1   0.5399  0.3251  0.4570  11.00000  0.05    0.23
Q74   1   0.7247  0.8578  0.4200  11.00000  0.05    0.23
Q75   1   0.0652  0.5840  0.6207  11.00000  0.05    0.23
Q76   1   0.3392  0.3786  0.3172  11.00000  0.05    0.23
Q77   1   0.1431  0.9135  0.4314  11.00000  0.05    0.23
Q78   1   0.8114  0.6201  0.2542  11.00000  0.05    0.23
Q79   1   0.3177  0.5325  0.4170  11.00000  0.05    0.22
Q80   1   0.2437  0.1617  0.3489  11.00000  0.05    0.22
;
_shelx_res_checksum              71798
_shelx_fab_file
;
    2    0    0    -56.21      0.00
    4    0    0      7.70      0.00
    6    0    0      1.28      0.00
    8    0    0      5.81      0.00
   10    0    0     -8.67      0.00
   12    0    0      0.30      0.00
   14    0    0      1.45      0.00
   16    0    0     -2.00      0.00
   18    0    0      0.46      0.00
   20    0    0      1.44      0.00
   22    0    0     -2.09      0.00
   24    0    0      0.50      0.00
    1    1    0     48.21      0.00
    2    1    0     -3.00      0.00
    3    1    0    -21.53      0.00
    4    1    0      4.22      0.00
    5    1    0     -8.77      0.00
    6    1    0      8.35      0.00
    7    1    0     20.41      0.00
    8    1    0     -0.37      0.00
    9    1    0    -12.89      0.00
   10    1    0     -3.37      0.00
   11    1    0      1.88      0.00
   12    1    0      2.34      0.00
   13    1    0     -1.58      0.00
   14    1    0     -0.96      0.00
   15    1    0      0.31      0.00
   16    1    0     -0.49      0.00
   17    1    0     -0.27      0.00
   18    1    0      0.28      0.00
   19    1    0     -0.37      0.00
   20    1    0     -0.27      0.00
   21    1    0      1.17      0.00
   22    1    0      0.08      0.00
   23    1    0     -2.01      0.00
   24    1    0      0.98      0.00
   25    1    0      1.24      0.00
    0    2    0     67.07      0.00
    1    2    0     11.64      0.00
    2    2    0    -21.22      0.00
    3    2    0     -9.24      0.00
    4    2    0      7.11      0.00
    5    2    0     14.42      0.00
    6    2    0     -2.93      0.00
    7    2    0      5.22      0.00
    8    2    0      6.39      0.00
    9    2    0     -4.71      0.00
   10    2    0     -4.40      0.00
   11    2    0      0.62      0.00
   12    2    0     -0.77      0.00
   13    2    0      1.37      0.00
   14    2    0      0.50      0.00
   15    2    0     -1.48      0.00
   16    2    0     -1.57      0.00
   17    2    0      0.09      0.00
   18    2    0      1.30      0.00
   19    2    0     -0.19      0.00
   20    2    0     -1.02      0.00
   21    2    0     -0.14      0.00
   22    2    0     -0.03      0.00
   23    2    0      0.49      0.00
   24    2    0      0.91      0.00
   25    2    0      0.49      0.00
    1    3    0      6.29      0.00
    2    3    0     -0.76      0.00
    3    3    0      6.73      0.00
    4    3    0      6.82      0.00
    5    3    0     -9.54      0.00
    6    3    0      4.35      0.00
    7    3    0     10.45      0.00
    8    3    0      3.44      0.00
    9    3    0     -4.80      0.00
   10    3    0     -4.71      0.00
   11    3    0      2.42      0.00
   12    3    0      3.53      0.00
   13    3    0     -3.20      0.00
   14    3    0     -0.62      0.00
   15    3    0      0.79      0.00
   16    3    0     -1.12      0.00
   17    3    0     -0.84      0.00
   18    3    0      0.22      0.00
   19    3    0      0.93      0.00
   20    3    0     -0.20      0.00
   21    3    0     -0.61      0.00
   22    3    0     -0.02      0.00
   23    3    0     -0.19      0.00
   24    3    0      0.30      0.00
   25    3    0     -0.04      0.00
    0    4    0      8.77      0.00
    1    4    0      7.57      0.00
    2    4    0     -5.04      0.00
    3    4    0     -0.29      0.00
    4    4    0      6.73      0.00
    5    4    0      2.77      0.00
    6    4    0     -5.50      0.00
    7    4    0      5.15      0.00
    8    4    0      5.55      0.00
    9    4    0     -2.33      0.00
   10    4    0     -1.77      0.00
   11    4    0      1.03      0.00
   12    4    0     -0.29      0.00
   13    4    0     -0.13      0.00
   14    4    0     -0.42      0.00
   15    4    0      0.46      0.00
   16    4    0     -1.85      0.00
   17    4    0     -1.17      0.00
   18    4    0      2.15      0.00
   19    4    0      0.42      0.00
   20    4    0     -0.74      0.00
   21    4    0     -0.03      0.00
   22    4    0     -0.13      0.00
   23    4    0      0.18      0.00
   24    4    0     -0.72      0.00
   25    4    0     -0.12      0.00
    1    5    0     -1.77      0.00
    2    5    0      2.24      0.00
    3    5    0      4.55      0.00
    4    5    0      2.84      0.00
    5    5    0     -4.60      0.00
    6    5    0     -2.00      0.00
    7    5    0      3.32      0.00
    8    5    0      6.46      0.00
    9    5    0     -0.17      0.00
   10    5    0     -4.24      0.00
   11    5    0      0.15      0.00
   12    5    0      1.53      0.00
   13    5    0     -0.56      0.00
   14    5    0      0.03      0.00
   15    5    0     -0.32      0.00
   16    5    0     -0.35      0.00
   17    5    0     -1.03      0.00
   18    5    0     -0.24      0.00
   19    5    0      1.88      0.00
   20    5    0      0.20      0.00
   21    5    0     -1.24      0.00
   22    5    0      0.42      0.00
   23    5    0     -0.25      0.00
   24    5    0      0.01      0.00
    0    6    0      1.63      0.00
    1    6    0      2.21      0.00
    2    6    0     -3.46      0.00
    3    6    0      0.70      0.00
    4    6    0      3.66      0.00
    5    6    0     -0.29      0.00
    6    6    0     -3.84      0.00
    7    6    0      0.75      0.00
    8    6    0      3.07      0.00
    9    6    0      1.45      0.00
   10    6    0     -1.22      0.00
   11    6    0     -0.95      0.00
   12    6    0      0.96      0.00
   13    6    0     -0.81      0.00
   14    6    0     -0.32      0.00
   15    6    0      2.05      0.00
   16    6    0     -0.22      0.00
   17    6    0     -1.85      0.00
   18    6    0      0.53      0.00
   19    6    0      0.75      0.00
   20    6    0     -1.19      0.00
   21    6    0     -0.22      0.00
   22    6    0      0.31      0.00
   23    6    0      0.72      0.00
    1    7    0     -0.88      0.00
    2    7    0      0.92      0.00
    3    7    0     -0.19      0.00
    4    7    0      0.40      0.00
    5    7    0     -0.45      0.00
    6    7    0     -2.75      0.00
    7    7    0     -0.12      0.00
    8    7    0      2.67      0.00
    9    7    0      0.52      0.00
   10    7    0     -2.14      0.00
   11    7    0     -0.48      0.00
   12    7    0      0.57      0.00
   13    7    0      0.96      0.00
   14    7    0      1.01      0.00
   15    7    0      0.42      0.00
   16    7    0      0.10      0.00
   17    7    0     -0.42      0.00
   18    7    0     -1.27      0.00
   19    7    0     -0.27      0.00
   20    7    0      1.13      0.00
   21    7    0     -0.52      0.00
   22    7    0      0.23      0.00
    0    8    0      0.34      0.00
    1    8    0      1.37      0.00
    2    8    0     -0.84      0.00
    3    8    0     -0.27      0.00
    4    8    0     -0.57      0.00
    5    8    0     -0.91      0.00
    6    8    0     -0.04      0.00
    7    8    0      0.11      0.00
    8    8    0      1.18      0.00
    9    8    0     -2.16      0.00
   10    8    0     -1.16      0.00
   11    8    0      0.69      0.00
   12    8    0      0.28      0.00
   13    8    0      1.00      0.00
   14    8    0      1.34      0.00
   15    8    0      0.47      0.00
   16    8    0     -1.44      0.00
   17    8    0     -0.42      0.00
   18    8    0      0.80      0.00
   19    8    0      0.08      0.00
   20    8    0     -0.45      0.00
    1    9    0     -0.13      0.00
    2    9    0      0.47      0.00
    3    9    0     -0.78      0.00
    4    9    0      0.05      0.00
    5    9    0      0.84      0.00
    6    9    0     -0.42      0.00
    7    9    0      0.88      0.00
    8    9    0     -0.47      0.00
    9    9    0      0.03      0.00
   10    9    0     -1.64      0.00
   11    9    0     -0.30      0.00
   12    9    0      1.17      0.00
   13    9    0      0.32      0.00
   14    9    0      0.90      0.00
   15    9    0     -1.01      0.00
   16    9    0      0.27      0.00
   17    9    0      0.01      0.00
   18    9    0     -0.37      0.00
   19    9    0      1.17      0.00
    0   10    0     -0.26      0.00
    1   10    0      2.62      0.00
    2   10    0     -0.84      0.00
    3   10    0     -0.73      0.00
    4   10    0      1.70      0.00
    5   10    0      0.41      0.00
    6   10    0      0.74      0.00
    7   10    0      0.43      0.00
    8   10    0      0.87      0.00
    9   10    0     -1.07      0.00
   10   10    0      0.55      0.00
   11   10    0     -0.61      0.00
   12   10    0     -1.33      0.00
   13   10    0      0.77      0.00
   14   10    0      0.75      0.00
   15   10    0      0.56      0.00
   16   10    0     -1.59      0.00
   17   10    0      0.55      0.00
    1   11    0     -0.69      0.00
    2   11    0      2.46      0.00
    3   11    0      1.45      0.00
    4   11    0     -1.03      0.00
    5   11    0      1.11      0.00
    6   11    0      0.41      0.00
    7   11    0      0.82      0.00
    8   11    0      1.13      0.00
    9   11    0      0.92      0.00
   10   11    0     -2.00      0.00
   11   11    0     -0.83      0.00
   12   11    0     -0.05      0.00
   13   11    0      0.85      0.00
   14   11    0      0.77      0.00
   15   11    0     -1.32      0.00
    0   12    0      0.03      0.00
    1   12    0      1.81      0.00
    2   12    0      0.79      0.00
    3   12    0      0.66      0.00
    4   12    0      1.06      0.00
    5   12    0     -0.26      0.00
    6   12    0      0.33      0.00
    7   12    0     -0.08      0.00
    8   12    0      1.11      0.00
    9   12    0      0.54      0.00
   10   12    0     -0.49      0.00
   11   12    0     -1.41      0.00
    1   13    0      0.90      0.00
    2   13    0      1.07      0.00
    3   13    0      0.88      0.00
    4   13    0      0.06      0.00
    5   13    0      0.05      0.00
    6   13    0     -0.55      0.00
  -25    0    1      1.15      0.00
  -23    0    1     -2.14      0.00
  -21    0    1      0.39      0.00
  -19    0    1      0.04      0.00
  -17    0    1     -0.27      0.00
  -15    0    1      0.74      0.00
  -13    0    1     -1.37      0.00
  -11    0    1      1.38      0.00
   -9    0    1    -16.03      0.00
   -7    0    1     26.96      0.00
   -5    0    1    -15.75      0.00
   -3    0    1    -22.37      0.00
    3    0    1    -31.21      0.00
    5    0    1     -2.38      0.00
    7    0    1     17.35      0.00
    9    0    1    -13.02      0.00
   11    0    1      2.18      0.00
   13    0    1     -1.71      0.00
   15    0    1      0.54      0.00
   17    0    1     -0.54      0.00
   19    0    1     -0.65      0.00
   21    0    1      2.43      0.00
   23    0    1     -2.80      0.00
   25    0    1      1.01      0.00
  -25    1    1     -0.43      0.00
  -24    1    1      1.50      0.00
  -23    1    1     -0.69      0.00
  -22    1    1     -1.85      0.00
  -21    1    1      0.60      0.00
  -20    1    1      0.25      0.00
  -19    1    1     -0.51      0.00
  -18    1    1      1.02      0.00
  -17    1    1     -0.91      0.00
  -16    1    1     -2.10      0.00
  -15    1    1      1.13      0.00
  -14    1    1      2.03      0.00
  -13    1    1     -0.11      0.00
  -12    1    1     -1.31      0.00
  -11    1    1     -0.73      0.00
  -10    1    1     -6.59      0.00
   -9    1    1      2.80      0.00
   -8    1    1      4.89      0.00
   -7    1    1     -0.84      0.00
   -6    1    1      4.01      0.00
   -5    1    1    -12.10      0.00
   -4    1    1     -0.62      0.00
   -3    1    1      3.97      0.00
   -2    1    1    -38.25      0.00
   -1    1    1     -6.02      0.00
    0    1    1    119.37      0.00
    1    1    1      9.40      0.00
    2    1    1    -40.01      0.00
    3    1    1    -12.74      0.00
    4    1    1     13.04      0.00
    5    1    1     14.05      0.00
    6    1    1     -4.07      0.00
    7    1    1      3.04      0.00
    8    1    1      6.86      0.00
    9    1    1     -3.11      0.00
   10    1    1     -7.15      0.00
   11    1    1      0.06      0.00
   12    1    1      0.53      0.00
   13    1    1      1.14      0.00
   14    1    1      0.58      0.00
   15    1    1     -1.34      0.00
   16    1    1     -1.69      0.00
   17    1    1      0.28      0.00
   18    1    1      0.67      0.00
   19    1    1     -0.24      0.00
   20    1    1      0.20      0.00
   21    1    1     -0.20      0.00
   22    1    1     -0.26      0.00
   23    1    1      0.63      0.00
   24    1    1     -0.06      0.00
   25    1    1      0.67      0.00
  -25    2    1      0.00      0.00
  -24    2    1     -1.36      0.00
  -23    2    1     -0.38      0.00
  -22    2    1      0.41      0.00
  -21    2    1      0.09      0.00
  -20    2    1      0.52      0.00
  -19    2    1     -0.09      0.00
  -18    2    1     -1.51      0.00
  -17    2    1     -0.54      0.00
  -16    2    1      0.89      0.00
  -15    2    1      0.64      0.00
  -14    2    1      1.51      0.00
  -13    2    1     -2.14      0.00
  -12    2    1     -2.99      0.00
  -11    2    1      1.60      0.00
  -10    2    1      3.48      0.00
   -9    2    1     -9.41      0.00
   -8    2    1     -0.57      0.00
   -7    2    1     19.53      0.00
   -6    2    1     -5.35      0.00
   -5    2    1    -16.59      0.00
   -4    2    1    -11.14      0.00
   -3    2    1      1.74      0.00
   -2    2    1      0.26      0.00
   -1    2    1     17.22      0.00
    0    2    1      6.15      0.00
    1    2    1     30.01      0.00
    2    2    1     -8.93      0.00
    3    2    1     -8.64      0.00
    4    2    1      6.55      0.00
    5    2    1     -2.27      0.00
    6    2    1      9.76      0.00
    7    2    1      9.82      0.00
    8    2    1      1.38      0.00
    9    2    1     -6.67      0.00
   10    2    1     -4.55      0.00
   11    2    1      2.36      0.00
   12    2    1      3.07      0.00
   13    2    1     -2.47      0.00
   14    2    1     -0.39      0.00
   15    2    1      0.17      0.00
   16    2    1     -1.12      0.00
   17    2    1     -0.23      0.00
   18    2    1      0.13      0.00
   19    2    1      0.09      0.00
   20    2    1     -0.11      0.00
   21    2    1     -0.02      0.00
   22    2    1     -0.48      0.00
   23    2    1     -0.45      0.00
   24    2    1      1.60      0.00
   25    2    1      1.24      0.00
  -25    3    1      0.10      0.00
  -24    3    1      0.20      0.00
  -23    3    1      0.14      0.00
  -22    3    1      0.03      0.00
  -21    3    1     -0.16      0.00
  -20    3    1     -1.24      0.00
  -19    3    1     -0.25      0.00
  -18    3    1      1.66      0.00
  -17    3    1      0.71      0.00
  -16    3    1     -1.70      0.00
  -15    3    1      0.23      0.00
  -14    3    1      0.69      0.00
  -13    3    1      0.10      0.00
  -12    3    1     -1.86      0.00
  -11    3    1     -1.56      0.00
  -10    3    1     -1.68      0.00
   -9    3    1      3.56      0.00
   -8    3    1      5.54      0.00
   -7    3    1     -5.48      0.00
   -6    3    1     -3.41      0.00
   -5    3    1     -5.05      0.00
   -4    3    1      4.42      0.00
   -3    3    1     -3.18      0.00
   -2    3    1     -6.84      0.00
   -1    3    1     -6.42      0.00
    0    3    1     25.98      0.00
    1    3    1     11.29      0.00
    2    3    1    -12.09      0.00
    3    3    1     -9.56      0.00
    4    3    1     11.15      0.00
    5    3    1     10.49      0.00
    6    3    1     -5.28      0.00
    7    3    1      5.89      0.00
    8    3    1      5.17      0.00
    9    3    1     -3.81      0.00
   10    3    1     -2.56      0.00
   11    3    1      0.68      0.00
   12    3    1      0.34      0.00
   13    3    1      1.47      0.00
   14    3    1     -1.01      0.00
   15    3    1     -0.48      0.00
   16    3    1     -1.41      0.00
   17    3    1     -0.74      0.00
   18    3    1      1.79      0.00
   19    3    1     -0.32      0.00
   20    3    1     -0.87      0.00
   21    3    1      0.24      0.00
   22    3    1      0.01      0.00
   23    3    1     -0.28      0.00
   24    3    1      0.59      0.00
   25    3    1      0.89      0.00
  -25    4    1     -1.21      0.00
  -24    4    1      0.71      0.00
  -23    4    1     -0.31      0.00
  -22    4    1     -0.57      0.00
  -21    4    1     -1.29      0.00
  -20    4    1     -0.21      0.00
  -19    4    1      1.38      0.00
  -18    4    1      0.03      0.00
  -17    4    1     -0.72      0.00
  -16    4    1      1.24      0.00
  -15    4    1      0.44      0.00
  -14    4    1     -0.08      0.00
  -13    4    1     -2.18      0.00
  -12    4    1     -2.18      0.00
  -11    4    1      1.08      0.00
  -10    4    1      4.29      0.00
   -9    4    1     -1.91      0.00
   -8    4    1     -5.67      0.00
   -7    4    1      7.25      0.00
   -6    4    1      0.73      0.00
   -5    4    1     -9.06      0.00
   -4    4    1     -5.20      0.00
   -3    4    1      9.20      0.00
   -2    4    1     -3.89      0.00
   -1    4    1     -2.30      0.00
    0    4    1      1.92      0.00
    1    4    1      2.01      0.00
    2    4    1      0.98      0.00
    3    4    1      3.04      0.00
    4    4    1      2.38      0.00
    5    4    1     -3.04      0.00
    6    4    1      2.11      0.00
    7    4    1      4.41      0.00
    8    4    1      5.51      0.00
    9    4    1     -2.06      0.00
   10    4    1     -5.79      0.00
   11    4    1      1.80      0.00
   12    4    1      3.97      0.00
   13    4    1     -2.06      0.00
   14    4    1     -0.76      0.00
   15    4    1     -0.11      0.00
   16    4    1     -0.55      0.00
   17    4    1     -1.24      0.00
   18    4    1      0.10      0.00
   19    4    1      1.99      0.00
   20    4    1     -0.13      0.00
   21    4    1     -0.29      0.00
   22    4    1      0.17      0.00
   23    4    1     -0.70      0.00
   24    4    1      0.00      0.00
   25    4    1     -0.37      0.00
  -24    5    1     -1.24      0.00
  -23    5    1     -0.85      0.00
  -22    5    1     -0.17      0.00
  -21    5    1      0.05      0.00
  -20    5    1     -0.94      0.00
  -19    5    1     -0.69      0.00
  -18    5    1      1.10      0.00
  -17    5    1      1.88      0.00
  -16    5    1     -0.64      0.00
  -15    5    1     -1.29      0.00
  -14    5    1     -0.40      0.00
  -13    5    1      0.48      0.00
  -12    5    1     -0.37      0.00
  -11    5    1      0.54      0.00
  -10    5    1     -0.57      0.00
   -9    5    1     -0.24      0.00
   -8    5    1      3.87      0.00
   -7    5    1     -3.16      0.00
   -6    5    1     -4.25      0.00
   -5    5    1     -0.01      0.00
   -4    5    1      4.33      0.00
   -3    5    1     -1.82      0.00
   -2    5    1     -2.89      0.00
   -1    5    1     -4.58      0.00
    0    5    1      2.96      0.00
    1    5    1      5.31      0.00
    2    5    1     -4.17      0.00
    3    5    1     -1.08      0.00
    4    5    1      5.25      0.00
    5    5    1      1.90      0.00
    6    5    1     -5.16      0.00
    7    5    1      2.49      0.00
    8    5    1      4.64      0.00
    9    5    1      0.10      0.00
   10    5    1     -1.83      0.00
   11    5    1     -0.31      0.00
   12    5    1      0.86      0.00
   13    5    1     -0.49      0.00
   14    5    1     -0.76      0.00
   15    5    1      1.13      0.00
   16    5    1     -1.35      0.00
   17    5    1     -1.18      0.00
   18    5    1      1.34      0.00
   19    5    1      1.09      0.00
   20    5    1     -0.32      0.00
   21    5    1     -0.76      0.00
   22    5    1      0.50      0.00
   23    5    1      0.83      0.00
   24    5    1     -1.06      0.00
  -23    6    1     -0.74      0.00
  -22    6    1     -0.53      0.00
  -21    6    1     -0.38      0.00
  -20    6    1     -0.32      0.00
  -19    6    1     -0.06      0.00
  -18    6    1      0.71      0.00
  -17    6    1     -0.81      0.00
  -16    6    1      0.61      0.00
  -15    6    1      0.73      0.00
  -14    6    1     -1.07      0.00
  -13    6    1     -0.16      0.00
  -12    6    1     -0.05      0.00
  -11    6    1     -0.10      0.00
  -10    6    1      2.63      0.00
   -9    6    1      0.70      0.00
   -8    6    1     -5.30      0.00
   -7    6    1      1.10      0.00
   -6    6    1      3.09      0.00
   -5    6    1     -2.59      0.00
   -4    6    1     -1.59      0.00
   -3    6    1      3.51      0.00
   -2    6    1     -1.72      0.00
   -1    6    1     -3.54      0.00
    0    6    1      0.58      0.00
    1    6    1     -0.11      0.00
    2    6    1      0.84      0.00
    3    6    1      0.78      0.00
    4    6    1      1.45      0.00
    5    6    1     -1.51      0.00
    6    6    1     -2.46      0.00
    7    6    1      0.16      0.00
    8    6    1      4.61      0.00
    9    6    1      1.05      0.00
   10    6    1     -2.94      0.00
   11    6    1     -0.55      0.00
   12    6    1      0.81      0.00
   13    6    1      0.63      0.00
   14    6    1     -0.14      0.00
   15    6    1     -0.13      0.00
   16    6    1      0.77      0.00
   17    6    1     -0.47      0.00
   18    6    1     -0.97      0.00
   19    6    1      0.48      0.00
   20    6    1      0.58      0.00
   21    6    1     -0.57      0.00
   22    6    1      0.29      0.00
   23    6    1      0.13      0.00
  -22    7    1     -0.08      0.00
  -21    7    1     -0.74      0.00
  -20    7    1     -1.11      0.00
  -19    7    1     -0.43      0.00
  -18    7    1      0.19      0.00
  -17    7    1      1.66      0.00
  -16    7    1     -0.78      0.00
  -15    7    1     -1.60      0.00
  -14    7    1      1.21      0.00
  -13    7    1      0.53      0.00
  -12    7    1      0.58      0.00
  -11    7    1     -0.64      0.00
  -10    7    1     -1.16      0.00
   -9    7    1      0.45      0.00
   -8    7    1      1.70      0.00
   -7    7    1     -0.37      0.00
   -6    7    1     -1.65      0.00
   -5    7    1      1.15      0.00
   -4    7    1      1.53      0.00
   -3    7    1      0.28      0.00
   -2    7    1     -2.37      0.00
   -1    7    1     -2.16      0.00
    0    7    1      0.59      0.00
    1    7    1      2.66      0.00
    2    7    1     -1.65      0.00
    3    7    1     -0.77      0.00
    4    7    1      0.57      0.00
    5    7    1     -0.53      0.00
    6    7    1     -1.74      0.00
    7    7    1     -0.29      0.00
    8    7    1      1.78      0.00
    9    7    1      0.14      0.00
   10    7    1     -1.58      0.00
   11    7    1     -0.60      0.00
   12    7    1      1.45      0.00
   13    7    1      0.17      0.00
   14    7    1      0.16      0.00
   15    7    1      1.35      0.00
   16    7    1      0.05      0.00
   17    7    1     -0.77      0.00
   18    7    1      0.35      0.00
   19    7    1     -0.42      0.00
   20    7    1     -1.49      0.00
   21    7    1      1.10      0.00
  -21    8    1     -0.95      0.00
  -20    8    1     -1.82      0.00
  -19    8    1      0.30      0.00
  -18    8    1      0.56      0.00
  -17    8    1      0.01      0.00
  -16    8    1      0.80      0.00
  -15    8    1     -0.62      0.00
  -14    8    1     -1.69      0.00
  -13    8    1      1.19      0.00
  -12    8    1     -0.38      0.00
  -11    8    1     -0.60      0.00
  -10    8    1      0.57      0.00
   -9    8    1     -0.17      0.00
   -8    8    1      0.62      0.00
   -7    8    1      0.64      0.00
   -6    8    1      1.23      0.00
   -5    8    1      0.06      0.00
   -4    8    1      0.00      0.00
   -3    8    1     -0.79      0.00
   -2    8    1     -0.07      0.00
   -1    8    1     -0.75      0.00
    0    8    1     -0.34      0.00
    1    8    1      0.49      0.00
    2    8    1      1.12      0.00
    3    8    1     -1.33      0.00
    4    8    1     -0.18      0.00
    5    8    1     -0.17      0.00
    6    8    1     -1.70      0.00
    7    8    1      0.46      0.00
    8    8    1      0.85      0.00
    9    8    1      0.13      0.00
   10    8    1     -2.36      0.00
   11    8    1     -0.57      0.00
   12    8    1      1.35      0.00
   13    8    1      0.94      0.00
   14    8    1      0.82      0.00
   15    8    1      0.13      0.00
   16    8    1      0.44      0.00
   17    8    1     -0.53      0.00
   18    8    1     -0.97      0.00
   19    8    1      0.42      0.00
   20    8    1      1.10      0.00
  -19    9    1     -0.70      0.00
  -18    9    1      1.35      0.00
  -17    9    1     -0.13      0.00
  -16    9    1     -1.68      0.00
  -15    9    1      0.37      0.00
  -14    9    1      1.07      0.00
  -13    9    1     -1.52      0.00
  -12    9    1     -1.36      0.00
  -11    9    1     -0.57      0.00
  -10    9    1      0.08      0.00
   -9    9    1      2.38      0.00
   -8    9    1      1.16      0.00
   -7    9    1      0.01      0.00
   -6    9    1     -0.03      0.00
   -5    9    1      0.12      0.00
   -4    9    1      0.98      0.00
   -3    9    1      0.13      0.00
   -2    9    1     -1.13      0.00
   -1    9    1     -0.60      0.00
    0    9    1      0.08      0.00
    1    9    1      0.58      0.00
    2    9    1     -0.39      0.00
    3    9    1      0.12      0.00
    4    9    1     -0.31      0.00
    5    9    1      0.07      0.00
    6    9    1      0.89      0.00
    7    9    1      0.00      0.00
    8    9    1      0.77      0.00
    9    9    1     -1.60      0.00
   10    9    1     -0.31      0.00
   11    9    1     -0.02      0.00
   12    9    1     -0.42      0.00
   13    9    1      1.22      0.00
   14    9    1      1.00      0.00
   15    9    1      0.08      0.00
   16    9    1     -1.88      0.00
   17    9    1      0.81      0.00
   18    9    1      1.33      0.00
   19    9    1     -0.17      0.00
  -17   10    1      0.86      0.00
  -16   10    1     -0.50      0.00
  -15   10    1     -1.22      0.00
  -14   10    1     -0.38      0.00
  -13   10    1     -0.15      0.00
  -12   10    1     -0.96      0.00
  -11   10    1     -0.63      0.00
  -10   10    1      1.75      0.00
   -9   10    1      1.10      0.00
   -8   10    1      0.24      0.00
   -7   10    1      0.51      0.00
   -6   10    1     -0.68      0.00
   -5   10    1      1.35      0.00
   -4   10    1      0.84      0.00
   -3   10    1      0.86      0.00
   -2   10    1     -1.39      0.00
   -1   10    1     -0.72      0.00
    0   10    1     -0.26      0.00
    1   10    1     -0.75      0.00
    2   10    1      1.19      0.00
    3   10    1      0.14      0.00
    4   10    1     -0.09      0.00
    5   10    1      1.48      0.00
    6   10    1      0.22      0.00
    7   10    1      0.91      0.00
    8   10    1      0.74      0.00
    9   10    1      0.13      0.00
   10   10    1     -1.83      0.00
   11   10    1     -0.05      0.00
   12   10    1      0.59      0.00
   13   10    1      0.46      0.00
   14   10    1      0.37      0.00
   15   10    1     -1.81      0.00
   16   10    1      0.90      0.00
   17   10    1      0.94      0.00
  -15   11    1     -1.24      0.00
  -14   11    1      0.84      0.00
  -13   11    1      0.14      0.00
  -12   11    1     -0.93      0.00
  -11   11    1      0.75      0.00
  -10   11    1      0.25      0.00
   -9   11    1      0.48      0.00
   -8   11    1      1.12      0.00
   -7   11    1     -0.61      0.00
   -6   11    1      0.83      0.00
   -5   11    1      0.05      0.00
   -4   11    1      1.28      0.00
   -3   11    1      0.54      0.00
   -2   11    1      1.17      0.00
   -1   11    1     -3.58      0.00
    0   11    1     -0.94      0.00
    1   11    1      3.09      0.00
    2   11    1     -0.33      0.00
    3   11    1     -0.61      0.00
    4   11    1      1.28      0.00
    5   11    1      0.40      0.00
    6   11    1      1.07      0.00
    7   11    1      0.68      0.00
    8   11    1      0.94      0.00
    9   11    1      0.10      0.00
   10   11    1     -0.20      0.00
   11   11    1     -1.65      0.00
   12   11    1      0.01      0.00
   13   11    1      0.39      0.00
   14   11    1      0.17      0.00
   15   11    1      0.83      0.00
  -11   12    1     -0.36      0.00
  -10   12    1      1.85      0.00
   -9   12    1      0.25      0.00
   -8   12    1     -1.73      0.00
   -7   12    1      0.85      0.00
   -6   12    1      0.85      0.00
   -5   12    1      0.02      0.00
   -4   12    1      0.30      0.00
   -3   12    1      2.41      0.00
   -2   12    1     -1.95      0.00
   -1   12    1      0.09      0.00
    0   12    1     -0.52      0.00
    1   12    1      0.29      0.00
    2   12    1      2.00      0.00
    3   12    1      0.31      0.00
    4   12    1     -0.79      0.00
    5   12    1      0.69      0.00
    6   12    1      0.66      0.00
    7   12    1      0.87      0.00
    8   12    1      0.42      0.00
    9   12    1      0.37      0.00
   10   12    1     -1.14      0.00
   11   12    1     -0.53      0.00
   -7   13    1     -0.01      0.00
   -6   13    1     -1.07      0.00
   -5   13    1      0.68      0.00
   -4   13    1      1.70      0.00
   -3   13    1     -0.83      0.00
   -2   13    1      0.93      0.00
   -1   13    1     -0.72      0.00
    0   13    1      1.04      0.00
    1   13    1     -0.05      0.00
    2   13    1      0.48      0.00
    3   13    1      1.19      0.00
    4   13    1      0.42      0.00
    5   13    1     -0.42      0.00
    6   13    1     -0.45      0.00
  -24    0    2      1.63      0.00
  -22    0    2     -2.36      0.00
  -20    0    2     -0.10      0.00
  -18    0    2      1.64      0.00
  -16    0    2     -2.75      0.00
  -14    0    2      3.48      0.00
  -12    0    2     -2.07      0.00
  -10    0    2     -7.24      0.00
   -8    0    2      2.55      0.00
   -6    0    2     11.55      0.00
   -4    0    2    -13.53      0.00
   -2    0    2    -32.93      0.00
    2    0    2    -40.02      0.00
    4    0    2     21.72      0.00
    6    0    2     -9.33      0.00
    8    0    2      6.96      0.00
   10    0    2     -6.55      0.00
   12    0    2      0.49      0.00
   14    0    2      0.38      0.00
   16    0    2     -1.63      0.00
   18    0    2      0.40      0.00
   20    0    2      0.64      0.00
   22    0    2      0.12      0.00
   24    0    2     -0.57      0.00
  -25    1    2     -0.01      0.00
  -24    1    2     -1.14      0.00
  -23    1    2     -0.82      0.00
  -22    1    2     -0.34      0.00
  -21    1    2     -0.12      0.00
  -20    1    2      1.20      0.00
  -19    1    2     -0.19      0.00
  -18    1    2     -1.92      0.00
  -17    1    2     -0.12      0.00
  -16    1    2      0.27      0.00
  -15    1    2      0.55      0.00
  -14    1    2      1.28      0.00
  -13    1    2     -1.04      0.00
  -12    1    2     -1.27      0.00
  -11    1    2      0.64      0.00
  -10    1    2      1.65      0.00
   -9    1    2    -14.06      0.00
   -8    1    2      0.09      0.00
   -7    1    2     27.23      0.00
   -6    1    2     -1.93      0.00
   -5    1    2    -22.29      0.00
   -4    1    2     -8.50      0.00
   -3    1    2     -6.06      0.00
   -2    1    2     -5.97      0.00
    0    1    2     13.98      0.00
    1    1    2     55.51      0.00
    2    1    2    -15.04      0.00
    3    1    2    -20.87      0.00
    4    1    2      6.23      0.00
    5    1    2      4.35      0.00
    6    1    2      8.06      0.00
    7    1    2      7.28      0.00
    8    1    2      0.25      0.00
    9    1    2     -7.53      0.00
   10    1    2     -3.01      0.00
   11    1    2      2.42      0.00
   12    1    2      2.07      0.00
   13    1    2     -2.48      0.00
   14    1    2     -0.22      0.00
   15    1    2      0.54      0.00
   16    1    2     -1.10      0.00
   17    1    2     -0.52      0.00
   18    1    2      0.06      0.00
   19    1    2     -0.33      0.00
   20    1    2      0.49      0.00
   21    1    2      1.32      0.00
   22    1    2     -1.01      0.00
   23    1    2     -1.31      0.00
   24    1    2      1.82      0.00
   25    1    2      1.16      0.00
  -25    2    2      0.40      0.00
  -24    2    2      1.35      0.00
  -23    2    2     -0.76      0.00
  -22    2    2     -0.93      0.00
  -21    2    2      0.68      0.00
  -20    2    2     -0.31      0.00
  -19    2    2     -0.64      0.00
  -18    2    2      0.90      0.00
  -17    2    2     -0.21      0.00
  -16    2    2     -1.88      0.00
  -15    2    2      0.25      0.00
  -14    2    2      1.98      0.00
  -13    2    2      1.35      0.00
  -12    2    2     -3.10      0.00
  -11    2    2     -1.99      0.00
  -10    2    2     -1.86      0.00
   -9    2    2      3.33      0.00
   -8    2    2      3.21      0.00
   -7    2    2     -2.70      0.00
   -6    2    2      2.82      0.00
   -5    2    2     -6.78      0.00
   -4    2    2     -2.58      0.00
   -3    2    2     -9.12      0.00
   -2    2    2    -13.68      0.00
   -1    2    2     -2.16      0.00
    0    2    2     57.14      0.00
    1    2    2     14.07      0.00
    2    2    2    -19.51      0.00
    3    2    2    -21.51      0.00
    4    2    2     14.71      0.00
    5    2    2     19.51      0.00
    6    2    2     -5.27      0.00
    7    2    2      4.29      0.00
    8    2    2      5.08      0.00
    9    2    2     -3.86      0.00
   10    2    2     -4.18      0.00
   11    2    2      0.18      0.00
   12    2    2      1.05      0.00
   13    2    2      2.22      0.00
   14    2    2     -0.87      0.00
   15    2    2     -1.56      0.00
   16    2    2     -1.18      0.00
   17    2    2     -0.09      0.00
   18    2    2      1.11      0.00
   19    2    2     -0.53      0.00
   20    2    2     -0.69      0.00
   21    2    2      0.19      0.00
   22    2    2      0.06      0.00
   23    2    2     -0.12      0.00
   24    2    2      0.81      0.00
   25    2    2      1.56      0.00
  -25    3    2     -1.41      0.00
  -24    3    2      0.29      0.00
  -23    3    2      0.15      0.00
  -22    3    2      0.40      0.00
  -21    3    2     -0.52      0.00
  -20    3    2     -0.43      0.00
  -19    3    2      0.12      0.00
  -18    3    2     -0.61      0.00
  -17    3    2     -0.53      0.00
  -16    3    2      1.26      0.00
  -15    3    2      0.98      0.00
  -14    3    2      0.83      0.00
  -13    3    2     -2.61      0.00
  -12    3    2     -2.33      0.00
  -11    3    2      1.31      0.00
  -10    3    2      3.15      0.00
   -9    3    2     -4.48      0.00
   -8    3    2     -3.34      0.00
   -7    3    2     13.33      0.00
   -6    3    2      0.66      0.00
   -5    3    2    -16.18      0.00
   -4    3    2    -11.69      0.00
   -3    3    2     14.05      0.00
   -2    3    2     -3.97      0.00
   -1    3    2     -2.60      0.00
    0    3    2      6.92      0.00
    1    3    2     14.64      0.00
    2    3    2     -5.65      0.00
    3    3    2     -3.75      0.00
    4    3    2      2.29      0.00
    5    3    2      2.47      0.00
    6    3    2      7.91      0.00
    7    3    2      3.66      0.00
    8    3    2      2.94      0.00
    9    3    2     -3.30      0.00
   10    3    2     -4.99      0.00
   11    3    2      2.33      0.00
   12    3    2      3.83      0.00
   13    3    2     -2.10      0.00
   14    3    2     -0.44      0.00
   15    3    2     -0.40      0.00
   16    3    2     -0.36      0.00
   17    3    2     -0.42      0.00
   18    3    2     -0.68      0.00
   19    3    2      0.81      0.00
   20    3    2     -0.11      0.00
   21    3    2      0.14      0.00
   22    3    2     -0.16      0.00
   23    3    2     -0.63      0.00
   24    3    2      0.59      0.00
   25    3    2      0.97      0.00
  -25    4    2      0.82      0.00
  -24    4    2     -1.06      0.00
  -23    4    2     -0.06      0.00
  -22    4    2     -0.05      0.00
  -21    4    2     -0.31      0.00
  -20    4    2     -1.23      0.00
  -19    4    2     -0.76      0.00
  -18    4    2      0.90      0.00
  -17    4    2      1.61      0.00
  -16    4    2     -0.58      0.00
  -15    4    2     -0.17      0.00
  -14    4    2      0.68      0.00
  -13    4    2      0.03      0.00
  -12    4    2     -2.48      0.00
  -11    4    2     -0.34      0.00
  -10    4    2      0.19      0.00
   -9    4    2      1.22      0.00
   -8    4    2      4.57      0.00
   -7    4    2     -3.93      0.00
   -6    4    2     -4.24      0.00
   -5    4    2     -1.15      0.00
   -4    4    2      3.75      0.00
   -3    4    2     -5.04      0.00
   -2    4    2     -1.59      0.00
   -1    4    2     -4.98      0.00
    0    4    2      7.48      0.00
    1    4    2      8.44      0.00
    2    4    2     -6.91      0.00
    3    4    2     -6.33      0.00
    4    4    2      7.68      0.00
    5    4    2      6.32      0.00
    6    4    2     -3.82      0.00
    7    4    2      3.56      0.00
    8    4    2      3.70      0.00
    9    4    2     -1.37      0.00
   10    4    2     -1.94      0.00
   11    4    2      0.19      0.00
   12    4    2      1.13      0.00
   13    4    2      0.46      0.00
   14    4    2     -1.24      0.00
   15    4    2      0.67      0.00
   16    4    2     -1.64      0.00
   17    4    2     -0.92      0.00
   18    4    2      1.58      0.00
   19    4    2      0.12      0.00
   20    4    2     -0.23      0.00
   21    4    2      0.17      0.00
   22    4    2      1.16      0.00
   23    4    2     -0.54      0.00
   24    4    2     -1.35      0.00
   25    4    2      1.18      0.00
  -24    5    2      0.08      0.00
  -23    5    2     -1.18      0.00
  -22    5    2     -0.80      0.00
  -21    5    2     -0.58      0.00
  -20    5    2     -0.28      0.00
  -19    5    2      0.30      0.00
  -18    5    2      0.45      0.00
  -17    5    2     -1.03      0.00
  -16    5    2      1.32      0.00
  -15    5    2      1.32      0.00
  -14    5    2     -0.85      0.00
  -13    5    2     -1.35      0.00
  -12    5    2     -0.55      0.00
  -11    5    2     -0.37      0.00
  -10    5    2      3.16      0.00
   -9    5    2      1.02      0.00
   -8    5    2     -5.74      0.00
   -7    5    2      3.01      0.00
   -6    5    2      2.27      0.00
   -5    5    2     -5.65      0.00
   -4    5    2     -3.84      0.00
   -3    5    2      7.47      0.00
   -2    5    2     -2.28      0.00
   -1    5    2     -5.25      0.00
    0    5    2      0.25      0.00
    1    5    2      2.32      0.00
    2    5    2      1.21      0.00
    3    5    2     -1.00      0.00
    4    5    2      1.37      0.00
    5    5    2      0.18      0.00
    6    5    2      0.07      0.00
    7    5    2      0.48      0.00
    8    5    2      5.06      0.00
    9    5    2      0.15      0.00
   10    5    2     -4.56      0.00
   11    5    2      0.63      0.00
   12    5    2      2.77      0.00
   13    5    2     -0.53      0.00
   14    5    2     -1.07      0.00
   15    5    2     -0.46      0.00
   16    5    2      0.30      0.00
   17    5    2     -0.94      0.00
   18    5    2      0.10      0.00
   19    5    2      1.04      0.00
   20    5    2      0.24      0.00
   21    5    2      0.69      0.00
   22    5    2      0.04      0.00
   23    5    2     -0.51      0.00
   24    5    2      0.02      0.00
  -23    6    2     -0.20      0.00
  -22    6    2     -0.22      0.00
  -21    6    2     -0.65      0.00
  -20    6    2     -0.96      0.00
  -19    6    2      0.11      0.00
  -18    6    2     -0.04      0.00
  -17    6    2      1.69      0.00
  -16    6    2     -0.45      0.00
  -15    6    2     -1.49      0.00
  -14    6    2      0.66      0.00
  -13    6    2      1.14      0.00
  -12    6    2     -0.04      0.00
  -11    6    2     -0.25      0.00
  -10    6    2     -0.25      0.00
   -9    6    2     -0.51      0.00
   -8    6    2      2.05      0.00
   -7    6    2     -1.51      0.00
   -6    6    2     -2.27      0.00
   -5    6    2      0.26      0.00
   -4    6    2      2.90      0.00
   -3    6    2     -0.24      0.00
   -2    6    2     -2.58      0.00
   -1    6    2     -3.02      0.00
    0    6    2      0.81      0.00
    1    6    2      3.29      0.00
    2    6    2     -2.74      0.00
    3    6    2     -1.05      0.00
    4    6    2      2.75      0.00
    5    6    2      0.78      0.00
    6    6    2     -3.82      0.00
    7    6    2      0.40      0.00
    8    6    2      2.88      0.00
    9    6    2      1.05      0.00
   10    6    2     -1.48      0.00
   11    6    2     -1.00      0.00
   12    6    2      1.47      0.00
   13    6    2     -0.16      0.00
   14    6    2     -0.58      0.00
   15    6    2      0.86      0.00
   16    6    2     -0.02      0.00
   17    6    2     -0.46      0.00
   18    6    2      0.36      0.00
   19    6    2      0.42      0.00
   20    6    2     -1.06      0.00
   21    6    2     -0.27      0.00
   22    6    2      1.56      0.00
   23    6    2      0.75      0.00
  -22    7    2      0.16      0.00
  -21    7    2     -0.18      0.00
  -20    7    2     -1.31      0.00
  -19    7    2     -0.97      0.00
  -18    7    2      0.76      0.00
  -17    7    2     -0.02      0.00
  -16    7    2      1.19      0.00
  -15    7    2     -0.26      0.00
  -14    7    2     -1.87      0.00
  -13    7    2      1.40      0.00
  -12    7    2      0.78      0.00
  -11    7    2     -0.15      0.00
  -10    7    2      0.23      0.00
   -9    7    2     -0.50      0.00
   -8    7    2     -1.82      0.00
   -7    7    2      1.18      0.00
   -6    7    2      2.22      0.00
   -5    7    2     -1.06      0.00
   -4    7    2     -0.34      0.00
   -3    7    2      1.08      0.00
   -2    7    2     -0.57      0.00
   -1    7    2     -2.58      0.00
    0    7    2      0.16      0.00
    1    7    2      0.68      0.00
    2    7    2      1.07      0.00
    3    7    2     -1.02      0.00
    4    7    2      0.23      0.00
    5    7    2     -0.63      0.00
    6    7    2     -2.62      0.00
    7    7    2     -0.63      0.00
    8    7    2      2.64      0.00
    9    7    2      1.15      0.00
   10    7    2     -2.43      0.00
   11    7    2     -1.06      0.00
   12    7    2      0.97      0.00
   13    7    2      1.36      0.00
   14    7    2     -0.07      0.00
   15    7    2      0.29      0.00
   16    7    2      1.16      0.00
   17    7    2     -0.15      0.00
   18    7    2     -1.21      0.00
   19    7    2     -0.08      0.00
   20    7    2      0.31      0.00
   21    7    2     -0.68      0.00
  -21    8    2     -0.36      0.00
  -20    8    2     -0.51      0.00
  -19    8    2     -1.58      0.00
  -18    8    2      0.29      0.00
  -17    8    2      1.12      0.00
  -16    8    2     -0.89      0.00
  -15    8    2     -0.07      0.00
  -14    8    2      1.20      0.00
  -13    8    2     -0.78      0.00
  -12    8    2     -0.16      0.00
  -11    8    2     -1.10      0.00
  -10    8    2     -0.75      0.00
   -9    8    2      1.81      0.00
   -8    8    2      0.98      0.00
   -7    8    2      0.02      0.00
   -6    8    2     -0.08      0.00
   -5    8    2      1.03      0.00
   -4    8    2      0.03      0.00
   -3    8    2      0.17      0.00
   -2    8    2     -1.23      0.00
   -1    8    2     -0.72      0.00
    0    8    2      0.20      0.00
    1    8    2      1.45      0.00
    2    8    2     -0.22      0.00
    3    8    2     -0.32      0.00
    4    8    2     -1.41      0.00
    5    8    2     -0.24      0.00
    6    8    2      0.33      0.00
    7    8    2     -0.70      0.00
    8    8    2      0.77      0.00
    9    8    2     -0.62      0.00
   10    8    2     -1.15      0.00
   11    8    2     -0.56      0.00
   12    8    2      1.01      0.00
   13    8    2      1.13      0.00
   14    8    2      0.48      0.00
   15    8    2      0.26      0.00
   16    8    2     -0.45      0.00
   17    8    2      0.49      0.00
   18    8    2      0.70      0.00
   19    8    2     -0.82      0.00
   20    8    2     -1.09      0.00
  -19    9    2      0.78      0.00
  -18    9    2     -0.38      0.00
  -17    9    2      0.59      0.00
  -16    9    2      0.67      0.00
  -15    9    2     -0.94      0.00
  -14    9    2     -0.93      0.00
  -13    9    2      0.09      0.00
  -12    9    2     -0.61      0.00
  -11    9    2     -0.86      0.00
  -10    9    2      0.09      0.00
   -9    9    2      0.90      0.00
   -8    9    2      2.10      0.00
   -7    9    2      0.25      0.00
   -6    9    2     -0.26      0.00
   -5    9    2      0.97      0.00
   -4    9    2      0.10      0.00
   -3    9    2     -0.56      0.00
   -2    9    2      0.39      0.00
   -1    9    2     -0.14      0.00
    0    9    2     -0.76      0.00
    1    9    2     -0.46      0.00
    2    9    2      1.08      0.00
    3    9    2     -0.32      0.00
    4    9    2     -0.03      0.00
    5    9    2      0.18      0.00
    6    9    2     -0.30      0.00
    7    9    2      1.05      0.00
    8    9    2      0.53      0.00
    9    9    2     -0.27      0.00
   10    9    2     -2.00      0.00
   11    9    2      0.09      0.00
   12    9    2      1.22      0.00
   13    9    2      0.58      0.00
   14    9    2      0.41      0.00
   15    9    2     -0.85      0.00
   16    9    2      0.57      0.00
   17    9    2      0.14      0.00
   18    9    2      0.15      0.00
   19    9    2      0.52      0.00
  -17   10    2     -0.53      0.00
  -16   10    2     -0.95      0.00
  -15   10    2      0.08      0.00
  -14   10    2      0.79      0.00
  -13   10    2     -0.67      0.00
  -12   10    2     -2.10      0.00
  -11   10    2      0.00      0.00
  -10   10    2      0.92      0.00
   -9   10    2      1.16      0.00
   -8   10    2      1.38      0.00
   -7   10    2      0.36      0.00
   -6   10    2     -0.06      0.00
   -5   10    2     -0.60      0.00
   -4   10    2      1.81      0.00
   -3   10    2      0.67      0.00
   -2   10    2      0.12      0.00
   -1   10    2     -1.84      0.00
    0   10    2     -0.97      0.00
    1   10    2      1.50      0.00
    2   10    2     -0.37      0.00
    3   10    2     -0.59      0.00
    4   10    2      0.60      0.00
    5   10    2      0.77      0.00
    6   10    2      1.13      0.00
    7   10    2      0.75      0.00
    8   10    2      0.78      0.00
    9   10    2     -0.45      0.00
   10   10    2     -0.43      0.00
   11   10    2     -0.84      0.00
   12   10    2      0.52      0.00
   13   10    2      0.73      0.00
   14   10    2     -0.15      0.00
   15   10    2      0.14      0.00
   16   10    2     -1.14      0.00
   17   10    2      1.15      0.00
  -15   11    2     -0.85      0.00
  -14   11    2     -0.31      0.00
  -13   11    2      0.32      0.00
  -12   11    2     -0.53      0.00
  -11   11    2     -0.48      0.00
  -10   11    2      1.94      0.00
   -9   11    2      1.06      0.00
   -8   11    2     -1.01      0.00
   -7   11    2      0.62      0.00
   -6   11    2     -0.22      0.00
   -5   11    2      0.58      0.00
   -4   11    2      1.21      0.00
   -3   11    2      2.65      0.00
   -2   11    2     -2.27      0.00
   -1   11    2     -0.66      0.00
    0   11    2     -0.31      0.00
    1   11    2     -0.22      0.00
    2   11    2      1.41      0.00
    3   11    2     -0.46      0.00
    4   11    2     -0.71      0.00
    5   11    2      1.54      0.00
    6   11    2      1.07      0.00
    7   11    2      0.82      0.00
    8   11    2      0.89      0.00
    9   11    2      0.27      0.00
   10   11    2     -1.22      0.00
   11   11    2     -0.21      0.00
   12   11    2     -0.57      0.00
   13   11    2      0.95      0.00
   14   11    2      0.68      0.00
   15   11    2     -1.61      0.00
  -11   12    2     -0.50      0.00
  -10   12    2     -0.22      0.00
   -9   12    2      0.89      0.00
   -8   12    2      0.81      0.00
   -7   12    2     -1.06      0.00
   -6   12    2     -0.14      0.00
   -5   12    2      0.67      0.00
   -4   12    2      1.31      0.00
   -3   12    2      0.15      0.00
   -2   12    2      2.25      0.00
   -1   12    2     -2.64      0.00
    0   12    2      0.13      0.00
    1   12    2      1.18      0.00
    2   12    2     -0.43      0.00
    3   12    2      0.25      0.00
    4   12    2      0.47      0.00
    5   12    2      0.23      0.00
    6   12    2      0.27      0.00
    7   12    2      0.27      0.00
    8   12    2      1.30      0.00
    9   12    2      0.61      0.00
   10   12    2     -0.48      0.00
   11   12    2     -1.94      0.00
   -7   13    2      0.45      0.00
   -6   13    2      0.76      0.00
   -5   13    2     -0.86      0.00
   -4   13    2     -0.28      0.00
   -3   13    2      2.53      0.00
   -2   13    2     -0.13      0.00
   -1   13    2      1.36      0.00
    0   13    2     -1.44      0.00
    1   13    2      0.13      0.00
    2   13    2      0.68      0.00
    3   13    2      0.38      0.00
    4   13    2      0.42      0.00
    5   13    2     -0.17      0.00
    6   13    2      0.07      0.00
  -25    0    3      0.59      0.00
  -23    0    3     -1.12      0.00
  -21    0    3     -0.56      0.00
  -19    0    3     -0.45      0.00
  -17    0    3      0.67      0.00
  -15    0    3      0.11      0.00
  -13    0    3     -0.19      0.00
  -11    0    3      0.03      0.00
   -9    0    3    -14.89      0.00
   -7    0    3     27.23      0.00
   -5    0    3    -22.72      0.00
   -3    0    3     -7.86      0.00
   -1    0    3     24.97      0.00
    1    0    3     58.12      0.00
    3    0    3    -18.16      0.00
    5    0    3     10.46      0.00
    7    0    3      0.73      0.00
    9    0    3     -5.52      0.00
   11    0    3      2.66      0.00
   13    0    3     -2.81      0.00
   15    0    3      0.70      0.00
   17    0    3     -1.09      0.00
   19    0    3      0.17      0.00
   21    0    3      1.60      0.00
   23    0    3     -1.36      0.00
   25    0    3      0.89      0.00
  -25    1    3      1.05      0.00
  -24    1    3      2.09      0.00
  -23    1    3     -0.98      0.00
  -22    1    3     -2.27      0.00
  -21    1    3      0.24      0.00
  -20    1    3      0.12      0.00
  -19    1    3     -0.08      0.00
  -18    1    3      1.19      0.00
  -17    1    3     -0.85      0.00
  -16    1    3     -2.55      0.00
  -15    1    3      0.31      0.00
  -14    1    3      3.63      0.00
  -13    1    3      0.81      0.00
  -12    1    3     -3.68      0.00
  -11    1    3     -0.76      0.00
  -10    1    3     -3.11      0.00
   -9    1    3      1.93      0.00
   -8    1    3     -0.39      0.00
   -7    1    3     -1.22      0.00
   -6    1    3     11.97      0.00
   -5    1    3     -2.86      0.00
   -4    1    3    -15.98      0.00
   -3    1    3     -9.53      0.00
   -2    1    3    -13.85      0.00
   -1    1    3     -2.03      0.00
    0    1    3     78.04      0.00
    1    1    3     12.91      0.00
    2    1    3    -22.22      0.00
    3    1    3    -19.92      0.00
    4    1    3     22.40      0.00
    5    1    3     15.37      0.00
    6    1    3     -8.91      0.00
    7    1    3      2.99      0.00
    8    1    3      4.46      0.00
    9    1    3     -2.80      0.00
   10    1    3     -4.17      0.00
   11    1    3      0.14      0.00
   12    1    3      1.09      0.00
   13    1    3      1.45      0.00
   14    1    3     -0.79      0.00
   15    1    3     -1.02      0.00
   16    1    3     -1.22      0.00
   17    1    3     -0.40      0.00
   18    1    3      0.69      0.00
   19    1    3     -0.21      0.00
   20    1    3     -0.09      0.00
   21    1    3      0.52      0.00
   22    1    3      0.38      0.00
   23    1    3     -0.51      0.00
   24    1    3      0.06      0.00
   25    1    3      1.57      0.00
  -25    2    3     -2.01      0.00
  -24    2    3      0.01      0.00
  -23    2    3      0.69      0.00
  -22    2    3     -0.04      0.00
  -21    2    3     -0.16      0.00
  -20    2    3      0.44      0.00
  -19    2    3     -0.28      0.00
  -18    2    3     -1.50      0.00
  -17    2    3     -0.43      0.00
  -16    2    3      0.62      0.00
  -15    2    3      0.81      0.00
  -14    2    3      1.36      0.00
  -13    2    3     -1.68      0.00
  -12    2    3     -1.17      0.00
  -11    2    3      0.32      0.00
  -10    2    3      1.31      0.00
   -9    2    3     -7.84      0.00
   -8    2    3     -0.74      0.00
   -7    2    3     20.53      0.00
   -6    2    3      1.19      0.00
   -5    2    3    -24.16      0.00
   -4    2    3    -13.82      0.00
   -3    2    3     15.25      0.00
   -2    2    3     -9.43      0.00
   -1    2    3     -0.72      0.00
    0    2    3     16.13      0.00
    1    2    3     33.64      0.00
    2    2    3    -14.69      0.00
    3    2    3     -9.88      0.00
    4    2    3      2.83      0.00
    5    2    3      8.18      0.00
    6    2    3     11.06      0.00
    7    2    3      0.57      0.00
    8    2    3      1.60      0.00
    9    2    3     -3.12      0.00
   10    2    3     -4.31      0.00
   11    2    3      2.54      0.00
   12    2    3      2.95      0.00
   13    2    3     -2.50      0.00
   14    2    3      0.37      0.00
   15    2    3     -0.12      0.00
   16    2    3     -1.33      0.00
   17    2    3      0.14      0.00
   18    2    3     -0.39      0.00
   19    2    3     -0.32      0.00
   20    2    3      0.25      0.00
   21    2    3      0.42      0.00
   22    2    3     -0.65      0.00
   23    2    3     -0.52      0.00
   24    2    3      1.28      0.00
   25    2    3      1.80      0.00
  -25    3    3      0.42      0.00
  -24    3    3     -0.81      0.00
  -23    3    3      0.50      0.00
  -22    3    3      0.63      0.00
  -21    3    3      0.08      0.00
  -20    3    3     -1.05      0.00
  -19    3    3     -0.97      0.00
  -18    3    3      0.29      0.00
  -17    3    3      0.79      0.00
  -16    3    3     -0.83      0.00
  -15    3    3     -0.05      0.00
  -14    3    3      1.93      0.00
  -13    3    3      1.72      0.00
  -12    3    3     -4.21      0.00
  -11    3    3     -2.22      0.00
  -10    3    3      1.12      0.00
   -9    3    3      2.02      0.00
   -8    3    3      3.19      0.00
   -7    3    3     -1.99      0.00
   -6    3    3     -0.46      0.00
   -5    3    3     -2.65      0.00
   -4    3    3     -1.48      0.00
   -3    3    3    -12.59      0.00
   -2    3    3      0.99      0.00
   -1    3    3     -0.75      0.00
    0    3    3     16.16      0.00
    1    3    3     11.02      0.00
    2    3    3     -8.93      0.00
    3    3    3    -16.63      0.00
    4    3    3     12.18      0.00
    5    3    3     14.19      0.00
    6    3    3     -4.09      0.00
    7    3    3      3.13      0.00
    8    3    3      3.01      0.00
    9    3    3     -1.82      0.00
   10    3    3     -1.57      0.00
   11    3    3     -0.06      0.00
   12    3    3      0.59      0.00
   13    3    3      1.83      0.00
   14    3    3     -0.87      0.00
   15    3    3     -0.45      0.00
   16    3    3     -1.31      0.00
   17    3    3     -0.24      0.00
   18    3    3      1.23      0.00
   19    3    3     -1.01      0.00
   20    3    3     -0.45      0.00
   21    3    3      0.46      0.00
   22    3    3      0.66      0.00
   23    3    3     -0.74      0.00
   24    3    3      0.08      0.00
   25    3    3      1.82      0.00
  -25    4    3     -1.97      0.00
  -24    4    3      0.78      0.00
  -23    4    3     -0.55      0.00
  -22    4    3     -0.09      0.00
  -21    4    3     -0.25      0.00
  -20    4    3     -0.85      0.00
  -19    4    3     -0.54      0.00
  -18    4    3      0.11      0.00
  -17    4    3     -0.66      0.00
  -16    4    3      1.43      0.00
  -15    4    3      1.63      0.00
  -14    4    3      0.28      0.00
  -13    4    3     -1.54      0.00
  -12    4    3     -1.61      0.00
  -11    4    3     -0.89      0.00
  -10    4    3      3.02      0.00
   -9    4    3      0.25      0.00
   -8    4    3     -4.62      0.00
   -7    4    3      6.75      0.00
   -6    4    3      2.82      0.00
   -5    4    3    -10.81      0.00
   -4    4    3     -9.11      0.00
   -3    4    3     12.16      0.00
   -2    4    3     -2.94      0.00
   -1    4    3     -5.66      0.00
    0    4    3      3.38      0.00
    1    4    3      5.59      0.00
    2    4    3     -2.78      0.00
    3    4    3     -3.62      0.00
    4    4    3      1.30      0.00
    5    4    3      4.20      0.00
    6    4    3      4.66      0.00
    7    4    3      0.15      0.00
    8    4    3      2.63      0.00
    9    4    3     -0.97      0.00
   10    4    3     -3.90      0.00
   11    4    3      1.49      0.00
   12    4    3      3.61      0.00
   13    4    3     -1.10      0.00
   14    4    3     -1.43      0.00
   15    4    3     -0.58      0.00
   16    4    3      0.72      0.00
   17    4    3     -0.83      0.00
   18    4    3     -0.46      0.00
   19    4    3      0.78      0.00
   20    4    3     -0.08      0.00
   21    4    3      1.45      0.00
   22    4    3      0.08      0.00
   23    4    3     -0.83      0.00
   24    4    3     -0.03      0.00
   25    4    3     -0.03      0.00
  -24    5    3     -1.47      0.00
  -23    5    3     -0.59      0.00
  -22    5    3     -0.24      0.00
  -21    5    3     -0.69      0.00
  -20    5    3     -0.90      0.00
  -19    5    3     -0.14      0.00
  -18    5    3     -0.37      0.00
  -17    5    3      1.97      0.00
  -16    5    3      0.02      0.00
  -15    5    3     -0.92      0.00
  -14    5    3      1.08      0.00
  -13    5    3      0.82      0.00
  -12    5    3     -1.96      0.00
  -11    5    3     -0.19      0.00
  -10    5    3      0.59      0.00
   -9    5    3     -0.03      0.00
   -8    5    3      3.06      0.00
   -7    5    3     -2.43      0.00
   -6    5    3     -2.97      0.00
   -5    5    3     -0.62      0.00
   -4    5    3      2.84      0.00
   -3    5    3     -2.78      0.00
   -2    5    3     -0.81      0.00
   -1    5    3     -2.93      0.00
    0    5    3      1.31      0.00
    1    5    3      3.92      0.00
    2    5    3     -3.51      0.00
    3    5    3     -3.46      0.00
    4    5    3      3.37      0.00
    5    5    3      4.55      0.00
    6    5    3     -2.54      0.00
    7    5    3      0.62      0.00
    8    5    3      2.48      0.00
    9    5    3      0.61      0.00
   10    5    3     -1.78      0.00
   11    5    3     -0.52      0.00
   12    5    3      2.02      0.00
   13    5    3     -0.03      0.00
   14    5    3     -1.32      0.00
   15    5    3      0.59      0.00
   16    5    3     -0.74      0.00
   17    5    3     -0.59      0.00
   18    5    3      0.61      0.00
   19    5    3      0.97      0.00
   20    5    3     -0.52      0.00
   21    5    3     -0.43      0.00
   22    5    3      2.65      0.00
   23    5    3      0.33      0.00
   24    5    3     -1.95      0.00
  -23    6    3     -1.91      0.00
  -22    6    3     -0.12      0.00
  -21    6    3      0.73      0.00
  -20    6    3     -0.66      0.00
  -19    6    3     -1.43      0.00
  -18    6    3      0.84      0.00
  -17    6    3     -0.55      0.00
  -16    6    3      1.64      0.00
  -15    6    3      1.01      0.00
  -14    6    3     -1.94      0.00
  -13    6    3     -0.32      0.00
  -12    6    3      1.38      0.00
  -11    6    3      0.38      0.00
  -10    6    3      0.56      0.00
   -9    6    3      0.22      0.00
   -8    6    3     -3.95      0.00
   -7    6    3      1.41      0.00
   -6    6    3      2.65      0.00
   -5    6    3     -2.09      0.00
   -4    6    3     -2.71      0.00
   -3    6    3      4.01      0.00
   -2    6    3      0.16      0.00
   -1    6    3     -5.00      0.00
    0    6    3     -0.89      0.00
    1    6    3      2.15      0.00
    2    6    3      1.01      0.00
    3    6    3     -2.08      0.00
    4    6    3      0.90      0.00
    5    6    3      0.58      0.00
    6    6    3     -1.60      0.00
    7    6    3     -1.54      0.00
    8    6    3      3.68      0.00
    9    6    3      1.46      0.00
   10    6    3     -2.94      0.00
   11    6    3     -0.49      0.00
   12    6    3      1.49      0.00
   13    6    3      0.72      0.00
   14    6    3     -0.76      0.00
   15    6    3      0.08      0.00
   16    6    3      0.56      0.00
   17    6    3     -0.43      0.00
   18    6    3     -0.09      0.00
   19    6    3     -0.02      0.00
   20    6    3      0.13      0.00
   21    6    3      0.21      0.00
   22    6    3      0.36      0.00
   23    6    3      1.08      0.00
  -22    7    3     -0.05      0.00
  -21    7    3      0.25      0.00
  -20    7    3     -0.83      0.00
  -19    7    3     -1.10      0.00
  -18    7    3     -0.62      0.00
  -17    7    3      1.31      0.00
  -16    7    3     -0.34      0.00
  -15    7    3     -0.04      0.00
  -14    7    3      0.96      0.00
  -13    7    3     -0.12      0.00
  -12    7    3      0.48      0.00
  -11    7    3     -0.48      0.00
  -10    7    3     -0.08      0.00
   -9    7    3      0.00      0.00
   -8    7    3     -0.05      0.00
   -7    7    3     -0.66      0.00
   -6    7    3      0.51      0.00
   -5    7    3      1.08      0.00
   -4    7    3      0.53      0.00
   -3    7    3      0.26      0.00
   -2    7    3     -2.00      0.00
   -1    7    3     -1.70      0.00
    0    7    3      0.56      0.00
    1    7    3      2.83      0.00
    2    7    3     -1.44      0.00
    3    7    3     -1.48      0.00
    4    7    3     -0.03      0.00
    5    7    3      0.58      0.00
    6    7    3     -1.43      0.00
    7    7    3     -1.20      0.00
    8    7    3      0.87      0.00
    9    7    3      0.70      0.00
   10    7    3     -0.73      0.00
   11    7    3     -0.75      0.00
   12    7    3      1.14      0.00
   13    7    3      0.42      0.00
   14    7    3      0.10      0.00
   15    7    3      0.05      0.00
   16    7    3      0.61      0.00
   17    7    3      0.61      0.00
   18    7    3      0.09      0.00
   19    7    3     -0.97      0.00
   20    7    3     -1.47      0.00
   21    7    3      0.58      0.00
  -21    8    3     -0.70      0.00
  -20    8    3     -1.10      0.00
  -19    8    3     -0.16      0.00
  -18    8    3     -0.59      0.00
  -17    8    3      0.22      0.00
  -16    8    3      1.39      0.00
  -15    8    3     -0.82      0.00
  -14    8    3     -1.23      0.00
  -13    8    3      1.48      0.00
  -12    8    3      0.30      0.00
  -11    8    3     -0.68      0.00
  -10    8    3     -0.90      0.00
   -9    8    3     -0.17      0.00
   -8    8    3      1.26      0.00
   -7    8    3      0.75      0.00
   -6    8    3      0.83      0.00
   -5    8    3      0.11      0.00
   -4    8    3     -0.08      0.00
   -3    8    3     -0.53      0.00
   -2    8    3      0.67      0.00
   -1    8    3     -1.35      0.00
    0    8    3     -0.42      0.00
    1    8    3      1.28      0.00
    2    8    3      1.36      0.00
    3    8    3     -1.73      0.00
    4    8    3     -0.16      0.00
    5    8    3     -0.48      0.00
    6    8    3     -1.41      0.00
    7    8    3      0.56      0.00
    8    8    3      0.98      0.00
    9    8    3      0.14      0.00
   10    8    3     -1.86      0.00
   11    8    3     -0.62      0.00
   12    8    3      1.24      0.00
   13    8    3      1.39      0.00
   14    8    3     -0.13      0.00
   15    8    3     -0.07      0.00
   16    8    3      0.81      0.00
   17    8    3      0.23      0.00
   18    8    3     -0.46      0.00
   19    8    3     -0.17      0.00
   20    8    3     -0.15      0.00
  -19    9    3     -0.94      0.00
  -18    9    3      0.35      0.00
  -17    9    3     -0.14      0.00
  -16    9    3     -0.19      0.00
  -15    9    3      0.58      0.00
  -14    9    3      0.24      0.00
  -13    9    3     -0.69      0.00
  -12    9    3     -1.06      0.00
  -11    9    3     -0.89      0.00
  -10    9    3     -0.11      0.00
   -9    9    3      1.47      0.00
   -8    9    3      1.51      0.00
   -7    9    3      1.11      0.00
   -6    9    3     -0.33      0.00
   -5    9    3     -0.35      0.00
   -4    9    3      0.80      0.00
   -3    9    3      0.45      0.00
   -2    9    3     -0.63      0.00
   -1    9    3      0.00      0.00
    0    9    3     -0.51      0.00
    1    9    3      0.11      0.00
    2    9    3      0.37      0.00
    3    9    3      0.51      0.00
    4    9    3     -1.23      0.00
    5    9    3     -0.02      0.00
    6    9    3      1.15      0.00
    7    9    3      0.26      0.00
    8    9    3      0.64      0.00
    9    9    3     -0.20      0.00
   10    9    3     -0.90      0.00
   11    9    3     -0.90      0.00
   12    9    3      1.19      0.00
   13    9    3      1.23      0.00
   14    9    3     -0.14      0.00
   15    9    3     -0.11      0.00
   16    9    3     -0.39      0.00
   17    9    3      0.80      0.00
   18    9    3      0.61      0.00
   19    9    3     -0.09      0.00
  -17   10    3      1.26      0.00
  -16   10    3     -0.30      0.00
  -15   10    3     -0.93      0.00
  -14   10    3     -0.03      0.00
  -13   10    3     -0.54      0.00
  -12   10    3     -0.67      0.00
  -11   10    3     -0.61      0.00
  -10   10    3      0.84      0.00
   -9   10    3      1.56      0.00
   -8   10    3      0.98      0.00
   -7   10    3      0.11      0.00
   -6   10    3     -0.86      0.00
   -5   10    3      1.14      0.00
   -4   10    3      1.35      0.00
   -3   10    3      0.83      0.00
   -2   10    3     -1.43      0.00
   -1   10    3      0.17      0.00
    0   10    3      0.11      0.00
    1   10    3     -1.64      0.00
    2   10    3      0.52      0.00
    3   10    3      0.62      0.00
    4   10    3     -0.27      0.00
    5   10    3      0.65      0.00
    6   10    3      0.87      0.00
    7   10    3      0.67      0.00
    8   10    3      0.97      0.00
    9   10    3      0.10      0.00
   10   10    3     -0.88      0.00
   11   10    3      0.21      0.00
   12   10    3     -0.30      0.00
   13   10    3      0.85      0.00
   14   10    3      0.77      0.00
   15   10    3     -1.63      0.00
   16   10    3      0.14      0.00
   17   10    3      1.12      0.00
  -15   11    3     -0.69      0.00
  -14   11    3      0.45      0.00
  -13   11    3      0.58      0.00
  -12   11    3     -1.23      0.00
  -11   11    3     -0.52      0.00
  -10   11    3      0.88      0.00
   -9   11    3      1.17      0.00
   -8   11    3      1.51      0.00
   -7   11    3     -0.74      0.00
   -6   11    3     -0.81      0.00
   -5   11    3      0.05      0.00
   -4   11    3      2.14      0.00
   -3   11    3      0.68      0.00
   -2   11    3      1.79      0.00
   -1   11    3     -2.60      0.00
    0   11    3     -0.91      0.00
    1   11    3      1.63      0.00
    2   11    3     -0.59      0.00
    3   11    3     -1.09      0.00
    4   11    3      0.52      0.00
    5   11    3      1.06      0.00
    6   11    3      0.65      0.00
    7   11    3      0.76      0.00
    8   11    3      1.01      0.00
    9   11    3      0.64      0.00
   10   11    3     -0.58      0.00
   11   11    3     -1.63      0.00
   12   11    3      1.03      0.00
   13   11    3      0.65      0.00
   14   11    3     -0.54      0.00
   15   11    3     -0.34      0.00
  -12   12    3     -0.60      0.00
  -11   12    3      0.13      0.00
  -10   12    3      0.93      0.00
   -9   12    3      0.54      0.00
   -8   12    3     -0.97      0.00
   -7   12    3      0.16      0.00
   -6   12    3      0.33      0.00
   -5   12    3     -0.61      0.00
   -4   12    3     -0.29      0.00
   -3   12    3      3.60      0.00
   -2   12    3      0.18      0.00
   -1   12    3      0.52      0.00
    0   12    3     -2.11      0.00
    1   12    3      0.50      0.00
    2   12    3      0.83      0.00
    3   12    3     -1.27      0.00
    4   12    3     -0.14      0.00
    5   12    3      0.94      0.00
    6   12    3      1.17      0.00
    7   12    3      0.13      0.00
    8   12    3     -0.10      0.00
    9   12    3      0.81      0.00
   10   12    3     -0.25      0.00
   11   12    3     -0.40      0.00
   -7   13    3     -0.64      0.00
   -5   13    3      0.25      0.00
   -4   13    3      0.83      0.00
   -3   13    3      0.16      0.00
   -2   13    3      2.34      0.00
   -1   13    3     -0.92      0.00
    0   13    3      1.34      0.00
    1   13    3     -0.74      0.00
    2   13    3     -0.44      0.00
    3   13    3      0.09      0.00
    4   13    3     -0.24      0.00
    5   13    3      1.07      0.00
    6   13    3      0.03      0.00
  -24    0    4      3.18      0.00
  -22    0    4     -2.97      0.00
  -20    0    4     -0.32      0.00
  -18    0    4      1.45      0.00
  -16    0    4     -2.28      0.00
  -14    0    4      4.06      0.00
  -12    0    4     -4.40      0.00
  -10    0    4     -1.88      0.00
   -8    0    4     -3.27      0.00
   -6    0    4     14.27      0.00
   -4    0    4    -22.61      0.00
   -2    0    4     -1.82      0.00
    4    0    4     24.68      0.00
    6    0    4     -9.73      0.00
    8    0    4      2.40      0.00
   10    0    4     -2.39      0.00
   12    0    4      0.41      0.00
   14    0    4     -0.62      0.00
   16    0    4     -1.41      0.00
   18    0    4      0.53      0.00
   20    0    4      0.21      0.00
   22    0    4      0.90      0.00
   24    0    4     -0.71      0.00
  -25    1    4     -1.07      0.00
  -24    1    4     -0.14      0.00
  -23    1    4      0.49      0.00
  -22    1    4      0.15      0.00
  -21    1    4     -0.86      0.00
  -20    1    4     -0.03      0.00
  -19    1    4     -0.25      0.00
  -18    1    4     -0.84      0.00
  -17    1    4      0.34      0.00
  -16    1    4     -0.23      0.00
  -15    1    4      0.19      0.00
  -14    1    4      1.34      0.00
  -13    1    4     -0.38      0.00
  -12    1    4     -0.57      0.00
  -11    1    4     -0.56      0.00
  -10    1    4     -0.05      0.00
   -9    1    4    -10.15      0.00
   -8    1    4      1.17      0.00
   -7    1    4     21.86      0.00
   -6    1    4      0.99      0.00
   -5    1    4    -25.16      0.00
   -4    1    4     -9.33      0.00
   -3    1    4      9.89      0.00
   -2    1    4     -8.25      0.00
   -1    1    4      5.24      0.00
    0    1    4     12.14      0.00
    2    1    4    -12.29      0.00
    3    1    4     -6.45      0.00
    4    1    4      3.50      0.00
    5    1    4     11.70      0.00
    6    1    4      5.83      0.00
    7    1    4     -3.69      0.00
    8    1    4      1.51      0.00
    9    1    4     -2.23      0.00
   10    1    4     -2.08      0.00
   11    1    4      2.57      0.00
   12    1    4      1.01      0.00
   13    1    4     -2.91      0.00
   14    1    4      0.72      0.00
   15    1    4      0.49      0.00
   16    1    4     -1.25      0.00
   17    1    4     -0.72      0.00
   18    1    4     -0.15      0.00
   19    1    4      0.11      0.00
   20    1    4      0.26      0.00
   21    1    4      0.79      0.00
   22    1    4     -0.39      0.00
   23    1    4     -0.72      0.00
   24    1    4      1.07      0.00
   25    1    4      1.61      0.00
  -25    2    4      0.25      0.00
  -24    2    4     -0.11      0.00
  -23    2    4      0.53      0.00
  -22    2    4     -0.26      0.00
  -21    2    4     -0.01      0.00
  -20    2    4      0.41      0.00
  -19    2    4     -0.62      0.00
  -18    2    4     -0.02      0.00
  -17    2    4     -0.14      0.00
  -16    2    4     -1.89      0.00
  -15    2    4     -0.22      0.00
  -14    2    4      3.44      0.00
  -13    2    4      2.60      0.00
  -12    2    4     -5.08      0.00
  -11    2    4     -2.40      0.00
  -10    2    4      1.07      0.00
   -9    2    4      1.51      0.00
   -8    2    4     -0.62      0.00
   -7    2    4      0.59      0.00
   -6    2    4      7.40      0.00
   -5    2    4     -2.38      0.00
   -4    2    4    -11.54      0.00
   -3    2    4    -17.94      0.00
   -2    2    4      3.31      0.00
   -1    2    4      1.89      0.00
    0    2    4     28.62      0.00
    1    2    4     11.07      0.00
    2    2    4     -9.03      0.00
    3    2    4    -21.48      0.00
    4    2    4     19.60      0.00
    5    2    4     17.35      0.00
    6    2    4     -7.06      0.00
    7    2    4      2.12      0.00
    8    2    4      2.72      0.00
    9    2    4     -0.97      0.00
   10    2    4     -1.77      0.00
   11    2    4     -0.52      0.00
   12    2    4      1.21      0.00
   13    2    4      1.85      0.00
   14    2    4     -1.26      0.00
   15    2    4     -0.41      0.00
   16    2    4     -1.21      0.00
   17    2    4     -0.91      0.00
   18    2    4      1.42      0.00
   19    2    4     -0.35      0.00
   20    2    4     -0.94      0.00
   21    2    4      0.14      0.00
   22    2    4      0.16      0.00
   23    2    4     -0.32      0.00
   24    2    4      1.11      0.00
   25    2    4      1.86      0.00
  -25    3    4     -2.88      0.00
  -24    3    4      0.86      0.00
  -23    3    4      0.02      0.00
  -22    3    4      0.63      0.00
  -21    3    4      0.85      0.00
  -20    3    4     -0.80      0.00
  -19    3    4     -1.13      0.00
  -18    3    4     -0.46      0.00
  -17    3    4     -0.53      0.00
  -16    3    4      0.84      0.00
  -15    3    4      1.11      0.00
  -14    3    4      1.09      0.00
  -13    3    4     -0.82      0.00
  -12    3    4     -0.77      0.00
  -11    3    4     -1.44      0.00
  -10    3    4      1.05      0.00
   -9    3    4     -1.50      0.00
   -8    3    4     -2.63      0.00
   -7    3    4     11.20      0.00
   -6    3    4      5.29      0.00
   -5    3    4    -16.12      0.00
   -4    3    4    -16.02      0.00
   -3    3    4     15.96      0.00
   -2    3    4     -4.87      0.00
   -1    3    4     -6.40      0.00
    0    3    4      9.13      0.00
    1    3    4     13.73      0.00
    2    3    4     -9.21      0.00
    3    3    4     -6.45      0.00
    4    3    4      1.02      0.00
    5    3    4     10.36      0.00
    6    3    4      8.21      0.00
    7    3    4     -2.90      0.00
    8    3    4      1.55      0.00
    9    3    4     -0.88      0.00
   10    3    4     -3.16      0.00
   11    3    4      2.51      0.00
   12    3    4      3.06      0.00
   13    3    4     -1.92      0.00
   14    3    4     -0.47      0.00
   15    3    4     -0.53      0.00
   16    3    4      0.20      0.00
   17    3    4      0.16      0.00
   18    3    4     -1.02      0.00
   19    3    4     -0.04      0.00
   20    3    4      0.06      0.00
   21    3    4      0.71      0.00
   22    3    4     -0.47      0.00
   23    3    4     -0.27      0.00
   24    3    4      0.59      0.00
   25    3    4      0.88      0.00
  -25    4    4      1.07      0.00
  -24    4    4     -1.98      0.00
  -23    4    4      0.00      0.00
  -22    4    4      0.79      0.00
  -21    4    4     -0.31      0.00
  -20    4    4     -1.22      0.00
  -19    4    4     -0.83      0.00
  -18    4    4     -0.79      0.00
  -17    4    4      1.73      0.00
  -16    4    4      0.33      0.00
  -15    4    4     -0.60      0.00
  -14    4    4      1.85      0.00
  -13    4    4      1.55      0.00
  -12    4    4     -3.68      0.00
  -11    4    4     -1.32      0.00
  -10    4    4      1.69      0.00
   -9    4    4      0.76      0.00
   -8    4    4      2.50      0.00
   -7    4    4     -1.39      0.00
   -6    4    4     -1.18      0.00
   -5    4    4     -1.74      0.00
   -4    4    4     -0.28      0.00
   -3    4    4     -8.13      0.00
   -2    4    4      2.74      0.00
   -1    4    4     -1.06      0.00
    0    4    4      3.47      0.00
    1    4    4      6.09      0.00
    2    4    4     -6.05      0.00
    3    4    4    -10.14      0.00
    4    4    4      6.65      0.00
    5    4    4      9.80      0.00
    6    4    4     -1.10      0.00
    7    4    4      0.89      0.00
    8    4    4      0.69      0.00
    9    4    4     -0.40      0.00
   10    4    4     -0.42      0.00
   11    4    4      0.16      0.00
   12    4    4      0.91      0.00
   13    4    4      0.71      0.00
   14    4    4     -0.85      0.00
   15    4    4     -0.04      0.00
   16    4    4     -0.90      0.00
   17    4    4      0.00      0.00
   18    4    4      0.40      0.00
   19    4    4     -0.27      0.00
   20    4    4     -0.05      0.00
   21    4    4      0.16      0.00
   22    4    4      2.40      0.00
   23    4    4     -0.51      0.00
   24    4    4     -1.79      0.00
   25    4    4      1.28      0.00
  -24    5    4      0.01      0.00
  -23    5    4     -2.28      0.00
  -22    5    4     -0.50      0.00
  -21    5    4      1.45      0.00
  -20    5    4     -0.55      0.00
  -19    5    4     -2.28      0.00
  -18    5    4      0.32      0.00
  -17    5    4     -0.39      0.00
  -16    5    4      2.32      0.00
  -15    5    4      1.93      0.00
  -14    5    4     -1.49      0.00
  -13    5    4     -1.16      0.00
  -12    5    4      0.33      0.00
  -11    5    4     -0.55      0.00
  -10    5    4      1.74      0.00
   -9    5    4      1.20      0.00
   -8    5    4     -4.24      0.00
   -7    5    4      2.75      0.00
   -6    5    4      2.24      0.00
   -5    5    4     -5.03      0.00
   -4    5    4     -5.50      0.00
   -3    5    4      7.51      0.00
   -2    5    4     -0.26      0.00
   -1    5    4     -5.81      0.00
    0    5    4     -0.51      0.00
    1    5    4      3.57      0.00
    2    5    4     -0.56      0.00
    3    5    4     -4.39      0.00
    4    5    4      0.61      0.00
    5    5    4      3.73      0.00
    6    5    4      2.76      0.00
    7    5    4     -1.99      0.00
    8    5    4      1.57      0.00
    9    5    4      0.94      0.00
   10    5    4     -2.36      0.00
   11    5    4      0.15      0.00
   12    5    4      2.27      0.00
   13    5    4      0.20      0.00
   14    5    4     -1.31      0.00
   15    5    4     -0.18      0.00
   16    5    4      0.42      0.00
   17    5    4     -0.82      0.00
   18    5    4      0.34      0.00
   19    5    4     -0.21      0.00
   20    5    4     -0.04      0.00
   21    5    4      2.10      0.00
   22    5    4      0.51      0.00
   23    5    4     -0.18      0.00
   24    5    4     -0.32      0.00
  -23    6    4     -0.79      0.00
  -22    6    4     -0.14      0.00
  -21    6    4      0.06      0.00
  -20    6    4     -0.16      0.00
  -19    6    4     -0.05      0.00
  -18    6    4     -1.87      0.00
  -17    6    4      1.09      0.00
  -16    6    4      0.58      0.00
  -15    6    4      0.52      0.00
  -14    6    4      0.89      0.00
  -13    6    4     -0.24      0.00
  -12    6    4     -0.74      0.00
  -11    6    4      0.03      0.00
  -10    6    4      1.13      0.00
   -9    6    4     -0.29      0.00
   -8    6    4      0.19      0.00
   -7    6    4     -2.16      0.00
   -6    6    4      0.11      0.00
   -5    6    4      0.48      0.00
   -4    6    4      1.32      0.00
   -3    6    4     -0.49      0.00
   -2    6    4     -1.11      0.00
   -1    6    4     -2.32      0.00
    0    6    4     -0.45      0.00
    1    6    4      2.85      0.00
    2    6    4     -1.54      0.00
    3    6    4     -2.94      0.00
    4    6    4      0.59      0.00
    5    6    4      3.49      0.00
    6    6    4     -1.47      0.00
    7    6    4     -1.67      0.00
    8    6    4      0.52      0.00
    9    6    4      1.55      0.00
   10    6    4     -0.53      0.00
   11    6    4     -0.78      0.00
   12    6    4      1.60      0.00
   13    6    4      0.04      0.00
   14    6    4     -0.65      0.00
   15    6    4      0.10      0.00
   16    6    4      0.61      0.00
   17    6    4     -0.06      0.00
   18    6    4     -0.48      0.00
   19    6    4      0.28      0.00
   20    6    4     -0.83      0.00
   21    6    4      0.09      0.00
   22    6    4      2.76      0.00
   23    6    4      0.18      0.00
  -22    7    4     -0.01      0.00
  -21    7    4      0.27      0.00
  -20    7    4     -0.17      0.00
  -19    7    4     -1.02      0.00
  -18    7    4     -0.13      0.00
  -17    7    4     -0.74      0.00
  -16    7    4      1.25      0.00
  -15    7    4      0.45      0.00
  -14    7    4     -0.86      0.00
  -13    7    4      0.76      0.00
  -12    7    4      0.92      0.00
  -11    7    4      0.56      0.00
  -10    7    4     -0.94      0.00
   -9    7    4     -0.57      0.00
   -8    7    4     -1.14      0.00
   -7    7    4      0.75      0.00
   -6    7    4      1.39      0.00
   -5    7    4      0.00      0.00
   -4    7    4     -0.57      0.00
   -3    7    4      0.87      0.00
   -2    7    4      0.45      0.00
   -1    7    4     -3.30      0.00
    0    7    4     -0.43      0.00
    1    7    4      2.17      0.00
    2    7    4      1.42      0.00
    3    7    4     -2.42      0.00
    4    7    4     -0.28      0.00
    5    7    4     -0.15      0.00
    6    7    4     -1.46      0.00
    7    7    4     -0.78      0.00
    8    7    4      1.50      0.00
    9    7    4      0.68      0.00
   10    7    4     -1.58      0.00
   11    7    4     -0.40      0.00
   12    7    4      1.20      0.00
   13    7    4      1.03      0.00
   14    7    4     -0.69      0.00
   15    7    4      0.60      0.00
   16    7    4      0.48      0.00
   17    7    4      0.11      0.00
   18    7    4     -0.21      0.00
   19    7    4     -0.59      0.00
   20    7    4     -0.49      0.00
   21    7    4      0.06      0.00
  -21    8    4      0.61      0.00
  -20    8    4     -0.81      0.00
  -19    8    4     -1.72      0.00
  -18    8    4      0.14      0.00
  -17    8    4      0.53      0.00
  -16    8    4     -0.45      0.00
  -15    8    4      0.33      0.00
  -14    8    4      0.60      0.00
  -13    8    4      0.02      0.00
  -12    8    4      0.27      0.00
  -11    8    4     -0.93      0.00
  -10    8    4     -0.23      0.00
   -9    8    4      0.38      0.00
   -8    8    4      0.13      0.00
   -7    8    4      0.86      0.00
   -6    8    4      0.68      0.00
   -5    8    4      0.36      0.00
   -4    8    4     -0.26      0.00
   -3    8    4      0.41      0.00
   -2    8    4     -1.01      0.00
   -1    8    4     -0.19      0.00
    0    8    4     -0.24      0.00
    1    8    4      1.45      0.00
    2    8    4      0.52      0.00
    3    8    4     -0.37      0.00
    4    8    4     -2.02      0.00
    5    8    4      0.14      0.00
    6    8    4      0.28      0.00
    7    8    4     -0.70      0.00
    8    8    4      0.68      0.00
    9    8    4      0.10      0.00
   10    8    4     -0.81      0.00
   11    8    4     -0.44      0.00
   12    8    4      1.08      0.00
   13    8    4      0.97      0.00
   14    8    4      0.16      0.00
   15    8    4     -0.63      0.00
   16    8    4      0.77      0.00
   17    8    4      0.74      0.00
   18    8    4      0.13      0.00
   19    8    4     -0.74      0.00
   20    8    4     -1.18      0.00
  -19    9    4      0.27      0.00
  -18    9    4     -0.47      0.00
  -17    9    4      1.08      0.00
  -16    9    4      0.38      0.00
  -15    9    4     -1.07      0.00
  -14    9    4     -0.32      0.00
  -13    9    4      0.14      0.00
  -12    9    4      0.06      0.00
  -11    9    4     -0.56      0.00
  -10    9    4     -0.75      0.00
   -9    9    4      0.83      0.00
   -8    9    4      2.07      0.00
   -7    9    4      0.00      0.00
   -6    9    4     -0.02      0.00
   -5    9    4      1.16      0.00
   -4    9    4      0.16      0.00
   -3    9    4     -0.84      0.00
   -2    9    4      0.58      0.00
   -1    9    4      0.05      0.00
    0    9    4     -0.30      0.00
    1    9    4     -0.74      0.00
    2    9    4      0.60      0.00
    3    9    4      0.36      0.00
    4    9    4      0.41      0.00
    5    9    4     -0.82      0.00
    6    9    4     -0.34      0.00
    7    9    4      0.87      0.00
    8    9    4      0.93      0.00
    9    9    4      0.35      0.00
   10    9    4     -0.59      0.00
   11    9    4     -0.35      0.00
   12    9    4      0.06      0.00
   13    9    4      1.28      0.00
   14    9    4      0.67      0.00
   15    9    4     -0.77      0.00
   16    9    4     -0.21      0.00
   17    9    4      1.00      0.00
   18    9    4      0.75      0.00
   19    9    4     -0.37      0.00
  -17   10    4     -0.36      0.00
  -16   10    4      1.08      0.00
  -15   10    4      0.30      0.00
  -14   10    4     -0.67      0.00
  -13   10    4      0.09      0.00
  -12   10    4     -1.22      0.00
  -11   10    4     -0.83      0.00
  -10   10    4      0.50      0.00
   -9   10    4      1.40      0.00
   -8   10    4      2.04      0.00
   -7   10    4      0.43      0.00
   -6   10    4     -1.05      0.00
   -5   10    4     -0.47      0.00
   -4   10    4      1.81      0.00
   -3   10    4      0.60      0.00
   -2   10    4      0.55      0.00
   -1   10    4     -0.54      0.00
    0   10    4     -1.15      0.00
    1   10    4      0.05      0.00
    2   10    4     -0.13      0.00
    3   10    4     -0.06      0.00
    4   10    4      0.09      0.00
    5   10    4      0.47      0.00
    6   10    4      0.67      0.00
    7   10    4      0.94      0.00
    8   10    4      0.46      0.00
    9   10    4      0.81      0.00
   10   10    4     -0.50      0.00
   11   10    4     -1.07      0.00
   12   10    4      1.68      0.00
   13   10    4      0.61      0.00
   14   10    4     -0.95      0.00
   15   10    4     -0.25      0.00
   16   10    4      0.20      0.00
   17   10    4      1.04      0.00
  -14   11    4      0.66      0.00
  -13   11    4     -0.19      0.00
  -12   11    4     -0.76      0.00
  -11   11    4     -0.10      0.00
  -10   11    4      0.95      0.00
   -9   11    4      1.15      0.00
   -8   11    4     -0.15      0.00
   -7   11    4      0.79      0.00
   -6   11    4     -0.66      0.00
   -5   11    4     -0.81      0.00
   -4   11    4      0.89      0.00
   -3   11    4      3.30      0.00
   -2   11    4     -0.88      0.00
   -1   11    4      0.24      0.00
    0   11    4     -0.62      0.00
    1   11    4     -0.86      0.00
    2   11    4      0.13      0.00
    3   11    4     -0.44      0.00
    4   11    4     -0.69      0.00
    5   11    4      0.82      0.00
    6   11    4      1.87      0.00
    7   11    4      0.24      0.00
    8   11    4      0.26      0.00
    9   11    4      0.19      0.00
   10   11    4      0.22      0.00
   11   11    4      0.34      0.00
   12   11    4     -0.99      0.00
   13   11    4      1.00      0.00
   14   11    4      0.45      0.00
   15   11    4     -1.63      0.00
  -11   12    4     -1.36      0.00
  -10   12    4      0.38      0.00
   -9   12    4      0.79      0.00
   -8   12    4      0.90      0.00
   -7   12    4     -0.86      0.00
   -6   12    4     -1.35      0.00
   -5   12    4     -0.22      0.00
   -4   12    4      1.55      0.00
   -3   12    4      0.69      0.00
   -2   12    4      2.84      0.00
   -1   12    4     -1.50      0.00
    0   12    4      0.49      0.00
    1   12    4     -0.07      0.00
    2   12    4     -0.51      0.00
    3   12    4     -1.31      0.00
    4   12    4     -0.83      0.00
    5   12    4      1.85      0.00
    6   12    4      0.53      0.00
    7   12    4      0.11      0.00
    8   12    4      0.58      0.00
    9   12    4      0.27      0.00
   10   12    4     -0.02      0.00
   11   12    4     -0.86      0.00
   -7   13    4     -1.43      0.00
   -5   13    4     -0.27      0.00
   -4   13    4     -0.36      0.00
   -3   13    4      2.79      0.00
   -2   13    4      1.24      0.00
   -1   13    4      1.13      0.00
    0   13    4     -2.25      0.00
    1   13    4      1.26      0.00
    2   13    4     -0.21      0.00
    3   13    4     -1.02      0.00
    4   13    4      0.35      0.00
    5   13    4     -0.46      0.00
  -25    0    5     -1.50      0.00
  -23    0    5      1.49      0.00
  -21    0    5     -1.65      0.00
  -19    0    5     -0.65      0.00
  -17    0    5      1.16      0.00
  -15    0    5     -0.28      0.00
  -13    0    5      0.73      0.00
  -11    0    5     -1.92      0.00
   -9    0    5     -8.22      0.00
   -7    0    5     18.06      0.00
   -5    0    5    -25.46      0.00
   -3    0    5     12.63      0.00
   -1    0    5      5.64      0.00
    1    0    5     29.99      0.00
    3    0    5      8.46      0.00
    5    0    5     10.98      0.00
    7    0    5     -7.31      0.00
    9    0    5      0.07      0.00
   11    0    5      2.26      0.00
   13    0    5     -3.42      0.00
   15    0    5      0.93      0.00
   17    0    5     -1.45      0.00
   19    0    5      0.92      0.00
   21    0    5      0.41      0.00
   23    0    5     -0.29      0.00
   25    0    5      1.04      0.00
  -25    1    5      1.06      0.00
  -24    1    5      1.40      0.00
  -23    1    5     -0.74      0.00
  -22    1    5     -1.41      0.00
  -21    1    5      0.65      0.00
  -20    1    5      0.25      0.00
  -19    1    5     -0.64      0.00
  -18    1    5      0.54      0.00
  -17    1    5     -0.21      0.00
  -16    1    5     -2.12      0.00
  -15    1    5     -0.48      0.00
  -14    1    5      4.23      0.00
  -13    1    5      1.97      0.00
  -12    1    5     -5.46      0.00
  -11    1    5     -1.20      0.00
  -10    1    5      1.34      0.00
   -9    1    5      0.19      0.00
   -8    1    5     -4.59      0.00
   -7    1    5      1.15      0.00
   -6    1    5     11.82      0.00
   -5    1    5      1.31      0.00
   -4    1    5    -20.58      0.00
   -3    1    5    -16.80      0.00
   -2    1    5     12.12      0.00
   -1    1    5      4.97      0.00
    0    1    5     25.16      0.00
    1    1    5      3.42      0.00
    2    1    5     -0.01      0.00
    3    1    5    -12.83      0.00
    4    1    5     25.59      0.00
    5    1    5     11.70      0.00
    6    1    5     -9.81      0.00
    7    1    5     -0.03      0.00
    8    1    5      1.46      0.00
    9    1    5      0.16      0.00
   10    1    5     -0.58      0.00
   11    1    5     -0.26      0.00
   12    1    5      0.54      0.00
   13    1    5      0.93      0.00
   14    1    5     -1.19      0.00
   15    1    5     -0.12      0.00
   16    1    5     -1.23      0.00
   17    1    5     -1.16      0.00
   18    1    5      1.03      0.00
   19    1    5      0.71      0.00
   20    1    5     -0.47      0.00
   21    1    5     -0.73      0.00
   22    1    5      0.39      0.00
   23    1    5      0.56      0.00
   24    1    5      0.43      0.00
   25    1    5      0.99      0.00
  -25    2    5     -2.14      0.00
  -24    2    5      0.55      0.00
  -23    2    5      0.06      0.00
  -22    2    5      0.62      0.00
  -21    2    5      0.74      0.00
  -20    2    5     -0.42      0.00
  -19    2    5     -0.31      0.00
  -18    2    5     -0.79      0.00
  -17    2    5     -0.41      0.00
  -16    2    5      0.07      0.00
  -15    2    5      0.08      0.00
  -14    2    5      1.48      0.00
  -13    2    5     -0.05      0.00
  -12    2    5      0.17      0.00
  -11    2    5     -1.25      0.00
  -10    2    5     -0.72      0.00
   -9    2    5     -4.05      0.00
   -8    2    5     -0.42      0.00
   -7    2    5     13.00      0.00
   -6    2    5      6.28      0.00
   -5    2    5    -18.63      0.00
   -4    2    5    -16.79      0.00
   -3    2    5     17.50      0.00
   -2    2    5     -8.46      0.00
   -1    2    5     -7.71      0.00
    0    2    5     12.69      0.00
    1    2    5     23.44      0.00
    2    2    5    -14.34      0.00
    3    2    5     -3.35      0.00
    4    2    5      3.47      0.00
    5    2    5     13.35      0.00
    6    2    5      7.09      0.00
    7    2    5     -5.75      0.00
    8    2    5      1.25      0.00
    9    2    5     -0.42      0.00
   10    2    5     -1.78      0.00
   11    2    5      3.06      0.00
   12    2    5      1.88      0.00
   13    2    5     -2.62      0.00
   14    2    5      0.12      0.00
   15    2    5      0.10      0.00
   16    2    5     -0.40      0.00
   17    2    5     -0.26      0.00
   18    2    5     -0.87      0.00
   19    2    5      0.16      0.00
   20    2    5      0.18      0.00
   21    2    5     -0.03      0.00
   22    2    5     -0.48      0.00
   23    2    5     -0.36      0.00
   24    2    5      0.97      0.00
   25    2    5      2.22      0.00
  -25    3    5      0.15      0.00
  -24    3    5     -1.90      0.00
  -23    3    5      1.17      0.00
  -22    3    5      0.71      0.00
  -21    3    5     -0.23      0.00
  -20    3    5      0.34      0.00
  -19    3    5     -0.96      0.00
  -18    3    5     -1.29      0.00
  -17    3    5      0.97      0.00
  -16    3    5     -0.31      0.00
  -15    3    5     -0.65      0.00
  -14    3    5      2.38      0.00
  -13    3    5      2.82      0.00
  -12    3    5     -4.24      0.00
  -11    3    5     -2.25      0.00
  -10    3    5      2.29      0.00
   -9    3    5      0.65      0.00
   -8    3    5      0.11      0.00
   -7    3    5      1.21      0.00
   -6    3    5      3.03      0.00
   -5    3    5     -2.26      0.00
   -4    3    5     -4.80      0.00
   -3    3    5    -14.99      0.00
   -2    3    5      5.86      0.00
   -1    3    5      1.71      0.00
    0    3    5      5.94      0.00
    1    3    5      7.07      0.00
    2    3    5     -4.61      0.00
    3    3    5    -16.25      0.00
    4    3    5     11.18      0.00
    5    3    5     14.08      0.00
    6    3    5     -1.90      0.00
    7    3    5     -0.29      0.00
    8    3    5      0.36      0.00
    9    3    5      0.85      0.00
   10    3    5     -0.32      0.00
   11    3    5     -0.29      0.00
   12    3    5      1.10      0.00
   13    3    5      1.13      0.00
   14    3    5     -0.78      0.00
   15    3    5     -0.03      0.00
   16    3    5     -1.05      0.00
   17    3    5     -0.20      0.00
   18    3    5      0.88      0.00
   19    3    5     -0.92      0.00
   20    3    5     -0.35      0.00
   21    3    5      0.36      0.00
   22    3    5      0.72      0.00
   23    3    5     -0.84      0.00
   24    3    5      0.27      0.00
   25    3    5      2.00      0.00
  -25    4    5     -2.01      0.00
  -24    4    5      0.48      0.00
  -23    4    5     -1.32      0.00
  -22    4    5      0.38      0.00
  -21    4    5      1.78      0.00
  -20    4    5     -1.11      0.00
  -19    4    5     -2.53      0.00
  -18    4    5      0.05      0.00
  -17    4    5     -0.52      0.00
  -16    4    5      1.94      0.00
  -15    4    5      2.15      0.00
  -14    4    5     -0.59      0.00
  -13    4    5     -0.72      0.00
  -12    4    5      0.00      0.00
  -11    4    5     -2.02      0.00
  -10    4    5      1.44      0.00
   -9    4    5      1.90      0.00
   -8    4    5     -3.16      0.00
   -7    4    5      4.30      0.00
   -6    4    5      4.01      0.00
   -5    4    5     -8.04      0.00
   -4    4    5    -11.64      0.00
   -3    4    5     10.51      0.00
   -2    4    5      0.00      0.00
   -1    4    5     -6.12      0.00
    0    4    5      1.39      0.00
    1    4    5      6.19      0.00
    2    4    5     -4.06      0.00
    3    4    5     -7.07      0.00
    4    4    5      0.58      0.00
    5    4    5      8.92      0.00
    6    4    5      5.56      0.00
    7    4    5     -3.41      0.00
    8    4    5      0.20      0.00
    9    4    5      0.31      0.00
   10    4    5     -1.02      0.00
   11    4    5      1.31      0.00
   12    4    5      1.77      0.00
   13    4    5     -0.58      0.00
   14    4    5     -0.78      0.00
   15    4    5     -0.44      0.00
   16    4    5      0.55      0.00
   17    4    5      0.07      0.00
   18    4    5     -0.51      0.00
   19    4    5     -0.88      0.00
   20    4    5      0.20      0.00
   21    4    5      2.48      0.00
   22    4    5     -0.07      0.00
   23    4    5     -0.64      0.00
   24    4    5      0.05      0.00
  -24    5    5     -1.78      0.00
  -23    5    5     -0.91      0.00
  -22    5    5     -0.06      0.00
  -21    5    5     -0.22      0.00
  -20    5    5      0.10      0.00
  -19    5    5      0.00      0.00
  -18    5    5     -2.70      0.00
  -17    5    5      1.10      0.00
  -16    5    5      1.24      0.00
  -15    5    5      0.49      0.00
  -14    5    5      1.78      0.00
  -13    5    5      0.40      0.00
  -12    5    5     -3.05      0.00
  -11    5    5     -1.03      0.00
  -10    5    5      2.36      0.00
   -9    5    5      1.16      0.00
   -8    5    5      0.64      0.00
   -7    5    5     -2.33      0.00
   -6    5    5     -0.14      0.00
   -5    5    5     -1.41      0.00
   -4    5    5      0.63      0.00
   -3    5    5     -2.20      0.00
   -2    5    5      0.97      0.00
   -1    5    5     -1.98      0.00
    0    5    5      0.20      0.00
    1    5    5      2.22      0.00
    2    5    5     -3.50      0.00
    3    5    5     -5.16      0.00
    4    5    5      1.93      0.00
    5    5    5      6.74      0.00
    6    5    5      0.49      0.00
    7    5    5     -1.04      0.00
    8    5    5     -1.28      0.00
    9    5    5      0.81      0.00
   10    5    5      0.75      0.00
   11    5    5     -0.06      0.00
   12    5    5      0.84      0.00
   13    5    5      0.01      0.00
   14    5    5     -0.50      0.00
   15    5    5      0.02      0.00
   16    5    5      0.17      0.00
   17    5    5     -0.13      0.00
   18    5    5     -0.78      0.00
   19    5    5      0.48      0.00
   20    5    5     -0.24      0.00
   21    5    5      0.06      0.00
   22    5    5      3.61      0.00
   23    5    5      0.19      0.00
   24    5    5     -2.43      0.00
  -23    6    5     -2.98      0.00
  -22    6    5     -0.85      0.00
  -21    6    5      1.92      0.00
  -20    6    5      0.56      0.00
  -19    6    5     -2.09      0.00
  -18    6    5     -0.03      0.00
  -17    6    5     -1.07      0.00
  -16    6    5      1.70      0.00
  -15    6    5      1.64      0.00
  -14    6    5     -0.61      0.00
  -13    6    5     -0.32      0.00
  -12    6    5      0.44      0.00
  -11    6    5      0.29      0.00
  -10    6    5     -0.08      0.00
   -9    6    5      0.59      0.00
   -8    6    5     -2.16      0.00
   -7    6    5      0.69      0.00
   -6    6    5      0.57      0.00
   -5    6    5     -0.58      0.00
   -4    6    5     -2.16      0.00
   -3    6    5      2.99      0.00
   -2    6    5      1.68      0.00
   -1    6    5     -4.39      0.00
    0    6    5     -3.00      0.00
    1    6    5      2.30      0.00
    2    6    5      2.09      0.00
    3    6    5     -3.24      0.00
    4    6    5     -1.18      0.00
    5    6    5      1.45      0.00
    6    6    5      1.58      0.00
    7    6    5     -1.88      0.00
    8    6    5      0.42      0.00
    9    6    5      0.84      0.00
   10    6    5     -1.14      0.00
   11    6    5      0.01      0.00
   12    6    5      1.50      0.00
   13    6    5      0.68      0.00
   14    6    5     -1.11      0.00
   15    6    5      0.73      0.00
   16    6    5      0.09      0.00
   17    6    5     -0.76      0.00
   18    6    5      0.47      0.00
   19    6    5     -0.64      0.00
   20    6    5     -0.63      0.00
   21    6    5      1.20      0.00
   22    6    5      1.26      0.00
   23    6    5      1.37      0.00
  -22    7    5      0.21      0.00
  -21    7    5      0.76      0.00
  -20    7    5     -1.01      0.00
  -19    7    5     -0.67      0.00
  -18    7    5     -0.68      0.00
  -17    7    5      0.37      0.00
  -16    7    5     -0.36      0.00
  -15    7    5      0.96      0.00
  -14    7    5      0.84      0.00
  -13    7    5     -0.24      0.00
  -12    7    5      0.49      0.00
  -11    7    5     -0.12      0.00
  -10    7    5      0.64      0.00
   -9    7    5     -0.75      0.00
   -8    7    5     -0.97      0.00
   -7    7    5     -0.60      0.00
   -6    7    5      1.75      0.00
   -5    7    5      0.56      0.00
   -4    7    5     -0.55      0.00
   -3    7    5      0.49      0.00
   -2    7    5     -0.42      0.00
   -1    7    5     -1.10      0.00
    0    7    5     -1.09      0.00
    1    7    5      2.15      0.00
    2    7    5      0.17      0.00
    3    7    5     -1.54      0.00
    4    7    5     -1.48      0.00
    5    7    5      1.47      0.00
    6    7    5     -0.39      0.00
    7    7    5     -1.72      0.00
    8    7    5     -0.11      0.00
    9    7    5      0.77      0.00
   10    7    5     -0.26      0.00
   11    7    5      0.08      0.00
   12    7    5      1.31      0.00
   13    7    5      0.11      0.00
   14    7    5     -0.22      0.00
   15    7    5     -0.37      0.00
   16    7    5      1.37      0.00
   17    7    5     -0.04      0.00
   18    7    5     -0.59      0.00
   19    7    5     -0.17      0.00
   20    7    5     -1.14      0.00
   21    7    5     -0.35      0.00
   22    7    5      2.52      0.00
  -20    8    5     -0.30      0.00
  -19    8    5     -0.71      0.00
  -18    8    5     -0.58      0.00
  -17    8    5      0.43      0.00
  -16    8    5      0.25      0.00
  -15    8    5     -0.52      0.00
  -14    8    5      0.06      0.00
  -13    8    5      0.53      0.00
  -12    8    5      0.47      0.00
  -11    8    5      0.73      0.00
  -10    8    5     -1.09      0.00
   -9    8    5     -0.59      0.00
   -8    8    5      0.56      0.00
   -7    8    5      0.32      0.00
   -6    8    5      1.00      0.00
   -5    8    5      0.89      0.00
   -4    8    5     -0.29      0.00
   -3    8    5     -1.10      0.00
   -2    8    5      0.92      0.00
   -1    8    5     -0.84      0.00
    0    8    5     -0.08      0.00
    1    8    5      0.77      0.00
    2    8    5      1.04      0.00
    3    8    5     -1.19      0.00
    4    8    5      0.29      0.00
    5    8    5     -0.72      0.00
    6    8    5     -1.09      0.00
    7    8    5      0.10      0.00
    8    8    5      0.63      0.00
    9    8    5      0.50      0.00
   10    8    5     -0.36      0.00
   11    8    5     -0.15      0.00
   12    8    5      0.67      0.00
   13    8    5      0.82      0.00
   14    8    5      0.03      0.00
   15    8    5      0.37      0.00
   16    8    5     -0.64      0.00
   17    8    5      1.05      0.00
   18    8    5      0.47      0.00
   19    8    5     -0.86      0.00
   20    8    5     -1.12      0.00
  -19    9    5     -1.32      0.00
  -18    9    5     -0.51      0.00
  -17    9    5     -0.19      0.00
  -16    9    5      1.17      0.00
  -15    9    5      0.16      0.00
  -14    9    5     -1.02      0.00
  -13    9    5      0.46      0.00
  -12    9    5     -0.07      0.00
  -11    9    5     -1.03      0.00
  -10    9    5     -0.01      0.00
   -9    9    5      0.80      0.00
   -8    9    5      1.06      0.00
   -7    9    5      1.45      0.00
   -6    9    5     -0.07      0.00
   -5    9    5     -0.39      0.00
   -4    9    5      0.14      0.00
   -3    9    5      0.48      0.00
   -2    9    5      0.15      0.00
   -1    9    5      0.35      0.00
    0    9    5     -1.26      0.00
    1    9    5      0.31      0.00
    2    9    5      0.72      0.00
    3    9    5      0.14      0.00
    4    9    5     -0.89      0.00
    5    9    5      0.35      0.00
    6    9    5      0.02      0.00
    7    9    5      0.41      0.00
    8    9    5      0.81      0.00
    9    9    5      0.51      0.00
   10    9    5     -0.44      0.00
   11    9    5     -0.41      0.00
   12    9    5      1.44      0.00
   13    9    5      0.95      0.00
   14    9    5     -0.68      0.00
   15    9    5     -0.62      0.00
   16    9    5      1.32      0.00
   17    9    5      0.29      0.00
   18    9    5      0.03      0.00
   19    9    5      0.08      0.00
  -17   10    5      0.77      0.00
  -16   10    5     -0.61      0.00
  -15   10    5     -0.60      0.00
  -14   10    5      0.47      0.00
  -13   10    5     -0.75      0.00
  -12   10    5      0.01      0.00
  -11   10    5      0.04      0.00
  -10   10    5     -0.34      0.00
   -9   10    5      0.79      0.00
   -8   10    5      1.39      0.00
   -7   10    5      0.84      0.00
   -6   10    5     -0.37      0.00
   -5   10    5      0.06      0.00
   -4   10    5      0.63      0.00
   -3   10    5      0.87      0.00
   -2   10    5     -0.53      0.00
   -1   10    5      0.65      0.00
    0   10    5      0.56      0.00
    1   10    5     -2.16      0.00
    2   10    5     -0.65      0.00
    3   10    5      1.51      0.00
    4   10    5      0.19      0.00
    5   10    5     -0.81      0.00
    6   10    5      0.97      0.00
    7   10    5      0.54      0.00
    8   10    5      0.82      0.00
    9   10    5      0.21      0.00
   10   10    5      0.69      0.00
   11   10    5      0.26      0.00
   12   10    5     -1.02      0.00
   13   10    5      1.30      0.00
   14   10    5      0.86      0.00
   15   10    5     -1.22      0.00
   16   10    5     -0.55      0.00
   17   10    5      1.44      0.00
  -14   11    5     -0.89      0.00
  -13   11    5      1.11      0.00
  -12   11    5     -0.29      0.00
  -11   11    5     -1.26      0.00
  -10   11    5      0.47      0.00
   -9   11    5      0.96      0.00
   -8   11    5      1.87      0.00
   -7   11    5     -0.36      0.00
   -6   11    5     -1.52      0.00
   -5   11    5     -0.36      0.00
   -4   11    5      2.00      0.00
   -3   11    5      0.38      0.00
   -2   11    5      1.30      0.00
   -1   11    5     -0.43      0.00
    0   11    5      0.26      0.00
    1   11    5     -0.37      0.00
    2   11    5     -0.88      0.00
    3   11    5     -1.11      0.00
    4   11    5     -0.25      0.00
    5   11    5      1.18      0.00
    6   11    5      0.43      0.00
    7   11    5      0.85      0.00
    8   11    5      0.25      0.00
    9   11    5      0.90      0.00
   10   11    5     -0.19      0.00
   11   11    5     -0.78      0.00
   12   11    5      1.23      0.00
   13   11    5      0.21      0.00
   14   11    5     -0.24      0.00
  -11   12    5     -0.01      0.00
  -10   12    5      0.08      0.00
   -9   12    5      1.26      0.00
   -8   12    5     -0.11      0.00
   -7   12    5     -0.52      0.00
   -6   12    5     -1.22      0.00
   -5   12    5     -1.08      0.00
   -4   12    5      0.12      0.00
   -3   12    5      3.51      0.00
   -2   12    5      1.03      0.00
   -1   12    5      0.91      0.00
    0   12    5     -2.05      0.00
    1   12    5      0.72      0.00
    2   12    5     -0.51      0.00
    3   12    5     -1.20      0.00
    4   12    5     -0.21      0.00
    5   12    5     -0.42      0.00
    6   12    5      1.73      0.00
    7   12    5      0.31      0.00
    8   12    5     -0.30      0.00
    9   12    5      0.57      0.00
   10   12    5      0.31      0.00
   11   12    5     -0.28      0.00
   -5   13    5     -1.16      0.00
   -4   13    5      0.48      0.00
   -3   13    5      1.13      0.00
   -2   13    5      3.58      0.00
   -1   13    5     -0.33      0.00
    0   13    5      0.03      0.00
    1   13    5     -1.62      0.00
    2   13    5      0.99      0.00
    3   13    5     -0.68      0.00
    4   13    5     -1.42      0.00
    5   13    5      1.80      0.00
  -24    0    6      1.25      0.00
  -22    0    6     -1.51      0.00
  -20    0    6      0.28      0.00
  -18    0    6      0.12      0.00
  -16    0    6     -1.29      0.00
  -14    0    6      3.65      0.00
  -12    0    6     -4.92      0.00
  -10    0    6      2.46      0.00
   -8    0    6     -7.46      0.00
   -6    0    6     11.80      0.00
   -4    0    6    -22.98      0.00
   -2    0    6     21.61      0.00
    0    0    6      9.17      0.00
    2    0    6      6.74      0.00
    4    0    6     29.56      0.00
    6    0    6    -10.31      0.00
    8    0    6      0.11      0.00
   10    0    6      0.44      0.00
   12    0    6      0.63      0.00
   14    0    6     -1.79      0.00
   16    0    6     -1.14      0.00
   18    0    6      0.92      0.00
   20    0    6     -0.01      0.00
   22    0    6      0.30      0.00
   24    0    6     -0.08      0.00
  -25    1    6     -1.04      0.00
  -24    1    6      1.15      0.00
  -23    1    6      0.32      0.00
  -22    1    6     -0.49      0.00
  -21    1    6     -0.08      0.00
  -20    1    6      0.15      0.00
  -19    1    6     -0.37      0.00
  -18    1    6     -0.60      0.00
  -17    1    6      0.58      0.00
  -16    1    6      0.14      0.00
  -15    1    6     -0.74      0.00
  -14    1    6      0.27      0.00
  -13    1    6      1.18      0.00
  -12    1    6      0.81      0.00
  -11    1    6     -2.12      0.00
  -10    1    6     -0.84      0.00
   -9    1    6     -3.95      0.00
   -8    1    6      0.36      0.00
   -7    1    6     10.01      0.00
   -6    1    6      3.40      0.00
   -5    1    6    -19.07      0.00
   -4    1    6     -7.93      0.00
   -3    1    6     17.46      0.00
   -2    1    6     -8.49      0.00
   -1    1    6     -3.83      0.00
    0    1    6      7.77      0.00
    1    1    6     18.32      0.00
    2    1    6     -9.13      0.00
    3    1    6     10.78      0.00
    4    1    6      2.52      0.00
    5    1    6     12.47      0.00
    6    1    6      4.01      0.00
    7    1    6     -8.19      0.00
    8    1    6      0.21      0.00
    9    1    6      0.76      0.00
   10    1    6     -0.04      0.00
   11    1    6      2.95      0.00
   12    1    6      0.23      0.00
   13    1    6     -3.37      0.00
   14    1    6      0.64      0.00
   15    1    6      0.72      0.00
   16    1    6     -0.46      0.00
   17    1    6     -1.19      0.00
   18    1    6     -0.75      0.00
   19    1    6      0.90      0.00
   20    1    6      0.59      0.00
   21    1    6     -0.13      0.00
   22    1    6     -0.65      0.00
   23    1    6     -0.55      0.00
   24    1    6      1.13      0.00
   25    1    6      2.20      0.00
  -25    2    6      0.68      0.00
  -24    2    6     -0.73      0.00
  -23    2    6      0.62      0.00
  -22    2    6     -0.06      0.00
  -21    2    6     -0.02      0.00
  -20    2    6      1.36      0.00
  -19    2    6     -0.52      0.00
  -18    2    6     -0.82      0.00
  -17    2    6      0.10      0.00
  -16    2    6     -1.31      0.00
  -15    2    6     -0.63      0.00
  -14    2    6      3.22      0.00
  -13    2    6      2.97      0.00
  -12    2    6     -5.14      0.00
  -11    2    6     -1.79      0.00
  -10    2    6      3.39      0.00
   -9    2    6     -0.10      0.00
   -8    2    6     -3.61      0.00
   -7    2    6      2.51      0.00
   -6    2    6      6.20      0.00
   -5    2    6     -0.11      0.00
   -4    2    6     -9.52      0.00
   -3    2    6    -18.44      0.00
   -2    2    6     11.69      0.00
   -1    2    6      2.85      0.00
    0    2    6      2.87      0.00
    1    2    6      4.01      0.00
    2    2    6      2.70      0.00
    3    2    6    -14.55      0.00
    4    2    6     18.04      0.00
    5    2    6     12.99      0.00
    6    2    6     -5.73      0.00
    7    2    6     -0.95      0.00
    8    2    6      0.81      0.00
    9    2    6      1.77      0.00
   10    2    6      0.04      0.00
   11    2    6     -0.82      0.00
   12    2    6      1.17      0.00
   13    2    6      1.36      0.00
   14    2    6     -1.15      0.00
   15    2    6      0.07      0.00
   16    2    6     -0.88      0.00
   17    2    6     -1.13      0.00
   18    2    6      0.88      0.00
   19    2    6      0.35      0.00
   20    2    6     -0.67      0.00
   21    2    6     -0.86      0.00
   22    2    6     -0.04      0.00
   23    2    6      0.41      0.00
   24    2    6      1.04      0.00
   25    2    6      1.60      0.00
  -25    3    6     -3.10      0.00
  -24    3    6      0.75      0.00
  -23    3    6      0.03      0.00
  -22    3    6      0.88      0.00
  -21    3    6      1.21      0.00
  -20    3    6     -0.82      0.00
  -19    3    6     -0.87      0.00
  -18    3    6     -0.52      0.00
  -17    3    6     -0.95      0.00
  -16    3    6      1.09      0.00
  -15    3    6      1.02      0.00
  -14    3    6      0.50      0.00
  -13    3    6      0.17      0.00
  -12    3    6      0.52      0.00
  -11    3    6     -2.28      0.00
  -10    3    6     -0.27      0.00
   -9    3    6      0.75      0.00
   -8    3    6     -1.13      0.00
   -7    3    6      5.66      0.00
   -6    3    6      6.22      0.00
   -5    3    6    -10.05      0.00
   -4    3    6    -16.61      0.00
   -3    3    6     13.82      0.00
   -2    3    6     -1.32      0.00
   -1    3    6     -8.46      0.00
    0    3    6      3.44      0.00
    1    3    6      9.61      0.00
    2    3    6     -7.83      0.00
    3    3    6     -3.66      0.00
    4    3    6      1.48      0.00
    5    3    6     11.21      0.00
    6    3    6      5.48      0.00
    7    3    6     -5.42      0.00
    8    3    6      0.43      0.00
    9    3    6      1.09      0.00
   10    3    6     -0.16      0.00
   11    3    6      1.81      0.00
   12    3    6      1.47      0.00
   13    3    6     -1.20      0.00
   14    3    6     -0.60      0.00
   15    3    6     -0.07      0.00
   16    3    6      0.61      0.00
   17    3    6      0.18      0.00
   18    3    6     -1.05      0.00
   19    3    6     -0.54      0.00
   20    3    6      0.09      0.00
   21    3    6      0.81      0.00
   22    3    6     -0.26      0.00
   23    3    6     -0.24      0.00
   24    3    6      0.21      0.00
   25    3    6      1.11      0.00
  -25    4    6      0.53      0.00
  -24    4    6     -1.88      0.00
  -23    4    6     -0.03      0.00
  -22    4    6      0.46      0.00
  -21    4    6     -0.07      0.00
  -20    4    6      0.16      0.00
  -19    4    6     -0.45      0.00
  -18    4    6     -2.16      0.00
  -17    4    6      0.84      0.00
  -16    4    6      0.32      0.00
  -15    4    6      0.12      0.00
  -14    4    6      2.74      0.00
  -13    4    6      1.64      0.00
  -12    4    6     -3.96      0.00
  -11    4    6     -2.13      0.00
  -10    4    6      2.53      0.00
   -9    4    6      1.98      0.00
   -8    4    6      0.27      0.00
   -7    4    6     -0.84      0.00
   -6    4    6      1.67      0.00
   -5    4    6     -2.14      0.00
   -4    4    6     -2.62      0.00
   -3    4    6     -7.80      0.00
   -2    4    6      5.11      0.00
   -1    4    6      1.24      0.00
    0    4    6     -0.80      0.00
    1    4    6      1.39      0.00
    2    4    6     -3.34      0.00
    3    4    6     -8.96      0.00
    4    4    6      4.48      0.00
    5    4    6     10.44      0.00
    6    4    6      1.00      0.00
    7    4    6     -2.21      0.00
    8    4    6     -1.57      0.00
    9    4    6      1.65      0.00
   10    4    6      1.07      0.00
   11    4    6      0.47      0.00
   12    4    6      0.41      0.00
   13    4    6     -0.26      0.00
   14    4    6     -0.08      0.00
   15    4    6      0.15      0.00
   16    4    6     -0.27      0.00
   17    4    6      0.14      0.00
   18    4    6     -0.27      0.00
   19    4    6     -0.50      0.00
   20    4    6      0.07      0.00
   21    4    6      0.29      0.00
   22    4    6      2.20      0.00
   23    4    6      0.03      0.00
   24    4    6     -1.51      0.00
  -24    5    6     -0.02      0.00
  -23    5    6     -2.83      0.00
  -22    5    6     -0.55      0.00
  -21    5    6      2.60      0.00
  -20    5    6     -0.08      0.00
  -19    5    6     -2.83      0.00
  -18    5    6      0.27      0.00
  -17    5    6     -0.92      0.00
  -16    5    6      1.65      0.00
  -15    5    6      2.12      0.00
  -14    5    6     -0.56      0.00
  -13    5    6     -0.12      0.00
  -12    5    6      0.11      0.00
  -11    5    6     -1.67      0.00
  -10    5    6      0.59      0.00
   -9    5    6      2.31      0.00
   -8    5    6     -1.91      0.00
   -7    5    6      1.18      0.00
   -6    5    6      1.04      0.00
   -5    5    6     -2.75      0.00
   -4    5    6     -6.13      0.00
   -3    5    6      5.76      0.00
   -2    5    6      3.02      0.00
   -1    5    6     -5.07      0.00
    0    5    6     -3.86      0.00
    1    5    6      3.61      0.00
    2    5    6     -0.12      0.00
    3    5    6     -5.87      0.00
    4    5    6     -0.41      0.00
    5    5    6      4.94      0.00
    6    5    6      4.32      0.00
    7    5    6     -2.22      0.00
    8    5    6     -1.08      0.00
    9    5    6     -0.17      0.00
   10    5    6      0.22      0.00
   11    5    6      1.34      0.00
   12    5    6      0.86      0.00
   13    5    6     -0.22      0.00
   14    5    6     -0.60      0.00
   15    5    6      0.55      0.00
   16    5    6     -0.27      0.00
   17    5    6     -0.46      0.00
   18    5    6      0.71      0.00
   19    5    6     -1.25      0.00
   20    5    6     -0.79      0.00
   21    5    6      2.52      0.00
   22    5    6      1.58      0.00
   23    5    6      0.34      0.00
  -23    6    6     -0.76      0.00
  -22    6    6     -0.10      0.00
  -21    6    6      0.40      0.00
  -20    6    6      0.23      0.00
  -19    6    6      0.12      0.00
  -18    6    6     -2.57      0.00
  -17    6    6      0.51      0.00
  -16    6    6      1.01      0.00
  -15    6    6      1.02      0.00
  -14    6    6      0.66      0.00
  -13    6    6      0.14      0.00
  -12    6    6     -0.52      0.00
  -11    6    6     -0.90      0.00
  -10    6    6      1.45      0.00
   -9    6    6      0.27      0.00
   -8    6    6     -0.81      0.00
   -7    6    6     -1.82      0.00
   -6    6    6      1.77      0.00
   -5    6    6     -0.87      0.00
   -4    6    6     -0.22      0.00
   -3    6    6      0.78      0.00
   -2    6    6      0.67      0.00
   -1    6    6     -1.70      0.00
    0    6    6     -1.67      0.00
    1    6    6      0.64      0.00
    2    6    6     -0.83      0.00
    3    6    6     -2.16      0.00
    4    6    6     -0.73      0.00
    5    6    6      3.61      0.00
    6    6    6      0.44      0.00
    7    6    6     -1.67      0.00
    8    6    6     -1.74      0.00
    9    6    6      0.88      0.00
   10    6    6      0.91      0.00
   11    6    6      0.14      0.00
   12    6    6      0.99      0.00
   13    6    6     -0.05      0.00
   14    6    6     -0.18      0.00
   15    6    6     -0.23      0.00
   16    6    6      1.04      0.00
   17    6    6     -0.41      0.00
   18    6    6     -1.43      0.00
   19    6    6      0.57      0.00
   20    6    6     -0.41      0.00
   21    6    6     -0.42      0.00
   22    6    6      3.23      0.00
  -22    7    6     -0.24      0.00
  -21    7    6      1.05      0.00
  -20    7    6      0.92      0.00
  -19    7    6     -1.68      0.00
  -18    7    6     -0.80      0.00
  -17    7    6     -0.66      0.00
  -16    7    6      0.93      0.00
  -15    7    6      1.00      0.00
  -14    7    6      0.23      0.00
  -13    7    6     -0.49      0.00
  -12    7    6      0.33      0.00
  -11    7    6      1.90      0.00
  -10    7    6     -0.85      0.00
   -9    7    6     -0.75      0.00
   -8    7    6     -1.01      0.00
   -7    7    6     -0.01      0.00
   -6    7    6      0.63      0.00
   -5    7    6      1.54      0.00
   -4    7    6     -0.90      0.00
   -3    7    6     -0.61      0.00
   -2    7    6      1.83      0.00
   -1    7    6     -1.53      0.00
    0    7    6     -1.62      0.00
    1    7    6      0.84      0.00
    2    7    6      1.61      0.00
    3    7    6     -1.93      0.00
    4    7    6     -0.46      0.00
    5    7    6      0.13      0.00
    6    7    6      0.08      0.00
    7    7    6     -1.25      0.00
    8    7    6     -0.40      0.00
    9    7    6      0.67      0.00
   10    7    6      0.04      0.00
   11    7    6      0.03      0.00
   12    7    6      1.34      0.00
   13    7    6      0.65      0.00
   14    7    6     -1.13      0.00
   15    7    6      1.11      0.00
   16    7    6     -0.09      0.00
   17    7    6     -0.23      0.00
   18    7    6     -0.22      0.00
   19    7    6     -0.58      0.00
   20    7    6     -0.49      0.00
   21    7    6      0.43      0.00
   22    7    6      0.34      0.00
  -20    8    6     -0.94      0.00
  -19    8    6     -1.18      0.00
  -18    8    6     -0.24      0.00
  -17    8    6     -0.22      0.00
  -16    8    6      0.05      0.00
  -15    8    6      0.42      0.00
  -14    8    6      0.13      0.00
  -13    8    6      0.29      0.00
  -12    8    6      0.20      0.00
  -11    8    6     -0.34      0.00
  -10    8    6      0.99      0.00
   -9    8    6     -0.46      0.00
   -8    8    6     -0.87      0.00
   -7    8    6      0.96      0.00
   -6    8    6      1.14      0.00
   -5    8    6      0.02      0.00
   -4    8    6     -0.51      0.00
   -3    8    6      0.44      0.00
   -2    8    6     -0.49      0.00
   -1    8    6      0.20      0.00
    0    8    6     -0.64      0.00
    1    8    6      1.21      0.00
    2    8    6      0.59      0.00
    3    8    6     -0.41      0.00
    4    8    6     -1.80      0.00
    5    8    6      0.83      0.00
    6    8    6      0.31      0.00
    7    8    6     -0.65      0.00
    8    8    6      0.09      0.00
    9    8    6     -0.05      0.00
   10    8    6     -0.18      0.00
   11    8    6      1.05      0.00
   12    8    6      1.48      0.00
   13    8    6      0.22      0.00
   14    8    6     -0.84      0.00
   15    8    6     -0.45      0.00
   16    8    6      2.14      0.00
   17    8    6     -0.90      0.00
   18    8    6     -0.46      0.00
   19    8    6      0.32      0.00
   20    8    6     -0.55      0.00
  -19    9    6      0.19      0.00
  -18    9    6      0.04      0.00
  -17    9    6      0.76      0.00
  -16    9    6     -1.25      0.00
  -15    9    6     -0.88      0.00
  -14    9    6      0.83      0.00
  -13    9    6     -0.23      0.00
  -12    9    6      0.05      0.00
  -11    9    6      0.81      0.00
  -10    9    6     -0.53      0.00
   -9    9    6     -0.43      0.00
   -8    9    6      1.11      0.00
   -7    9    6      0.70      0.00
   -6    9    6      0.79      0.00
   -5    9    6      0.79      0.00
   -4    9    6     -0.02      0.00
   -3    9    6     -1.24      0.00
   -2    9    6      0.33      0.00
   -1    9    6      0.64      0.00
    0    9    6      0.34      0.00
    1    9    6     -1.26      0.00
    2    9    6      0.34      0.00
    3    9    6      0.80      0.00
    4    9    6      0.54      0.00
    5    9    6     -1.11      0.00
    6    9    6     -0.16      0.00
    7    9    6      0.26      0.00
    8    9    6      1.05      0.00
    9    9    6      0.66      0.00
   10    9    6      0.48      0.00
   11    9    6      0.15      0.00
   12    9    6     -0.23      0.00
   13    9    6      0.91      0.00
   14    9    6      1.03      0.00
   15    9    6     -0.23      0.00
   16    9    6     -1.40      0.00
   17    9    6      1.72      0.00
   18    9    6      0.62      0.00
  -17   10    6     -0.18      0.00
  -16   10    6      1.78      0.00
  -15   10    6     -0.34      0.00
  -14   10    6     -2.11      0.00
  -13   10    6      0.94      0.00
  -12   10    6      0.41      0.00
  -11   10    6     -0.89      0.00
  -10   10    6     -0.12      0.00
   -9   10    6      0.82      0.00
   -8   10    6      1.56      0.00
   -7   10    6      0.42      0.00
   -6   10    6     -0.41      0.00
   -5   10    6      0.51      0.00
   -4   10    6      0.74      0.00
   -3   10    6     -0.57      0.00
   -2   10    6      0.51      0.00
   -1   10    6      0.78      0.00
    0   10    6     -0.60      0.00
    1   10    6     -0.31      0.00
    2   10    6     -0.53      0.00
    3   10    6     -0.41      0.00
    4   10    6      0.66      0.00
    5   10    6      0.70      0.00
    6   10    6     -0.94      0.00
    7   10    6      0.74      0.00
    8   10    6      0.68      0.00
    9   10    6      1.60      0.00
   10   10    6     -0.02      0.00
   11   10    6     -0.78      0.00
   12   10    6      1.21      0.00
   13   10    6      0.51      0.00
   14   10    6     -0.15      0.00
   15   10    6     -0.36      0.00
   16   10    6      0.71      0.00
  -14   11    6      0.70      0.00
  -13   11    6     -0.63      0.00
  -12   11    6     -0.05      0.00
  -11   11    6      0.17      0.00
  -10   11    6     -0.31      0.00
   -9   11    6      1.17      0.00
   -8   11    6      0.32      0.00
   -7   11    6      0.36      0.00
   -6   11    6     -0.80      0.00
   -5   11    6     -0.79      0.00
   -4   11    6      0.53      0.00
   -3   11    6      2.36      0.00
   -2   11    6     -0.25      0.00
   -1   11    6      0.49      0.00
    0   11    6      0.19      0.00
    1   11    6     -0.69      0.00
    2   11    6     -1.60      0.00
    3   11    6      0.42      0.00
    4   11    6      0.25      0.00
    5   11    6     -1.11      0.00
    6   11    6      1.26      0.00
    7   11    6      0.42      0.00
    8   11    6      0.30      0.00
    9   11    6      0.16      0.00
   10   11    6      1.33      0.00
   11   11    6      0.13      0.00
   12   11    6     -1.22      0.00
   13   11    6      1.34      0.00
   14   11    6      0.19      0.00
  -11   12    6     -1.52      0.00
  -10   12    6      0.31      0.00
   -9   12    6      0.15      0.00
   -8   12    6      1.39      0.00
   -7   12    6      0.10      0.00
   -6   12    6     -2.08      0.00
   -5   12    6     -2.48      0.00
   -4   12    6      1.25      0.00
   -3   12    6      2.04      0.00
   -2   12    6      2.45      0.00
   -1   12    6     -0.57      0.00
    0   12    6      0.61      0.00
    1   12    6     -1.43      0.00
    2   12    6      0.36      0.00
    3   12    6     -1.37      0.00
    4   12    6     -1.68      0.00
    5   12    6      1.95      0.00
    6   12    6      0.05      0.00
    7   12    6     -0.04      0.00
    8   12    6      0.31      0.00
    9   12    6      0.51      0.00
   10   12    6      0.17      0.00
   11   12    6     -0.05      0.00
   -5   13    6     -0.88      0.00
   -4   13    6     -0.31      0.00
   -3   13    6      2.29      0.00
   -2   13    6      1.74      0.00
   -1   13    6      1.51      0.00
    0   13    6     -1.75      0.00
    1   13    6      1.22      0.00
    2   13    6     -1.52      0.00
    3   13    6     -0.99      0.00
    4   13    6      0.58      0.00
  -25    0    7      0.24      0.00
  -23    0    7      0.60      0.00
  -21    0    7     -1.14      0.00
  -19    0    7      0.14      0.00
  -17    0    7      0.88      0.00
  -15    0    7     -1.07      0.00
  -13    0    7      1.58      0.00
  -11    0    7     -2.42      0.00
   -9    0    7     -1.14      0.00
   -7    0    7      3.19      0.00
   -5    0    7    -16.68      0.00
   -3    0    7     20.83      0.00
   -1    0    7     -7.31      0.00
    1    0    7     11.48      0.00
    3    0    7     18.43      0.00
    5    0    7     11.69      0.00
    7    0    7     -8.22      0.00
    9    0    7      1.56      0.00
   11    0    7      2.23      0.00
   13    0    7     -3.20      0.00
   15    0    7      0.82      0.00
   17    0    7     -1.92      0.00
   19    0    7      1.57      0.00
   21    0    7      0.10      0.00
   23    0    7     -1.27      0.00
   25    0    7      2.40      0.00
  -25    1    7      0.06      0.00
  -24    1    7      0.56      0.00
  -23    1    7      0.87      0.00
  -22    1    7     -1.15      0.00
  -21    1    7     -0.43      0.00
  -20    1    7      1.53      0.00
  -19    1    7      0.00      0.00
  -18    1    7     -0.71      0.00
  -17    1    7     -0.32      0.00
  -16    1    7     -0.77      0.00
  -15    1    7      0.04      0.00
  -14    1    7      2.75      0.00
  -13    1    7      1.18      0.00
  -12    1    7     -4.53      0.00
  -11    1    7     -0.74      0.00
  -10    1    7      4.06      0.00
   -9    1    7      0.08      0.00
   -8    1    7     -6.94      0.00
   -7    1    7      1.72      0.00
   -6    1    7      6.19      0.00
   -5    1    7      0.28      0.00
   -4    1    7    -12.84      0.00
   -3    1    7    -10.94      0.00
   -2    1    7     19.68      0.00
   -1    1    7      1.81      0.00
    0    1    7     -5.80      0.00
    1    1    7     -2.26      0.00
    2    1    7     10.00      0.00
    3    1    7     -3.98      0.00
    4    1    7     24.35      0.00
    5    1    7      5.54      0.00
    6    1    7     -7.90      0.00
    7    1    7     -1.02      0.00
    8    1    7      0.79      0.00
    9    1    7      2.02      0.00
   10    1    7      0.18      0.00
   11    1    7     -1.02      0.00
   12    1    7      1.18      0.00
   13    1    7      0.89      0.00
   14    1    7     -1.71      0.00
   15    1    7      0.14      0.00
   16    1    7     -0.92      0.00
   17    1    7     -0.87      0.00
   18    1    7      0.74      0.00
   19    1    7      0.77      0.00
   20    1    7     -0.22      0.00
   21    1    7     -1.41      0.00
   22    1    7     -0.10      0.00
   23    1    7      1.37      0.00
   24    1    7      0.25      0.00
   25    1    7      0.45      0.00
  -25    2    7     -1.95      0.00
  -24    2    7      1.63      0.00
  -23    2    7     -0.42      0.00
  -22    2    7      0.19      0.00
  -21    2    7      1.48      0.00
  -20    2    7     -0.47      0.00
  -19    2    7      0.06      0.00
  -18    2    7     -0.31      0.00
  -17    2    7     -0.71      0.00
  -16    2    7      0.25      0.00
  -15    2    7     -0.35      0.00
  -14    2    7      0.79      0.00
  -13    2    7      1.49      0.00
  -12    2    7      0.83      0.00
  -11    2    7     -2.72      0.00
  -10    2    7     -0.95      0.00
   -9    2    7      0.01      0.00
   -8    2    7      0.24      0.00
   -7    2    7      3.84      0.00
   -6    2    7      5.74      0.00
   -5    2    7    -10.09      0.00
   -4    2    7    -14.33      0.00
   -3    2    7     15.61      0.00
   -2    2    7     -2.90      0.00
   -1    2    7     -8.70      0.00
    0    2    7      0.93      0.00
    1    2    7      8.52      0.00
    2    2    7     -7.62      0.00
    3    2    7      6.96      0.00
    4    2    7      3.38      0.00
    5    2    7     10.79      0.00
    6    2    7      2.53      0.00
    7    2    7     -6.66      0.00
    8    2    7      0.93      0.00
    9    2    7      1.28      0.00
   10    2    7      0.89      0.00
   11    2    7      2.70      0.00
   12    2    7      0.08      0.00
   13    2    7     -2.17      0.00
   14    2    7      0.23      0.00
   15    2    7      0.44      0.00
   16    2    7      0.43      0.00
   17    2    7     -0.45      0.00
   18    2    7     -1.24      0.00
   19    2    7      0.20      0.00
   20    2    7      0.34      0.00
   21    2    7     -0.73      0.00
   22    2    7     -0.52      0.00
   23    2    7      0.31      0.00
   24    2    7      0.89      0.00
   25    2    7      1.56      0.00
  -25    3    7      0.18      0.00
  -24    3    7     -2.09      0.00
  -23    3    7      0.55      0.00
  -22    3    7      0.78      0.00
  -21    3    7     -0.17      0.00
  -20    3    7      1.03      0.00
  -19    3    7     -0.08      0.00
  -18    3    7     -1.35      0.00
  -17    3    7      0.11      0.00
  -16    3    7     -0.87      0.00
  -15    3    7     -0.30      0.00
  -14    3    7      2.97      0.00
  -13    3    7      2.87      0.00
  -12    3    7     -4.10      0.00
  -11    3    7     -2.24      0.00
  -10    3    7      3.08      0.00
   -9    3    7      0.90      0.00
   -8    3    7     -2.36      0.00
   -7    3    7      2.02      0.00
   -6    3    7      4.54      0.00
   -5    3    7     -2.39      0.00
   -4    3    7     -4.97      0.00
   -3    3    7    -12.04      0.00
   -2    3    7      8.36      0.00
   -1    3    7      2.30      0.00
    0    3    7     -3.47      0.00
    1    3    7     -0.16      0.00
    2    3    7      0.13      0.00
    3    3    7     -9.37      0.00
    4    3    7      9.89      0.00
    5    3    7     10.24      0.00
    6    3    7     -1.62      0.00
    7    3    7     -2.72      0.00
    8    3    7     -0.64      0.00
    9    3    7      3.01      0.00
   10    3    7      0.87      0.00
   11    3    7      0.06      0.00
   12    3    7      1.02      0.00
   13    3    7     -0.05      0.00
   14    3    7     -0.52      0.00
   15    3    7      0.49      0.00
   16    3    7     -0.17      0.00
   17    3    7     -0.65      0.00
   18    3    7      0.22      0.00
   19    3    7      0.03      0.00
   20    3    7     -0.44      0.00
   21    3    7     -0.71      0.00
   22    3    7      0.60      0.00
   23    3    7      0.54      0.00
   24    3    7      0.06      0.00
  -24    4    7     -0.18      0.00
  -23    4    7     -0.96      0.00
  -22    4    7      0.14      0.00
  -21    4    7      1.52      0.00
  -20    4    7     -0.31      0.00
  -19    4    7     -1.79      0.00
  -18    4    7     -0.01      0.00
  -17    4    7     -0.67      0.00
  -16    4    7      1.30      0.00
  -15    4    7      1.03      0.00
  -14    4    7     -0.60      0.00
  -13    4    7      0.83      0.00
  -12    4    7      1.10      0.00
  -11    4    7     -2.60      0.00
  -10    4    7     -0.48      0.00
   -9    4    7      2.39      0.00
   -8    4    7     -0.20      0.00
   -7    4    7      1.78      0.00
   -6    4    7      2.38      0.00
   -5    4    7     -3.60      0.00
   -4    4    7    -10.56      0.00
   -3    4    7      6.72      0.00
   -2    4    7      2.91      0.00
   -1    4    7     -4.65      0.00
    0    4    7     -3.11      0.00
    1    4    7      3.87      0.00
    2    4    7     -2.54      0.00
    3    4    7     -5.51      0.00
    4    4    7     -0.12      0.00
    5    4    7      8.42      0.00
    6    4    7      5.09      0.00
    7    4    7     -4.16      0.00
    8    4    7     -1.39      0.00
    9    4    7      0.83      0.00
   10    4    7      1.48      0.00
   11    4    7      1.40      0.00
   12    4    7      0.62      0.00
   13    4    7     -0.45      0.00
   14    4    7     -0.73      0.00
   15    4    7      0.16      0.00
   16    4    7      0.27      0.00
   17    4    7      0.54      0.00
   18    4    7     -0.32      0.00
   19    4    7     -1.51      0.00
   20    4    7     -0.12      0.00
   21    4    7      2.33      0.00
   22    4    7      0.52      0.00
   23    4    7     -0.71      0.00
   24    4    7      0.12      0.00
  -24    5    7     -1.24      0.00
  -23    5    7     -0.87      0.00
  -22    5    7     -0.08      0.00
  -21    5    7      0.26      0.00
  -20    5    7      0.41      0.00
  -19    5    7      0.10      0.00
  -18    5    7     -2.50      0.00
  -17    5    7      0.55      0.00
  -16    5    7      0.78      0.00
  -15    5    7      0.56      0.00
  -14    5    7      1.40      0.00
  -13    5    7      0.70      0.00
  -12    5    7     -1.73      0.00
  -11    5    7     -1.88      0.00
  -10    5    7      1.62      0.00
   -9    5    7      2.26      0.00
   -8    5    7     -0.41      0.00
   -7    5    7     -2.43      0.00
   -6    5    7      2.19      0.00
   -5    5    7     -1.46      0.00
   -4    5    7     -1.62      0.00
   -3    5    7     -1.48      0.00
   -2    5    7      3.03      0.00
   -1    5    7     -0.83      0.00
    0    5    7     -1.77      0.00
    1    5    7     -0.79      0.00
    2    5    7     -2.37      0.00
    3    5    7     -4.23      0.00
    4    5    7      1.11      0.00
    5    5    7      6.88      0.00
    6    5    7      0.89      0.00
    7    5    7     -2.32      0.00
    8    5    7     -2.01      0.00
    9    5    7      1.50      0.00
   10    5    7      1.36      0.00
   11    5    7      0.38      0.00
   12    5    7      0.52      0.00
   13    5    7     -0.38      0.00
   14    5    7      0.09      0.00
   15    5    7      0.00      0.00
   16    5    7      0.60      0.00
   17    5    7     -0.20      0.00
   18    5    7     -1.51      0.00
   19    5    7      0.20      0.00
   20    5    7      0.66      0.00
   21    5    7     -0.23      0.00
   22    5    7      2.17      0.00
   23    5    7      1.32      0.00
  -23    6    7     -2.98      0.00
  -22    6    7     -0.98      0.00
  -21    6    7      2.72      0.00
  -20    6    7      1.54      0.00
  -19    6    7     -2.56      0.00
  -18    6    7     -0.98      0.00
  -17    6    7     -1.05      0.00
  -16    6    7      1.73      0.00
  -15    6    7      1.86      0.00
  -14    6    7     -0.09      0.00
  -13    6    7     -0.67      0.00
  -12    6    7     -0.07      0.00
  -11    6    7      0.61      0.00
  -10    6    7     -0.24      0.00
   -9    6    7      0.72      0.00
   -8    6    7     -1.31      0.00
   -7    6    7     -0.25      0.00
   -6    6    7     -0.23      0.00
   -5    6    7      1.12      0.00
   -4    6    7     -2.22      0.00
   -3    6    7      1.40      0.00
   -2    6    7      3.14      0.00
   -1    6    7     -2.62      0.00
    0    6    7     -4.23      0.00
    1    6    7      1.17      0.00
    2    6    7      1.38      0.00
    3    6    7     -3.06      0.00
    4    6    7     -0.84      0.00
    5    6    7      1.44      0.00
    6    6    7      2.47      0.00
    7    6    7     -1.52      0.00
    8    6    7     -1.29      0.00
    9    6    7     -0.24      0.00
   10    6    7      0.48      0.00
   11    6    7      1.15      0.00
   12    6    7      0.80      0.00
   13    6    7      0.01      0.00
   14    6    7     -0.58      0.00
   15    6    7      1.50      0.00
   16    6    7     -0.58      0.00
   17    6    7     -1.33      0.00
   18    6    7      0.57      0.00
   19    6    7     -0.64      0.00
   20    6    7     -0.95      0.00
   21    6    7      1.38      0.00
   22    6    7      1.39      0.00
  -22    7    7     -0.18      0.00
  -21    7    7      0.93      0.00
  -20    7    7     -0.27      0.00
  -19    7    7      0.09      0.00
  -18    7    7     -1.49      0.00
  -17    7    7     -0.67      0.00
  -16    7    7      0.30      0.00
  -15    7    7      1.38      0.00
  -14    7    7      0.59      0.00
  -13    7    7      0.06      0.00
  -12    7    7     -0.12      0.00
  -11    7    7     -0.63      0.00
  -10    7    7      1.76      0.00
   -9    7    7     -0.30      0.00
   -8    7    7     -1.43      0.00
   -7    7    7     -0.96      0.00
   -6    7    7      1.59      0.00
   -5    7    7      0.15      0.00
   -4    7    7     -0.36      0.00
   -3    7    7      0.46      0.00
   -2    7    7      0.38      0.00
   -1    7    7     -0.11      0.00
    0    7    7     -1.79      0.00
    1    7    7      0.66      0.00
    2    7    7      0.62      0.00
    3    7    7     -1.10      0.00
    4    7    7     -2.03      0.00
    5    7    7      1.91      0.00
    6    7    7      0.94      0.00
    7    7    7     -1.23      0.00
    8    7    7     -1.68      0.00
    9    7    7     -0.20      0.00
   10    7    7      0.76      0.00
   11    7    7      1.39      0.00
   12    7    7      1.30      0.00
   13    7    7     -0.03      0.00
   14    7    7     -0.73      0.00
   15    7    7     -0.43      0.00
   16    7    7      2.12      0.00
   17    7    7     -1.14      0.00
   18    7    7     -1.76      0.00
   19    7    7      0.55      0.00
   20    7    7      0.12      0.00
   21    7    7     -0.94      0.00
  -20    8    7      0.52      0.00
  -19    8    7     -0.33      0.00
  -18    8    7     -0.04      0.00
  -17    8    7     -0.18      0.00
  -16    8    7     -1.27      0.00
  -15    8    7      0.10      0.00
  -14    8    7      1.32      0.00
  -13    8    7     -0.58      0.00
  -12    8    7     -0.38      0.00
  -11    8    7      2.11      0.00
  -10    8    7     -0.19      0.00
   -9    8    7     -0.88      0.00
   -8    8    7     -0.24      0.00
   -7    8    7     -0.05      0.00
   -6    8    7      0.95      0.00
   -5    8    7      1.35      0.00
   -4    8    7     -0.26      0.00
   -3    8    7     -1.50      0.00
   -2    8    7      0.76      0.00
   -1    8    7      0.05      0.00
    0    8    7      0.11      0.00
    1    8    7     -0.28      0.00
    2    8    7      0.76      0.00
    3    8    7     -0.47      0.00
    4    8    7      0.45      0.00
    5    8    7     -0.59      0.00
    6    8    7     -0.06      0.00
    7    8    7     -0.38      0.00
    8    8    7     -0.25      0.00
    9    8    7      0.78      0.00
   10    8    7      0.57      0.00
   11    8    7      0.23      0.00
   12    8    7      1.36      0.00
   13    8    7      0.36      0.00
   14    8    7     -0.53      0.00
   15    8    7      0.80      0.00
   16    8    7     -0.65      0.00
   17    8    7      0.84      0.00
   18    8    7     -0.82      0.00
   19    8    7     -0.32      0.00
   20    8    7     -0.43      0.00
  -19    9    7     -1.08      0.00
  -18    9    7      0.01      0.00
  -17    9    7      0.28      0.00
  -16    9    7      0.80      0.00
  -15    9    7     -1.10      0.00
  -14    9    7     -1.42      0.00
  -13    9    7      0.98      0.00
  -12    9    7      0.41      0.00
  -11    9    7     -0.65      0.00
  -10    9    7      0.94      0.00
   -9    9    7      0.47      0.00
   -8    9    7     -0.50      0.00
   -7    9    7      0.92      0.00
   -6    9    7      0.84      0.00
   -5    9    7      0.62      0.00
   -4    9    7     -0.19      0.00
   -3    9    7     -0.30      0.00
   -2    9    7     -0.22      0.00
   -1    9    7      0.64      0.00
    0    9    7     -0.79      0.00
    1    9    7      0.39      0.00
    2    9    7      0.32      0.00
    3    9    7      0.07      0.00
    4    9    7     -0.32      0.00
    5    9    7      0.86      0.00
    6    9    7     -0.82      0.00
    7    9    7      0.12      0.00
    8    9    7      0.73      0.00
    9    9    7      0.90      0.00
   10    9    7      0.23      0.00
   11    9    7      0.46      0.00
   12    9    7      1.01      0.00
   13    9    7      0.61      0.00
   14    9    7     -0.31      0.00
   15    9    7     -0.22      0.00
   16    9    7      1.61      0.00
   17    9    7     -1.17      0.00
   18    9    7      0.41      0.00
  -17   10    7      0.75      0.00
  -16   10    7     -1.10      0.00
  -15   10    7     -0.79      0.00
  -14   10    7      0.47      0.00
  -13   10    7     -0.97      0.00
  -12   10    7      0.21      0.00
  -11   10    7      1.01      0.00
  -10   10    7     -0.29      0.00
   -9   10    7     -0.29      0.00
   -8   10    7      0.58      0.00
   -7   10    7      1.05      0.00
   -6   10    7      0.46      0.00
   -5   10    7      0.09      0.00
   -4   10    7      0.44      0.00
   -3   10    7      0.11      0.00
   -2   10    7     -0.49      0.00
   -1   10    7      0.37      0.00
    0   10    7      0.79      0.00
    1   10    7     -1.31      0.00
    2   10    7     -0.94      0.00
    3   10    7      1.21      0.00
    4   10    7      0.83      0.00
    5   10    7     -1.24      0.00
    6   10    7      0.24      0.00
    7   10    7     -0.11      0.00
    8   10    7      1.04      0.00
    9   10    7      0.50      0.00
   10   10    7      1.51      0.00
   11   10    7      0.35      0.00
   12   10    7     -1.05      0.00
   13   10    7      1.06      0.00
   14   10    7      0.62      0.00
   15   10    7     -0.21      0.00
   16   10    7     -0.42      0.00
  -14   11    7     -1.86      0.00
  -13   11    7      0.85      0.00
  -12   11    7      0.55      0.00
  -11   11    7     -0.77      0.00
  -10   11    7     -0.58      0.00
   -9   11    7     -0.22      0.00
   -8   11    7      2.26      0.00
   -7   11    7      0.50      0.00
   -6   11    7     -1.52      0.00
   -5   11    7     -1.14      0.00
   -4   11    7      1.12      0.00
   -3   11    7      0.65      0.00
   -2   11    7      0.70      0.00
   -1   11    7      0.26      0.00
    0   11    7      0.62      0.00
    1   11    7     -0.85      0.00
    2   11    7     -0.55      0.00
    3   11    7     -1.29      0.00
    4   11    7     -0.23      0.00
    5   11    7      1.56      0.00
    6   11    7     -0.66      0.00
    7   11    7      0.14      0.00
    8   11    7      0.11      0.00
    9   11    7      1.23      0.00
   10   11    7      0.28      0.00
   11   11    7      0.23      0.00
   12   11    7      0.48      0.00
   13   11    7     -0.75      0.00
   14   11    7      0.71      0.00
  -11   12    7     -0.24      0.00
  -10   12    7     -0.95      0.00
   -9   12    7      1.18      0.00
   -8   12    7      0.33      0.00
   -7   12    7     -0.30      0.00
   -6   12    7     -1.76      0.00
   -5   12    7     -1.20      0.00
   -4   12    7     -0.37      0.00
   -3   12    7      2.18      0.00
   -2   12    7      1.29      0.00
   -1   12    7      0.97      0.00
    0   12    7     -0.78      0.00
    1   12    7      0.83      0.00
    2   12    7     -2.44      0.00
    3   12    7     -0.35      0.00
    4   12    7      0.85      0.00
    5   12    7     -1.64      0.00
    6   12    7      1.23      0.00
    7   12    7      0.46      0.00
    8   12    7     -0.61      0.00
    9   12    7      0.20      0.00
   10   12    7      1.39      0.00
   -5   13    7     -2.68      0.00
   -4   13    7      0.22      0.00
   -3   13    7      1.76      0.00
   -2   13    7      2.74      0.00
   -1   13    7     -0.14      0.00
    0   13    7     -0.16      0.00
    1   13    7     -1.59      0.00
    2   13    7      2.20      0.00
    3   13    7     -1.07      0.00
    4   13    7     -2.61      0.00
  -24    0    8      0.87      0.00
  -22    0    8     -0.82      0.00
  -20    0    8      0.74      0.00
  -18    0    8     -0.41      0.00
  -16    0    8     -0.16      0.00
  -14    0    8      2.14      0.00
  -12    0    8     -4.09      0.00
  -10    0    8      5.01      0.00
   -8    0    8     -7.85      0.00
   -6    0    8      2.98      0.00
   -4    0    8    -11.26      0.00
   -2    0    8     24.10      0.00
    0    0    8    -16.36      0.00
    2    0    8     14.36      0.00
    4    0    8     24.85      0.00
    6    0    8     -7.86      0.00
    8    0    8      2.04      0.00
   10    0    8     -0.73      0.00
   12    0    8      1.73      0.00
   14    0    8     -2.42      0.00
   16    0    8     -0.67      0.00
   18    0    8      0.47      0.00
   20    0    8      0.15      0.00
   22    0    8      0.26      0.00
   24    0    8     -1.11      0.00
  -25    1    8     -0.05      0.00
  -24    1    8      0.45      0.00
  -23    1    8     -0.10      0.00
  -22    1    8      0.25      0.00
  -21    1    8      0.05      0.00
  -20    1    8     -0.15      0.00
  -19    1    8      0.79      0.00
  -18    1    8     -0.12      0.00
  -17    1    8     -0.16      0.00
  -16    1    8     -0.06      0.00
  -15    1    8     -0.81      0.00
  -14    1    8      0.34      0.00
  -13    1    8      1.88      0.00
  -12    1    8      0.80      0.00
  -11    1    8     -2.69      0.00
  -10    1    8     -0.86      0.00
   -9    1    8      1.27      0.00
   -8    1    8      0.46      0.00
   -7    1    8     -1.43      0.00
   -6    1    8      3.71      0.00
   -5    1    8    -10.22      0.00
   -4    1    8     -8.37      0.00
   -3    1    8     19.11      0.00
   -2    1    8     -0.83      0.00
   -1    1    8    -10.22      0.00
    0    1    8     -2.17      0.00
    1    1    8      5.04      0.00
    2    1    8     -4.87      0.00
    3    1    8     16.66      0.00
    4    1    8      4.14      0.00
    5    1    8     10.02      0.00
    6    1    8     -0.19      0.00
    7    1    8     -6.56      0.00
    8    1    8      0.51      0.00
    9    1    8      1.84      0.00
   10    1    8      1.06      0.00
   11    1    8      2.16      0.00
   12    1    8     -0.40      0.00
   13    1    8     -2.70      0.00
   14    1    8      0.28      0.00
   15    1    8      0.88      0.00
   16    1    8      0.30      0.00
   17    1    8     -1.59      0.00
   18    1    8     -0.58      0.00
   19    1    8      1.13      0.00
   20    1    8      0.18      0.00
   21    1    8     -0.56      0.00
   22    1    8     -0.59      0.00
   23    1    8     -0.59      0.00
   24    1    8      1.27      0.00
   25    1    8      1.84      0.00
  -25    2    8      0.16      0.00
  -24    2    8     -0.94      0.00
  -23    2    8      0.37      0.00
  -22    2    8     -0.41      0.00
  -21    2    8      0.19      0.00
  -20    2    8      2.39      0.00
  -19    2    8     -0.17      0.00
  -18    2    8     -1.08      0.00
  -17    2    8     -0.12      0.00
  -16    2    8     -0.91      0.00
  -15    2    8     -0.26      0.00
  -14    2    8      2.13      0.00
  -13    2    8      2.47      0.00
  -12    2    8     -3.12      0.00
  -11    2    8     -1.55      0.00
  -10    2    8      3.42      0.00
   -9    2    8      0.45      0.00
   -8    2    8     -5.43      0.00
   -7    2    8      2.44      0.00
   -6    2    8      4.33      0.00
   -5    2    8     -1.08      0.00
   -4    2    8     -4.32      0.00
   -3    2    8    -11.75      0.00
   -2    2    8     10.84      0.00
   -1    2    8      2.04      0.00
    0    2    8     -8.31      0.00
    1    2    8     -4.99      0.00
    2    2    8      6.23      0.00
    3    2    8     -3.96      0.00
    4    2    8     15.62      0.00
    5    2    8      7.00      0.00
    6    2    8     -4.29      0.00
    7    2    8     -2.86      0.00
    8    2    8      0.63      0.00
    9    2    8      3.36      0.00
   10    2    8      0.30      0.00
   11    2    8     -0.33      0.00
   12    2    8      1.46      0.00
   13    2    8      0.13      0.00
   14    2    8     -0.94      0.00
   15    2    8      0.51      0.00
   16    2    8     -0.22      0.00
   17    2    8     -0.72      0.00
   18    2    8      0.04      0.00
   19    2    8      0.68      0.00
   20    2    8     -0.39      0.00
   21    2    8     -1.86      0.00
   22    2    8     -0.57      0.00
   23    2    8      1.66      0.00
   24    2    8      1.10      0.00
   25    2    8      0.63      0.00
  -25    3    8     -2.06      0.00
  -24    3    8      0.79      0.00
  -23    3    8     -0.56      0.00
  -22    3    8     -0.04      0.00
  -21    3    8      1.23      0.00
  -20    3    8     -0.28      0.00
  -19    3    8      0.02      0.00
  -18    3    8     -0.03      0.00
  -17    3    8     -0.78      0.00
  -16    3    8      0.80      0.00
  -15    3    8     -0.51      0.00
  -14    3    8     -0.30      0.00
  -13    3    8      2.07      0.00
  -12    3    8      1.74      0.00
  -11    3    8     -3.00      0.00
  -10    3    8     -1.12      0.00
   -9    3    8      1.81      0.00
   -8    3    8      0.73      0.00
   -7    3    8      0.66      0.00
   -6    3    8      3.57      0.00
   -5    3    8     -2.67      0.00
   -4    3    8    -12.24      0.00
   -3    3    8      8.51      0.00
   -2    3    8      1.88      0.00
   -1    3    8     -7.11      0.00
    0    3    8     -4.24      0.00
    1    3    8      4.42      0.00
    2    3    8     -3.79      0.00
    3    3    8      0.25      0.00
    4    3    8      1.88      0.00
    5    3    8      8.67      0.00
    6    3    8      2.04      0.00
    7    3    8     -4.76      0.00
    8    3    8      0.09      0.00
    9    3    8      1.27      0.00
   10    3    8      2.07      0.00
   11    3    8      1.62      0.00
   12    3    8      0.31      0.00
   13    3    8     -0.50      0.00
   14    3    8     -0.97      0.00
   15    3    8      0.20      0.00
   16    3    8      1.29      0.00
   17    3    8      0.49      0.00
   18    3    8     -1.73      0.00
   19    3    8     -0.80      0.00
   20    3    8      0.86      0.00
   21    3    8      0.01      0.00
   22    3    8     -0.64      0.00
   23    3    8      0.23      0.00
   24    3    8      0.76      0.00
  -24    4    8     -1.06      0.00
  -23    4    8     -0.07      0.00
  -22    4    8      0.00      0.00
  -21    4    8     -0.51      0.00
  -20    4    8      0.51      0.00
  -19    4    8      0.80      0.00
  -18    4    8     -1.40      0.00
  -17    4    8     -0.21      0.00
  -16    4    8     -0.13      0.00
  -15    4    8      0.29      0.00
  -14    4    8      1.63      0.00
  -13    4    8      1.23      0.00
  -12    4    8     -2.19      0.00
  -11    4    8     -1.66      0.00
  -10    4    8      1.96      0.00
   -9    4    8      2.24      0.00
   -8    4    8     -1.35      0.00
   -7    4    8     -0.75      0.00
   -6    4    8      3.48      0.00
   -5    4    8     -1.94      0.00
   -4    4    8     -2.87      0.00
   -3    4    8     -5.13      0.00
   -2    4    8      4.79      0.00
   -1    4    8      1.13      0.00
    0    4    8     -2.94      0.00
    1    4    8     -3.36      0.00
    2    4    8     -1.47      0.00
    3    4    8     -3.78      0.00
    4    4    8      3.80      0.00
    5    4    8      6.93      0.00
    6    4    8      0.24      0.00
    7    4    8     -3.26      0.00
    8    4    8     -1.14      0.00
    9    4    8      3.54      0.00
   10    4    8      0.96      0.00
   11    4    8      0.02      0.00
   12    4    8      0.78      0.00
   13    4    8     -0.40      0.00
   14    4    8      0.06      0.00
   15    4    8      0.26      0.00
   16    4    8      0.40      0.00
   17    4    8     -0.44      0.00
   18    4    8     -0.72      0.00
   19    4    8     -0.11      0.00
   20    4    8      0.75      0.00
   21    4    8     -0.30      0.00
   22    4    8      0.50      0.00
   23    4    8      1.38      0.00
   24    4    8     -0.79      0.00
  -23    5    8     -2.16      0.00
  -22    5    8     -0.68      0.00
  -21    5    8      2.30      0.00
  -20    5    8      0.92      0.00
  -19    5    8     -2.26      0.00
  -18    5    8     -0.22      0.00
  -17    5    8     -0.60      0.00
  -16    5    8      0.90      0.00
  -15    5    8      1.22      0.00
  -14    5    8     -0.14      0.00
  -13    5    8     -0.06      0.00
  -12    5    8      0.04      0.00
  -11    5    8     -0.87      0.00
  -10    5    8     -0.16      0.00
   -9    5    8      1.81      0.00
   -8    5    8      0.01      0.00
   -7    5    8     -0.47      0.00
   -6    5    8     -0.67      0.00
   -5    5    8      0.95      0.00
   -4    5    8     -4.26      0.00
   -3    5    8      1.92      0.00
   -2    5    8      3.96      0.00
   -1    5    8     -2.31      0.00
    0    5    8     -6.35      0.00
    1    5    8      1.74      0.00
    2    5    8      0.99      0.00
    3    5    8     -4.80      0.00
    4    5    8     -1.19      0.00
    5    5    8      4.49      0.00
    6    5    8      4.22      0.00
    7    5    8     -2.84      0.00
    8    5    8     -1.86      0.00
    9    5    8      0.33      0.00
   10    5    8      1.68      0.00
   11    5    8      1.32      0.00
   12    5    8     -0.14      0.00
   13    5    8     -0.11      0.00
   14    5    8      0.08      0.00
   15    5    8      0.80      0.00
   16    5    8     -0.82      0.00
   17    5    8     -0.32      0.00
   18    5    8      0.72      0.00
   19    5    8     -1.41      0.00
   20    5    8     -1.13      0.00
   21    5    8      2.65      0.00
   22    5    8      1.72      0.00
   23    5    8     -0.66      0.00
  -23    6    8     -0.45      0.00
  -22    6    8     -0.38      0.00
  -21    6    8      0.22      0.00
  -20    6    8      0.66      0.00
  -19    6    8      0.99      0.00
  -18    6    8     -2.22      0.00
  -17    6    8     -0.80      0.00
  -16    6    8      0.44      0.00
  -15    6    8      1.31      0.00
  -14    6    8      0.91      0.00
  -13    6    8      0.60      0.00
  -12    6    8     -0.62      0.00
  -11    6    8     -2.18      0.00
  -10    6    8      1.47      0.00
   -9    6    8      1.74      0.00
   -8    6    8     -1.01      0.00
   -7    6    8     -2.61      0.00
   -6    6    8      1.94      0.00
   -5    6    8     -0.71      0.00
   -4    6    8     -0.52      0.00
   -3    6    8      1.27      0.00
   -2    6    8      1.79      0.00
   -1    6    8     -1.56      0.00
    0    6    8     -2.56      0.00
    1    6    8     -0.37      0.00
    2    6    8     -0.26      0.00
    3    6    8     -2.10      0.00
    4    6    8     -1.05      0.00
    5    6    8      3.64      0.00
    6    6    8      0.66      0.00
    7    6    8     -1.32      0.00
    8    6    8     -2.10      0.00
    9    6    8      0.28      0.00
   10    6    8      1.06      0.00
   11    6    8      0.95      0.00
   12    6    8      1.23      0.00
   13    6    8     -0.52      0.00
   14    6    8     -0.36      0.00
   15    6    8      0.20      0.00
   16    6    8      1.24      0.00
   17    6    8     -0.88      0.00
   18    6    8     -2.13      0.00
   19    6    8      0.53      0.00
   20    6    8      0.54      0.00
   21    6    8     -0.83      0.00
   22    6    8      2.20      0.00
  -21    7    8      0.79      0.00
  -20    7    8      1.49      0.00
  -19    7    8     -1.30      0.00
  -18    7    8     -0.80      0.00
  -17    7    8     -0.81      0.00
  -16    7    8      0.30      0.00
  -15    7    8      1.01      0.00
  -14    7    8      0.76      0.00
  -13    7    8     -0.65      0.00
  -12    7    8     -0.13      0.00
  -11    7    8      1.71      0.00
  -10    7    8     -0.83      0.00
   -9    7    8      0.03      0.00
   -8    7    8     -0.38      0.00
   -7    7    8     -0.76      0.00
   -6    7    8     -0.39      0.00
   -5    7    8      1.81      0.00
   -4    7    8     -0.72      0.00
   -3    7    8     -0.59      0.00
   -2    7    8      2.34      0.00
   -1    7    8     -0.32      0.00
    0    7    8     -2.32      0.00
    1    7    8     -0.70      0.00
    2    7    8      1.39      0.00
    3    7    8     -0.82      0.00
    4    7    8     -0.22      0.00
    5    7    8     -0.08      0.00
    6    7    8      0.75      0.00
    7    7    8     -0.93      0.00
    8    7    8     -0.82      0.00
    9    7    8      0.07      0.00
   10    7    8      0.49      0.00
   11    7    8      0.85      0.00
   12    7    8      1.40      0.00
   13    7    8      0.06      0.00
   14    7    8     -0.87      0.00
   15    7    8      1.35      0.00
   16    7    8     -0.17      0.00
   17    7    8     -0.79      0.00
   18    7    8     -1.00      0.00
   19    7    8     -0.32      0.00
   20    7    8     -0.21      0.00
   21    7    8      0.62      0.00
  -20    8    8     -1.42      0.00
  -19    8    8     -0.54      0.00
  -18    8    8      0.20      0.00
  -17    8    8     -0.14      0.00
  -16    8    8     -0.06      0.00
  -15    8    8     -0.10      0.00
  -14    8    8     -0.24      0.00
  -13    8    8      0.21      0.00
  -12    8    8      0.00      0.00
  -11    8    8     -0.41      0.00
  -10    8    8      2.05      0.00
   -9    8    8      0.20      0.00
   -8    8    8     -1.34      0.00
   -7    8    8     -0.06      0.00
   -6    8    8      0.85      0.00
   -5    8    8      0.49      0.00
   -4    8    8     -0.32      0.00
   -3    8    8      0.10      0.00
   -2    8    8      0.18      0.00
   -1    8    8      0.38      0.00
    0    8    8     -1.04      0.00
    1    8    8      0.64      0.00
    2    8    8      0.19      0.00
    3    8    8     -0.13      0.00
    4    8    8     -0.93      0.00
    5    8    8      1.34      0.00
    6    8    8      0.39      0.00
    7    8    8     -0.44      0.00
    8    8    8     -0.86      0.00
    9    8    8     -0.26      0.00
   10    8    8      1.00      0.00
   11    8    8      1.58      0.00
   12    8    8      1.10      0.00
   13    8    8      0.87      0.00
   14    8    8     -1.19      0.00
   15    8    8     -0.76      0.00
   16    8    8      2.65      0.00
   17    8    8     -1.50      0.00
   18    8    8     -1.15      0.00
   19    8    8     -0.05      0.00
  -18    9    8      0.21      0.00
  -17    9    8      0.45      0.00
  -16    9    8     -1.50      0.00
  -15    9    8     -0.80      0.00
  -14    9    8      0.64      0.00
  -13    9    8     -0.71      0.00
  -12    9    8     -0.68      0.00
  -11    9    8      1.78      0.00
  -10    9    8      0.62      0.00
   -9    9    8     -0.90      0.00
   -8    9    8      0.09      0.00
   -7    9    8      0.76      0.00
   -6    9    8      0.96      0.00
   -5    9    8      0.28      0.00
   -4    9    8      0.75      0.00
   -3    9    8     -0.63      0.00
   -2    9    8     -0.80      0.00
   -1    9    8      0.13      0.00
    0    9    8      1.00      0.00
    1    9    8     -1.09      0.00
    2    9    8     -0.05      0.00
    3    9    8      0.88      0.00
    4    9    8      0.89      0.00
    5    9    8     -1.07      0.00
    6    9    8      0.48      0.00
    7    9    8     -0.20      0.00
    8    9    8      0.20      0.00
    9    9    8      0.62      0.00
   10    9    8      1.04      0.00
   11    9    8      0.88      0.00
   12    9    8      0.98      0.00
   13    9    8     -0.08      0.00
   14    9    8     -0.20      0.00
   15    9    8      0.96      0.00
   16    9    8     -0.17      0.00
   17    9    8      1.01      0.00
   18    9    8     -1.62      0.00
  -16   10    8      1.09      0.00
  -15   10    8     -1.03      0.00
  -14   10    8     -1.97      0.00
  -13   10    8      0.86      0.00
  -12   10    8      0.57      0.00
  -11   10    8     -0.50      0.00
  -10   10    8      0.01      0.00
   -9   10    8     -0.12      0.00
   -8   10    8      0.58      0.00
   -7   10    8      1.05      0.00
   -6   10    8      0.31      0.00
   -5   10    8      0.48      0.00
   -4   10    8      0.04      0.00
   -3   10    8     -0.60      0.00
   -2   10    8      0.06      0.00
   -1   10    8      0.82      0.00
    0   10    8     -0.59      0.00
    1   10    8     -0.31      0.00
    2   10    8      0.13      0.00
    3   10    8     -0.52      0.00
    4   10    8      0.08      0.00
    5   10    8      1.49      0.00
    6   10    8     -1.26      0.00
    7   10    8     -0.04      0.00
    8   10    8      0.35      0.00
    9   10    8      1.48      0.00
   10   10    8      0.56      0.00
   11   10    8      0.36      0.00
   12   10    8      0.23      0.00
   13   10    8     -0.11      0.00
   14   10    8      1.06      0.00
   15   10    8      0.10      0.00
   16   10    8      0.43      0.00
  -13   11    8     -0.97      0.00
  -12   11    8      0.62      0.00
  -11   11    8      0.58      0.00
  -10   11    8     -1.05      0.00
   -9   11    8     -0.10      0.00
   -8   11    8     -0.11      0.00
   -7   11    8      0.75      0.00
   -6   11    8      0.10      0.00
   -5   11    8     -0.03      0.00
   -4   11    8     -0.44      0.00
   -3   11    8      0.01      0.00
   -2   11    8      0.24      0.00
   -1   11    8      0.76      0.00
    0   11    8      0.57      0.00
    1   11    8     -0.16      0.00
    2   11    8     -2.47      0.00
    3   11    8      0.45      0.00
    4   11    8      1.54      0.00
    5   11    8     -1.60      0.00
    6   11    8      0.09      0.00
    7   11    8      0.08      0.00
    8   11    8      0.56      0.00
    9   11    8      0.32      0.00
   10   11    8      1.52      0.00
   11   11    8     -0.32      0.00
   12   11    8     -0.95      0.00
   13   11    8      1.41      0.00
  -10   12    8     -0.18      0.00
   -9   12    8     -0.50      0.00
   -8   12    8      1.22      0.00
   -7   12    8      0.09      0.00
   -6   12    8     -1.23      0.00
   -5   12    8     -2.79      0.00
   -4   12    8      0.29      0.00
   -3   12    8      1.92      0.00
   -2   12    8      1.18      0.00
   -1   12    8     -0.48      0.00
    0   12    8      0.62      0.00
    1   12    8     -1.05      0.00
    2   12    8      1.16      0.00
    3   12    8     -1.60      0.00
    4   12    8     -1.88      0.00
    5   12    8      1.67      0.00
    6   12    8     -0.45      0.00
    7   12    8      0.15      0.00
    8   12    8      0.61      0.00
    9   12    8      0.24      0.00
   10   12    8     -0.43      0.00
   -3   13    8      2.10      0.00
   -2   13    8      1.60      0.00
   -1   13    8      0.50      0.00
    0   13    8     -1.29      0.00
    1   13    8      1.06      0.00
    2   13    8     -1.77      0.00
    3   13    8      0.44      0.00
  -25    0    9      1.58      0.00
  -23    0    9     -0.84      0.00
  -21    0    9      0.06      0.00
  -19    0    9      0.74      0.00
  -17    0    9      0.36      0.00
  -15    0    9     -1.39      0.00
  -13    0    9      2.65      0.00
  -11    0    9     -2.97      0.00
   -9    0    9      3.02      0.00
   -7    0    9     -6.00      0.00
   -5    0    9     -7.69      0.00
   -3    0    9     18.74      0.00
   -1    0    9    -11.61      0.00
    1    0    9      3.14      0.00
    3    0    9     17.02      0.00
    5    0    9     10.05      0.00
    7    0    9     -4.97      0.00
    9    0    9      1.67      0.00
   11    0    9      1.64      0.00
   13    0    9     -2.47      0.00
   15    0    9      0.68      0.00
   17    0    9     -2.03      0.00
   19    0    9      1.56      0.00
   21    0    9     -0.17      0.00
   23    0    9     -1.28      0.00
   25    0    9      1.63      0.00
  -25    1    9      0.78      0.00
  -24    1    9     -0.13      0.00
  -23    1    9     -0.24      0.00
  -22    1    9     -0.49      0.00
  -21    1    9      0.09      0.00
  -20    1    9      1.57      0.00
  -19    1    9      0.27      0.00
  -18    1    9     -0.55      0.00
  -17    1    9     -0.12      0.00
  -16    1    9     -0.07      0.00
  -15    1    9     -0.28      0.00
  -14    1    9      1.17      0.00
  -13    1    9      1.00      0.00
  -12    1    9     -2.28      0.00
  -11    1    9     -0.22      0.00
  -10    1    9      4.11      0.00
   -9    1    9      0.30      0.00
   -8    1    9     -7.12      0.00
   -7    1    9      0.67      0.00
   -6    1    9      1.40      0.00
   -5    1    9      0.45      0.00
   -4    1    9     -4.12      0.00
   -3    1    9     -6.09      0.00
   -2    1    9     15.22      0.00
   -1    1    9     -0.03      0.00
    0    1    9    -15.08      0.00
    1    1    9     -4.73      0.00
    2    1    9     11.39      0.00
    3    1    9     -0.43      0.00
    4    1    9     18.44      0.00
    5    1    9      3.37      0.00
    6    1    9     -4.71      0.00
    7    1    9     -2.17      0.00
    8    1    9      2.19      0.00
    9    1    9      2.57      0.00
   10    1    9     -1.10      0.00
   11    1    9     -1.00      0.00
   12    1    9      2.21      0.00
   13    1    9      0.63      0.00
   14    1    9     -2.14      0.00
   15    1    9      0.08      0.00
   16    1    9     -0.04      0.00
   17    1    9     -0.33      0.00
   18    1    9     -0.34      0.00
   19    1    9      0.96      0.00
   20    1    9      0.27      0.00
   21    1    9     -2.01      0.00
   22    1    9     -0.47      0.00
   23    1    9      1.74      0.00
   24    1    9     -0.24      0.00
   25    1    9      0.44      0.00
  -25    2    9     -1.06      0.00
  -24    2    9      1.34      0.00
  -23    2    9     -0.18      0.00
  -22    2    9     -0.94      0.00
  -21    2    9      0.57      0.00
  -20    2    9      0.58      0.00
  -19    2    9      1.38      0.00
  -18    2    9     -0.23      0.00
  -17    2    9     -1.00      0.00
  -16    2    9      0.37      0.00
  -15    2    9     -0.48      0.00
  -14    2    9     -0.15      0.00
  -13    2    9      1.82      0.00
  -12    2    9      1.76      0.00
  -11    2    9     -2.38      0.00
  -10    2    9     -1.09      0.00
   -9    2    9      1.89      0.00
   -8    2    9      1.13      0.00
   -7    2    9     -3.26      0.00
   -6    2    9      2.66      0.00
   -5    2    9     -1.87      0.00
   -4    2    9     -8.97      0.00
   -3    2    9     11.76      0.00
   -2    2    9      1.00      0.00
   -1    2    9    -10.22      0.00
    0    2    9     -7.03      0.00
    1    2    9      3.44      0.00
    2    2    9     -2.88      0.00
    3    2    9      8.58      0.00
    4    2    9      3.44      0.00
    5    2    9      7.76      0.00
    6    2    9     -0.81      0.00
    7    2    9     -4.47      0.00
    8    2    9      1.24      0.00
    9    2    9      1.74      0.00
   10    2    9      1.50      0.00
   11    2    9      1.48      0.00
   12    2    9     -0.08      0.00
   13    2    9     -1.03      0.00
   14    2    9     -0.42      0.00
   15    2    9      0.65      0.00
   16    2    9      1.18      0.00
   17    2    9     -0.26      0.00
   18    2    9     -1.32      0.00
   19    2    9     -0.39      0.00
   20    2    9      0.71      0.00
   21    2    9     -1.02      0.00
   22    2    9     -1.16      0.00
   23    2    9      0.55      0.00
   24    2    9      1.68      0.00
  -25    3    9     -0.04      0.00
  -24    3    9     -0.31      0.00
  -23    3    9     -0.22      0.00
  -22    3    9     -0.56      0.00
  -21    3    9     -0.13      0.00
  -20    3    9      1.38      0.00
  -19    3    9      0.56      0.00
  -18    3    9     -0.39      0.00
  -17    3    9     -0.51      0.00
  -16    3    9     -0.91      0.00
  -15    3    9      0.45      0.00
  -14    3    9      1.37      0.00
  -13    3    9      1.53      0.00
  -12    3    9     -1.88      0.00
  -11    3    9     -1.34      0.00
  -10    3    9      2.39      0.00
   -9    3    9      1.85      0.00
   -8    3    9     -3.75      0.00
   -7    3    9      0.58      0.00
   -6    3    9      4.37      0.00
   -5    3    9     -2.01      0.00
   -4    3    9     -2.33      0.00
   -3    3    9     -6.20      0.00
   -2    3    9      6.25      0.00
   -1    3    9      0.55      0.00
    0    3    9     -7.18      0.00
    1    3    9     -6.01      0.00
    2    3    9      3.08      0.00
    3    3    9     -1.01      0.00
    4    3    9      7.79      0.00
    5    3    9      4.42      0.00
    6    3    9     -2.36      0.00
    7    3    9     -3.06      0.00
    8    3    9      1.10      0.00
    9    3    9      4.11      0.00
   10    3    9     -0.17      0.00
   11    3    9      0.11      0.00
   12    3    9      1.31      0.00
   13    3    9     -0.43      0.00
   14    3    9      0.11      0.00
   15    3    9      0.39      0.00
   16    3    9      0.31      0.00
   17    3    9     -0.43      0.00
   18    3    9     -0.29      0.00
   19    3    9      0.02      0.00
   20    3    9     -0.13      0.00
   21    3    9     -1.03      0.00
   22    3    9     -0.62      0.00
   23    3    9      1.74      0.00
   24    3    9      0.48      0.00
  -24    4    9     -0.67      0.00
  -23    4    9     -0.59      0.00
  -22    4    9     -0.01      0.00
  -21    4    9      0.42      0.00
  -20    4    9      0.04      0.00
  -19    4    9     -0.14      0.00
  -18    4    9      0.34      0.00
  -17    4    9     -0.53      0.00
  -16    4    9      0.38      0.00
  -15    4    9     -0.29      0.00
  -14    4    9     -0.41      0.00
  -13    4    9      1.18      0.00
  -12    4    9      0.92      0.00
  -11    4    9     -1.97      0.00
  -10    4    9     -0.48      0.00
   -9    4    9      2.01      0.00
   -8    4    9      1.16      0.00
   -7    4    9     -0.59      0.00
   -6    4    9      0.09      0.00
   -5    4    9      0.90      0.00
   -4    4    9     -6.31      0.00
   -3    4    9      2.82      0.00
   -2    4    9      3.65      0.00
   -1    4    9     -3.16      0.00
    0    4    9     -7.15      0.00
    1    4    9      1.71      0.00
    2    4    9     -0.26      0.00
    3    4    9     -2.52      0.00
    4    4    9      0.23      0.00
    5    4    9      5.58      0.00
    6    4    9      2.51      0.00
    7    4    9     -3.54      0.00
    8    4    9     -1.20      0.00
    9    4    9      1.41      0.00
   10    4    9      2.99      0.00
   11    4    9      0.81      0.00
   12    4    9     -0.36      0.00
   13    4    9      0.13      0.00
   14    4    9     -0.47      0.00
   15    4    9      0.44      0.00
   16    4    9      0.33      0.00
   17    4    9      0.59      0.00
   18    4    9     -0.89      0.00
   19    4    9     -1.24      0.00
   20    4    9     -0.05      0.00
   21    4    9      1.64      0.00
   22    4    9      0.90      0.00
   23    4    9     -1.21      0.00
  -23    5    9      0.00      0.00
  -22    5    9     -0.55      0.00
  -21    5    9     -0.62      0.00
  -20    5    9      0.64      0.00
  -19    5    9      1.66      0.00
  -18    5    9     -1.16      0.00
  -17    5    9     -0.90      0.00
  -16    5    9     -0.28      0.00
  -15    5    9      0.38      0.00
  -14    5    9      0.93      0.00
  -13    5    9      0.95      0.00
  -12    5    9     -0.82      0.00
  -11    5    9     -2.35      0.00
  -10    5    9      0.86      0.00
   -9    5    9      2.89      0.00
   -8    5    9     -0.47      0.00
   -7    5    9     -2.64      0.00
   -6    5    9      1.96      0.00
   -5    5    9     -0.76      0.00
   -4    5    9     -0.64      0.00
   -3    5    9     -0.51      0.00
   -2    5    9      2.36      0.00
   -1    5    9     -0.72      0.00
    0    5    9     -2.45      0.00
    1    5    9     -3.33      0.00
    2    5    9     -0.81      0.00
    3    5    9     -1.38      0.00
    4    5    9      0.31      0.00
    5    5    9      4.44      0.00
    6    5    9      0.26      0.00
    7    5    9     -2.38      0.00
    8    5    9     -1.57      0.00
    9    5    9      2.45      0.00
   10    5    9      1.27      0.00
   11    5    9      0.05      0.00
   12    5    9      0.79      0.00
   13    5    9     -0.47      0.00
   14    5    9      0.05      0.00
   15    5    9      0.25      0.00
   16    5    9      0.69      0.00
   17    5    9     -0.33      0.00
   18    5    9     -1.71      0.00
   19    5    9     -0.34      0.00
   20    5    9      1.58      0.00
   21    5    9     -0.23      0.00
   22    5    9      0.33      0.00
   23    5    9      1.90      0.00
  -23    6    9     -1.84      0.00
  -22    6    9     -0.53      0.00
  -21    6    9      2.14      0.00
  -20    6    9      1.11      0.00
  -19    6    9     -2.15      0.00
  -18    6    9     -0.14      0.00
  -17    6    9     -0.13      0.00
  -16    6    9      0.13      0.00
  -15    6    9      0.38      0.00
  -14    6    9      0.43      0.00
  -13    6    9      0.13      0.00
  -12    6    9      0.14      0.00
  -11    6    9      0.27      0.00
  -10    6    9     -1.36      0.00
   -9    6    9      0.80      0.00
   -8    6    9      0.43      0.00
   -7    6    9     -0.95      0.00
   -6    6    9     -1.52      0.00
   -5    6    9      2.01      0.00
   -4    6    9     -1.39      0.00
   -3    6    9      0.66      0.00
   -2    6    9      3.56      0.00
   -1    6    9     -1.20      0.00
    0    6    9     -5.29      0.00
    1    6    9     -0.12      0.00
    2    6    9      1.63      0.00
    3    6    9     -1.90      0.00
    4    6    9     -0.86      0.00
    5    6    9      0.91      0.00
    6    6    9      1.92      0.00
    7    6    9     -1.73      0.00
    8    6    9     -0.65      0.00
    9    6    9      0.16      0.00
   10    6    9      0.53      0.00
   11    6    9      0.94      0.00
   12    6    9      0.40      0.00
   13    6    9      0.32      0.00
   14    6    9     -0.27      0.00
   15    6    9      1.03      0.00
   16    6    9     -0.32      0.00
   17    6    9     -1.44      0.00
   18    6    9      0.10      0.00
   19    6    9     -0.45      0.00
   20    6    9     -0.92      0.00
   21    6    9      1.25      0.00
   22    6    9      0.88      0.00
  -21    7    9      0.19      0.00
  -20    7    9     -0.44      0.00
  -19    7    9      0.52      0.00
  -18    7    9     -1.25      0.00
  -17    7    9     -0.76      0.00
  -16    7    9      0.56      0.00
  -15    7    9      0.91      0.00
  -14    7    9     -0.10      0.00
  -13    7    9      0.38      0.00
  -12    7    9      0.13      0.00
  -11    7    9     -1.49      0.00
  -10    7    9      1.59      0.00
   -9    7    9      0.72      0.00
   -8    7    9     -0.81      0.00
   -7    7    9     -1.41      0.00
   -6    7    9      0.63      0.00
   -5    7    9     -0.10      0.00
   -4    7    9     -0.01      0.00
   -3    7    9      0.38      0.00
   -2    7    9      1.43      0.00
   -1    7    9      0.55      0.00
    0    7    9     -2.19      0.00
    1    7    9     -0.73      0.00
    2    7    9      0.09      0.00
    3    7    9     -0.45      0.00
    4    7    9     -0.86      0.00
    5    7    9      1.97      0.00
    6    7    9      0.52      0.00
    7    7    9     -0.87      0.00
    8    7    9     -1.60      0.00
    9    7    9     -0.19      0.00
   10    7    9      0.70      0.00
   11    7    9      1.39      0.00
   12    7    9      1.73      0.00
   13    7    9      0.07      0.00
   14    7    9     -1.28      0.00
   15    7    9     -0.04      0.00
   16    7    9      1.83      0.00
   17    7    9     -1.28      0.00
   18    7    9     -1.95      0.00
   19    7    9      0.18      0.00
   20    7    9      0.82      0.00
   21    7    9     -1.10      0.00
  -20    8    9      0.91      0.00
  -19    8    9     -0.38      0.00
  -18    8    9     -0.51      0.00
  -17    8    9     -0.44      0.00
  -16    8    9     -0.46      0.00
  -15    8    9      0.31      0.00
  -14    8    9      0.58      0.00
  -13    8    9     -0.99      0.00
  -12    8    9     -0.96      0.00
  -11    8    9      2.06      0.00
  -10    8    9      0.17      0.00
   -9    8    9     -0.07      0.00
   -8    8    9      0.33      0.00
   -7    8    9     -0.51      0.00
   -6    8    9     -0.26      0.00
   -5    8    9      1.07      0.00
   -4    8    9      0.41      0.00
   -3    8    9     -1.07      0.00
   -2    8    9      0.61      0.00
   -1    8    9      0.79      0.00
    0    8    9     -0.39      0.00
    1    8    9     -1.20      0.00
    2    8    9      0.63      0.00
    3    8    9     -0.22      0.00
    4    8    9      0.77      0.00
    5    8    9      0.13      0.00
    6    8    9      0.67      0.00
    7    8    9     -0.52      0.00
    8    8    9     -0.77      0.00
    9    8    9      0.15      0.00
   10    8    9      0.88      0.00
   11    8    9      1.22      0.00
   12    8    9      1.92      0.00
   13    8    9     -0.41      0.00
   14    8    9     -0.88      0.00
   15    8    9      1.05      0.00
   16    8    9      0.61      0.00
   17    8    9      0.12      0.00
   18    8    9     -2.91      0.00
   19    8    9      0.46      0.00
   20    8    9      0.65      0.00
  -18    9    9      0.74      0.00
  -17    9    9      0.06      0.00
  -16    9    9     -0.42      0.00
  -15    9    9     -0.76      0.00
  -14    9    9     -0.76      0.00
  -13    9    9     -0.30      0.00
  -12    9    9      0.05      0.00
  -11    9    9     -0.37      0.00
  -10    9    9      1.48      0.00
   -9    9    9      0.63      0.00
   -8    9    9     -0.96      0.00
   -7    9    9      0.56      0.00
   -6    9    9      0.94      0.00
   -5    9    9      0.77      0.00
   -4    9    9     -0.41      0.00
   -3    9    9      0.10      0.00
   -2    9    9     -0.08      0.00
   -1    9    9     -0.20      0.00
    0    9    9     -0.60      0.00
    1    9    9      0.64      0.00
    2    9    9     -0.04      0.00
    3    9    9     -0.03      0.00
    4    9    9     -0.19      0.00
    5    9    9      1.52      0.00
    6    9    9     -0.37      0.00
    7    9    9      0.12      0.00
    8    9    9     -0.29      0.00
    9    9    9      0.32      0.00
   10    9    9      1.07      0.00
   11    9    9      0.89      0.00
   12    9    9      0.39      0.00
   13    9    9      1.63      0.00
   14    9    9      0.01      0.00
   15    9    9     -0.95      0.00
   16    9    9      1.56      0.00
   17    9    9     -0.96      0.00
   18    9    9      0.31      0.00
  -16   10    9     -1.10      0.00
  -15   10    9     -1.24      0.00
  -14   10    9     -0.11      0.00
  -13   10    9     -0.54      0.00
  -12   10    9     -0.04      0.00
  -11   10    9      1.04      0.00
  -10   10    9      0.20      0.00
   -9   10    9     -0.99      0.00
   -8   10    9     -0.94      0.00
   -7   10    9      1.00      0.00
   -6   10    9      2.05      0.00
   -5   10    9      0.50      0.00
   -4   10    9      0.03      0.00
   -3   10    9     -0.97      0.00
   -2   10    9     -0.92      0.00
   -1   10    9      0.38      0.00
    0   10    9      1.19      0.00
    1   10    9     -1.01      0.00
    2   10    9     -1.36      0.00
    3   10    9      1.22      0.00
    4   10    9      1.68      0.00
    5   10    9     -1.68      0.00
    6   10    9     -0.04      0.00
    7   10    9     -0.10      0.00
    8   10    9      0.92      0.00
    9   10    9      0.35      0.00
   10   10    9      0.88      0.00
   11   10    9      0.33      0.00
   12   10    9      0.31      0.00
   13   10    9      0.51      0.00
   14   10    9     -0.28      0.00
   15   10    9      0.93      0.00
   16   10    9      0.29      0.00
  -13   11    9      0.53      0.00
  -12   11    9     -0.26      0.00
  -11   11    9      0.04      0.00
  -10   11    9     -0.06      0.00
   -9   11    9     -1.52      0.00
   -8   11    9      0.54      0.00
   -7   11    9      0.85      0.00
   -6   11    9      0.08      0.00
   -5   11    9     -0.74      0.00
   -4   11    9      0.17      0.00
   -3   11    9      0.26      0.00
   -2   11    9     -0.51      0.00
   -1   11    9      0.00      0.00
    0   11    9      0.45      0.00
    1   11    9     -0.31      0.00
    2   11    9      0.42      0.00
    3   11    9     -1.47      0.00
    4   11    9     -0.82      0.00
    5   11    9      2.10      0.00
    6   11    9     -0.83      0.00
    7   11    9     -0.45      0.00
    8   11    9      0.11      0.00
    9   11    9      1.09      0.00
   10   11    9      0.28      0.00
   11   11    9      0.57      0.00
   12   11    9     -0.27      0.00
   13   11    9     -1.06      0.00
  -10   12    9     -1.41      0.00
   -9   12    9     -0.08      0.00
   -8   12    9      0.41      0.00
   -7   12    9      0.40      0.00
   -6   12    9     -2.06      0.00
   -5   12    9     -0.64      0.00
   -4   12    9     -0.29      0.00
   -3   12    9      0.48      0.00
   -2   12    9      0.83      0.00
   -1   12    9      0.23      0.00
    0   12    9     -0.53      0.00
    1   12    9      0.91      0.00
    2   12    9     -2.41      0.00
    3   12    9      0.30      0.00
    4   12    9      1.63      0.00
    5   12    9     -1.75      0.00
    6   12    9     -0.18      0.00
    7   12    9     -0.03      0.00
    8   12    9      0.33      0.00
    9   12    9      0.73      0.00
   10   12    9      1.08      0.00
   -3   13    9      1.40      0.00
   -2   13    9      1.71      0.00
    0   13    9     -0.25      0.00
    1   13    9     -1.11      0.00
    2   13    9      1.78      0.00
  -24    0   10      1.25      0.00
  -22    0   10     -1.23      0.00
  -20    0   10      1.13      0.00
  -18    0   10     -0.08      0.00
  -16    0   10      0.68      0.00
  -14    0   10     -0.25      0.00
  -12    0   10     -0.74      0.00
  -10    0   10      4.03      0.00
   -8    0   10     -7.23      0.00
   -6    0   10     -1.26      0.00
   -4    0   10     -1.19      0.00
   -2    0   10     12.60      0.00
    0    0   10    -16.21      0.00
    2    0   10     13.16      0.00
    4    0   10     14.69      0.00
    6    0   10     -2.36      0.00
    8    0   10      3.47      0.00
   10    0   10     -2.61      0.00
   12    0   10      2.72      0.00
   14    0   10     -2.41      0.00
   16    0   10     -0.19      0.00
   18    0   10     -0.61      0.00
   20    0   10      0.93      0.00
   22    0   10     -0.45      0.00
   24    0   10     -1.15      0.00
  -25    1   10      1.19      0.00
  -24    1   10      1.23      0.00
  -23    1   10     -0.71      0.00
  -22    1   10     -0.87      0.00
  -21    1   10      0.08      0.00
  -20    1   10      0.48      0.00
  -19    1   10      1.60      0.00
  -18    1   10      0.02      0.00
  -17    1   10     -0.60      0.00
  -16    1   10      0.17      0.00
  -15    1   10     -0.39      0.00
  -14    1   10     -0.23      0.00
  -13    1   10      1.76      0.00
  -12    1   10      0.66      0.00
  -11    1   10     -1.95      0.00
  -10    1   10      0.12      0.00
   -9    1   10      2.95      0.00
   -8    1   10      0.56      0.00
   -7    1   10     -7.45      0.00
   -6    1   10      0.77      0.00
   -5    1   10     -1.96      0.00
   -4    1   10     -4.03      0.00
   -3    1   10     13.84      0.00
   -2    1   10      1.81      0.00
   -1    1   10    -12.71      0.00
    0    1   10     -7.51      0.00
    1    1   10      4.12      0.00
    2    1   10     -0.23      0.00
    3    1   10     11.25      0.00
    4    1   10      2.40      0.00
    5    1   10      7.80      0.00
    6    1   10     -1.65      0.00
    7    1   10     -2.58      0.00
    8    1   10      1.41      0.00
    9    1   10      1.65      0.00
   10    1   10      0.45      0.00
   11    1   10      0.62      0.00
   12    1   10     -0.18      0.00
   13    1   10     -0.99      0.00
   14    1   10     -0.07      0.00
   15    1   10      0.31      0.00
   16    1   10      0.67      0.00
   17    1   10     -1.09      0.00
   18    1   10     -0.40      0.00
   19    1   10      0.36      0.00
   20    1   10      0.27      0.00
   21    1   10     -0.52      0.00
   22    1   10     -0.89      0.00
   23    1   10     -0.36      0.00
   24    1   10      1.32      0.00
   25    1   10      0.54      0.00
  -25    2   10      0.46      0.00
  -24    2   10     -0.84      0.00
  -23    2   10     -0.29      0.00
  -22    2   10      0.14      0.00
  -21    2   10     -0.39      0.00
  -20    2   10      1.37      0.00
  -19    2   10      0.93      0.00
  -18    2   10     -0.07      0.00
  -17    2   10     -0.69      0.00
  -16    2   10     -0.61      0.00
  -15    2   10      0.53      0.00
  -14    2   10      1.12      0.00
  -13    2   10      0.78      0.00
  -12    2   10     -1.32      0.00
  -11    2   10     -0.19      0.00
  -10    2   10      2.53      0.00
   -9    2   10      1.33      0.00
   -8    2   10     -5.39      0.00
   -7    2   10      0.29      0.00
   -6    2   10      2.44      0.00
   -5    2   10     -1.24      0.00
   -4    2   10     -0.64      0.00
   -3    2   10     -3.99      0.00
   -2    2   10      7.51      0.00
   -1    2   10     -1.27      0.00
    0    2   10    -11.37      0.00
    1    2   10     -7.96      0.00
    2    2   10      7.85      0.00
    3    2   10      2.37      0.00
    4    2   10     10.25      0.00
    5    2   10      1.75      0.00
    6    2   10     -2.56      0.00
    7    2   10     -2.61      0.00
    8    2   10      2.38      0.00
    9    2   10      4.00      0.00
   10    2   10     -1.26      0.00
   11    2   10     -0.73      0.00
   12    2   10      1.88      0.00
   13    2   10      0.06      0.00
   14    2   10     -0.49      0.00
   15    2   10      0.31      0.00
   16    2   10      0.26      0.00
   17    2   10     -0.08      0.00
   18    2   10     -0.35      0.00
   19    2   10      0.59      0.00
   20    2   10     -0.71      0.00
   21    2   10     -1.98      0.00
   22    2   10     -0.71      0.00
   23    2   10      1.99      0.00
   24    2   10      0.65      0.00
  -25    3   10     -1.74      0.00
  -24    3   10      0.12      0.00
  -23    3   10      0.05      0.00
  -22    3   10     -0.97      0.00
  -21    3   10      0.14      0.00
  -20    3   10      0.49      0.00
  -19    3   10      0.86      0.00
  -18    3   10      0.26      0.00
  -17    3   10     -0.27      0.00
  -16    3   10     -0.01      0.00
  -15    3   10     -1.11      0.00
  -14    3   10      0.02      0.00
  -13    3   10      1.97      0.00
  -12    3   10      1.48      0.00
  -11    3   10     -2.46      0.00
  -10    3   10     -0.93      0.00
   -9    3   10      2.08      0.00
   -8    3   10      1.99      0.00
   -7    3   10     -2.69      0.00
   -6    3   10      0.02      0.00
   -5    3   10      2.30      0.00
   -4    3   10     -5.99      0.00
   -3    3   10      4.11      0.00
   -2    3   10      3.30      0.00
   -1    3   10     -5.36      0.00
    0    3   10     -9.63      0.00
    1    3   10      1.48      0.00
    2    3   10      0.11      0.00
    3    3   10      2.19      0.00
    4    3   10      1.81      0.00
    5    3   10      5.95      0.00
    6    3   10     -0.93      0.00
    7    3   10     -3.64      0.00
    8    3   10      0.79      0.00
    9    3   10      1.87      0.00
   10    3   10      2.71      0.00
   11    3   10      0.80      0.00
   12    3   10     -0.35      0.00
   13    3   10     -0.22      0.00
   14    3   10     -0.70      0.00
   15    3   10      0.94      0.00
   16    3   10      1.30      0.00
   17    3   10      0.59      0.00
   18    3   10     -1.85      0.00
   19    3   10     -1.09      0.00
   20    3   10      0.94      0.00
   21    3   10     -0.47      0.00
   22    3   10     -0.63      0.00
   23    3   10      0.04      0.00
   24    3   10      1.46      0.00
  -24    4   10      0.38      0.00
  -23    4   10     -0.44      0.00
  -22    4   10     -1.09      0.00
  -21    4   10     -0.38      0.00
  -20    4   10      0.40      0.00
  -19    4   10      1.41      0.00
  -18    4   10      0.49      0.00
  -17    4   10     -0.95      0.00
  -16    4   10     -0.90      0.00
  -15    4   10      0.19      0.00
  -14    4   10      0.08      0.00
  -13    4   10      1.09      0.00
  -12    4   10     -0.30      0.00
  -11    4   10     -1.84      0.00
  -10    4   10      0.70      0.00
   -9    4   10      3.00      0.00
   -8    4   10     -1.54      0.00
   -7    4   10     -1.53      0.00
   -6    4   10      3.24      0.00
   -5    4   10     -1.01      0.00
   -4    4   10     -1.40      0.00
   -3    4   10     -1.71      0.00
   -2    4   10      3.20      0.00
   -1    4   10     -0.73      0.00
    0    4   10     -3.68      0.00
    1    4   10     -5.85      0.00
    2    4   10     -0.03      0.00
    3    4   10      1.05      0.00
    4    4   10      3.65      0.00
    5    4   10      2.50      0.00
    6    4   10     -1.82      0.00
    7    4   10     -2.64      0.00
    8    4   10      0.74      0.00
    9    4   10      3.92      0.00
   10    4   10      0.08      0.00
   11    4   10      0.03      0.00
   12    4   10      1.25      0.00
   13    4   10     -0.56      0.00
   14    4   10     -0.11      0.00
   15    4   10      0.58      0.00
   16    4   10      1.05      0.00
   17    4   10     -0.74      0.00
   18    4   10     -1.27      0.00
   19    4   10     -0.34      0.00
   20    4   10      1.77      0.00
   21    4   10     -0.59      0.00
   22    4   10     -1.69      0.00
   23    4   10      2.60      0.00
  -23    5   10     -0.93      0.00
  -22    5   10      0.27      0.00
  -21    5   10      0.69      0.00
  -20    5   10      0.19      0.00
  -19    5   10     -0.68      0.00
  -18    5   10      0.79      0.00
  -17    5   10      0.32      0.00
  -16    5   10     -0.54      0.00
  -15    5   10     -0.93      0.00
  -14    5   10     -0.31      0.00
  -13    5   10      0.62      0.00
  -12    5   10      0.70      0.00
  -11    5   10     -0.32      0.00
  -10    5   10     -1.24      0.00
   -9    5   10      0.55      0.00
   -8    5   10      1.43      0.00
   -7    5   10     -0.61      0.00
   -6    5   10     -1.94      0.00
   -5    5   10      2.32      0.00
   -4    5   10     -1.24      0.00
   -3    5   10      0.35      0.00
   -2    5   10      2.42      0.00
   -1    5   10     -0.73      0.00
    0    5   10     -6.33      0.00
    1    5   10     -0.37      0.00
    2    5   10      0.94      0.00
    3    5   10     -1.60      0.00
    4    5   10     -0.66      0.00
    5    5   10      1.92      0.00
    6    5   10      2.14      0.00
    7    5   10     -2.73      0.00
    8    5   10     -0.72      0.00
    9    5   10      1.39      0.00
   10    5   10      1.70      0.00
   11    5   10      0.39      0.00
   12    5   10     -0.40      0.00
   13    5   10      0.66      0.00
   14    5   10      0.14      0.00
   15    5   10      0.29      0.00
   16    5   10     -0.46      0.00
   17    5   10     -0.33      0.00
   18    5   10      0.15      0.00
   19    5   10     -0.83      0.00
   20    5   10     -1.11      0.00
   21    5   10      2.03      0.00
   22    5   10      1.43      0.00
   23    5   10     -1.48      0.00
  -22    6   10     -0.18      0.00
  -21    6   10     -0.26      0.00
  -20    6   10      0.50      0.00
  -19    6   10      1.20      0.00
  -18    6   10     -1.30      0.00
  -17    6   10     -0.84      0.00
  -16    6   10      0.25      0.00
  -15    6   10      0.33      0.00
  -14    6   10      0.09      0.00
  -13    6   10      0.79      0.00
  -12    6   10      0.09      0.00
  -11    6   10     -2.06      0.00
  -10    6   10      0.70      0.00
   -9    6   10      1.52      0.00
   -8    6   10     -0.52      0.00
   -7    6   10     -2.43      0.00
   -6    6   10      0.97      0.00
   -5    6   10      0.25      0.00
   -4    6   10      0.30      0.00
   -3    6   10     -0.04      0.00
   -2    6   10      2.08      0.00
   -1    6   10     -0.05      0.00
    0    6   10     -2.84      0.00
    1    6   10     -2.03      0.00
    2    6   10      0.07      0.00
    3    6   10     -0.97      0.00
    4    6   10     -0.48      0.00
    5    6   10      2.65      0.00
    6    6   10     -0.32      0.00
    7    6   10     -1.34      0.00
    8    6   10     -1.53      0.00
    9    6   10      1.39      0.00
   10    6   10      1.01      0.00
   11    6   10     -0.18      0.00
   12    6   10      1.31      0.00
   13    6   10     -0.03      0.00
   14    6   10     -0.45      0.00
   15    6   10      0.01      0.00
   16    6   10      0.50      0.00
   17    6   10     -0.03      0.00
   18    6   10     -1.86      0.00
   19    6   10     -0.53      0.00
   20    6   10      1.13      0.00
   21    6   10     -0.35      0.00
   22    6   10      0.57      0.00
  -21    7   10      0.84      0.00
  -20    7   10      0.98      0.00
  -19    7   10     -1.15      0.00
  -18    7   10     -0.75      0.00
  -17    7   10     -0.55      0.00
  -16    7   10      0.42      0.00
  -15    7   10      0.54      0.00
  -14    7   10      0.21      0.00
  -13    7   10     -0.31      0.00
  -12    7   10     -0.11      0.00
  -11    7   10      0.89      0.00
  -10    7   10     -1.26      0.00
   -9    7   10      0.82      0.00
   -8    7   10      0.64      0.00
   -7    7   10     -1.04      0.00
   -6    7   10     -1.32      0.00
   -5    7   10      1.25      0.00
   -4    7   10     -0.33      0.00
   -3    7   10      0.24      0.00
   -2    7   10      1.98      0.00
   -1    7   10      0.19      0.00
    0    7   10     -2.21      0.00
    1    7   10     -1.20      0.00
    2    7   10      0.92      0.00
    3    7   10     -0.63      0.00
    4    7   10      0.03      0.00
    5    7   10      0.55      0.00
    6    7   10      0.72      0.00
    7    7   10     -1.28      0.00
    8    7   10     -0.11      0.00
    9    7   10      0.36      0.00
   10    7   10      0.21      0.00
   11    7   10      0.62      0.00
   12    7   10      1.19      0.00
   13    7   10      0.25      0.00
   14    7   10     -0.85      0.00
   15    7   10      0.90      0.00
   16    7   10      1.07      0.00
   17    7   10     -1.61      0.00
   18    7   10     -1.97      0.00
   19    7   10      0.49      0.00
   20    7   10      0.10      0.00
   21    7   10      0.27      0.00
  -20    8   10     -1.01      0.00
  -19    8   10      0.21      0.00
  -18    8   10      0.25      0.00
  -17    8   10     -0.65      0.00
  -16    8   10     -0.46      0.00
  -15    8   10      0.74      0.00
  -14    8   10     -0.22      0.00
  -13    8   10     -1.02      0.00
  -12    8   10     -0.01      0.00
  -11    8   10     -0.74      0.00
  -10    8   10      1.66      0.00
   -9    8   10      1.02      0.00
   -8    8   10     -0.15      0.00
   -7    8   10     -0.63      0.00
   -6    8   10     -0.43      0.00
   -5    8   10      0.57      0.00
   -4    8   10      0.32      0.00
   -3    8   10     -0.23      0.00
   -2    8   10      0.64      0.00
   -1    8   10      0.78      0.00
    0    8   10     -1.10      0.00
    1    8   10     -0.30      0.00
    2    8   10     -0.11      0.00
    3    8   10      0.02      0.00
    4    8   10     -0.44      0.00
    5    8   10      2.01      0.00
    6    8   10      0.60      0.00
    7    8   10     -0.50      0.00
    8    8   10     -0.83      0.00
    9    8   10     -0.07      0.00
   10    8   10      0.72      0.00
   11    8   10      1.07      0.00
   12    8   10      1.09      0.00
   13    8   10      1.88      0.00
   14    8   10     -1.00      0.00
   15    8   10     -1.19      0.00
   16    8   10      1.66      0.00
   17    8   10     -0.23      0.00
   18    8   10     -0.87      0.00
   19    8   10     -1.80      0.00
  -18    9   10      0.33      0.00
  -17    9   10     -0.03      0.00
  -16    9   10     -0.81      0.00
  -15    9   10     -0.84      0.00
  -14    9   10     -0.15      0.00
  -13    9   10     -0.61      0.00
  -12    9   10     -1.45      0.00
  -11    9   10      1.52      0.00
  -10    9   10      0.88      0.00
   -9    9   10     -0.32      0.00
   -8    9   10     -0.12      0.00
   -7    9   10      0.00      0.00
   -6    9   10      1.01      0.00
   -5    9   10      0.68      0.00
   -4    9   10      0.81      0.00
   -3    9   10     -0.78      0.00
   -2    9   10     -0.76      0.00
   -1    9   10      0.13      0.00
    0    9   10      0.57      0.00
    1    9   10     -0.75      0.00
    2    9   10     -0.45      0.00
    3    9   10      0.49      0.00
    4    9   10      1.76      0.00
    5    9   10     -0.95      0.00
    6    9   10      0.63      0.00
    7    9   10      0.29      0.00
    8    9   10     -0.24      0.00
    9    9   10     -0.14      0.00
   10    9   10      0.73      0.00
   11    9   10      1.07      0.00
   12    9   10      1.90      0.00
   13    9   10     -0.36      0.00
   14    9   10     -0.64      0.00
   15    9   10      1.10      0.00
   16    9   10      1.08      0.00
   17    9   10      0.66      0.00
   18    9   10     -3.35      0.00
  -16   10   10      0.04      0.00
  -15   10   10     -0.81      0.00
  -14   10   10     -1.09      0.00
  -13   10   10     -0.47      0.00
  -12   10   10     -0.25      0.00
  -11   10   10     -0.06      0.00
  -10   10   10      0.79      0.00
   -9   10   10     -0.63      0.00
   -8   10   10     -0.74      0.00
   -7   10   10      0.96      0.00
   -6   10   10      0.77      0.00
   -5   10   10      0.57      0.00
   -4   10   10      0.22      0.00
   -3   10   10      0.37      0.00
   -2   10   10     -1.14      0.00
   -1   10   10     -0.84      0.00
    0   10   10     -0.09      0.00
    1   10   10      0.55      0.00
    2   10   10      0.38      0.00
    3   10   10     -0.64      0.00
    4   10   10     -0.71      0.00
    5   10   10      2.09      0.00
    6   10   10     -0.46      0.00
    7   10   10     -0.14      0.00
    8   10   10     -0.52      0.00
    9   10   10      0.55      0.00
   10   10   10      1.05      0.00
   11   10   10      0.66      0.00
   12   10   10     -0.59      0.00
   13   10   10      0.44      0.00
   14   10   10      1.26      0.00
   15   10   10     -0.09      0.00
   16   10   10      0.86      0.00
  -13   11   10     -0.81      0.00
  -12   11   10      0.52      0.00
  -11   11   10      0.06      0.00
  -10   11   10     -0.89      0.00
   -9   11   10     -0.67      0.00
   -8   11   10     -0.99      0.00
   -7   11   10      0.69      0.00
   -6   11   10      0.68      0.00
   -5   11   10      0.50      0.00
   -4   11   10     -0.27      0.00
   -3   11   10     -1.23      0.00
   -2   11   10     -0.16      0.00
   -1   11   10      0.21      0.00
    0   11   10      0.11      0.00
    1   11   10     -0.14      0.00
    2   11   10     -1.74      0.00
    3   11   10      0.61      0.00
    4   11   10      1.92      0.00
    5   11   10     -1.48      0.00
    6   11   10     -0.37      0.00
    7   11   10     -0.21      0.00
    8   11   10      0.80      0.00
    9   11   10      0.36      0.00
   10   11   10      0.77      0.00
   11   11   10     -0.42      0.00
   12   11   10     -0.62      0.00
  -10   12   10      0.15      0.00
   -9   12   10     -0.98      0.00
   -8   12   10     -0.05      0.00
   -7   12   10     -0.11      0.00
   -6   12   10      0.47      0.00
   -5   12   10     -2.05      0.00
   -4   12   10     -0.79      0.00
   -3   12   10      0.91      0.00
   -2   12   10      0.11      0.00
   -1   12   10     -0.51      0.00
    0   12   10      0.19      0.00
    1   12   10     -0.66      0.00
    2   12   10      0.94      0.00
    3   12   10     -1.44      0.00
    4   12   10     -1.22      0.00
    5   12   10      1.90      0.00
    6   12   10     -0.22      0.00
    7   12   10     -0.44      0.00
    8   12   10      0.00      0.00
    9   12   10      0.56      0.00
   -2   13   10      0.81      0.00
   -1   13   10     -0.39      0.00
    0   13   10     -1.08      0.00
  -25    0   11      1.40      0.00
  -23    0   11      0.05      0.00
  -21    0   11     -0.73      0.00
  -19    0   11      1.66      0.00
  -17    0   11     -0.53      0.00
  -15    0   11      0.35      0.00
  -13    0   11      0.88      0.00
  -11    0   11     -1.13      0.00
   -9    0   11      3.50      0.00
   -7    0   11     -9.16      0.00
   -5    0   11     -1.03      0.00
   -3    0   11     12.30      0.00
   -1    0   11    -13.50      0.00
    1    0   11      5.58      0.00
    3    0   11      9.10      0.00
    5    0   11      6.55      0.00
    7    0   11      0.25      0.00
    9    0   11      0.81      0.00
   11    0   11      0.29      0.00
   13    0   11     -0.84      0.00
   15    0   11     -0.04      0.00
   17    0   11     -1.16      0.00
   19    0   11      0.19      0.00
   21    0   11      0.51      0.00
   23    0   11     -1.35      0.00
   25    0   11      0.51      0.00
  -25    1   11      0.29      0.00
  -24    1   11      0.25      0.00
  -23    1   11     -0.49      0.00
  -22    1   11      0.00      0.00
  -21    1   11      0.10      0.00
  -20    1   11      0.34      0.00
  -19    1   11      0.47      0.00
  -18    1   11      0.65      0.00
  -17    1   11     -0.16      0.00
  -16    1   11      0.14      0.00
  -15    1   11     -0.20      0.00
  -14    1   11      0.17      0.00
  -13    1   11      0.78      0.00
  -12    1   11     -0.25      0.00
  -11    1   11     -0.46      0.00
  -10    1   11      2.76      0.00
   -9    1   11      1.46      0.00
   -8    1   11     -5.95      0.00
   -7    1   11     -0.62      0.00
   -6    1   11     -0.38      0.00
   -5    1   11     -0.27      0.00
   -4    1   11      0.24      0.00
   -3    1   11     -1.44      0.00
   -2    1   11      7.66      0.00
   -1    1   11     -1.17      0.00
    0    1   11    -13.30      0.00
    1    1   11     -5.83      0.00
    2    1   11     11.28      0.00
    3    1   11      2.44      0.00
    4    1   11      8.73      0.00
    5    1   11      0.32      0.00
    6    1   11     -0.35      0.00
    7    1   11     -1.27      0.00
    8    1   11      3.41      0.00
    9    1   11      2.06      0.00
   10    1   11     -2.37      0.00
   11    1   11     -0.59      0.00
   12    1   11      2.05      0.00
   13    1   11      0.14      0.00
   14    1   11     -1.13      0.00
   15    1   11      0.16      0.00
   16    1   11     -0.14      0.00
   17    1   11      0.12      0.00
   18    1   11     -0.71      0.00
   19    1   11      0.73      0.00
   20    1   11      0.30      0.00
   21    1   11     -1.67      0.00
   22    1   11     -0.74      0.00
   23    1   11      1.39      0.00
   24    1   11     -0.32      0.00
  -25    2   11     -0.19      0.00
  -24    2   11      0.34      0.00
  -23    2   11     -0.61      0.00
  -22    2   11     -1.08      0.00
  -21    2   11      0.49      0.00
  -20    2   11      0.47      0.00
  -19    2   11      1.25      0.00
  -18    2   11      0.43      0.00
  -17    2   11     -0.50      0.00
  -16    2   11     -0.32      0.00
  -15    2   11     -0.43      0.00
  -14    2   11      0.24      0.00
  -13    2   11      1.77      0.00
  -12    2   11      1.06      0.00
  -11    2   11     -1.74      0.00
  -10    2   11     -0.21      0.00
   -9    2   11      1.72      0.00
   -8    2   11      1.63      0.00
   -7    2   11     -5.42      0.00
   -6    2   11     -0.75      0.00
   -5    2   11      2.74      0.00
   -4    2   11     -3.41      0.00
   -3    2   11      5.87      0.00
   -2    2   11      2.75      0.00
   -1    2   11     -8.22      0.00
    0    2   11    -10.57      0.00
    1    2   11      2.81      0.00
    2    2   11      0.49      0.00
    3    2   11      5.12      0.00
    4    2   11      2.41      0.00
    5    2   11      6.10      0.00
    6    2   11     -2.45      0.00
    7    2   11     -2.30      0.00
    8    2   11      1.69      0.00
    9    2   11      2.23      0.00
   10    2   11      1.53      0.00
   11    2   11     -0.19      0.00
   12    2   11     -0.25      0.00
   13    2   11     -0.10      0.00
   14    2   11     -0.60      0.00
   15    2   11      1.04      0.00
   16    2   11      1.46      0.00
   17    2   11     -0.25      0.00
   18    2   11     -1.23      0.00
   19    2   11     -0.51      0.00
   20    2   11      0.96      0.00
   21    2   11     -1.69      0.00
   22    2   11     -1.47      0.00
   23    2   11      0.96      0.00
   24    2   11      1.99      0.00
  -24    3   11      0.07      0.00
  -23    3   11     -0.83      0.00
  -22    3   11     -1.07      0.00
  -21    3   11     -0.38      0.00
  -20    3   11      1.06      0.00
  -19    3   11      0.92      0.00
  -18    3   11      0.50      0.00
  -17    3   11     -0.63      0.00
  -16    3   11     -0.63      0.00
  -15    3   11      0.41      0.00
  -14    3   11     -0.17      0.00
  -13    3   11      0.76      0.00
  -12    3   11      0.17      0.00
  -11    3   11     -0.50      0.00
  -10    3   11      0.49      0.00
   -9    3   11      2.08      0.00
   -8    3   11     -2.77      0.00
   -7    3   11     -0.79      0.00
   -6    3   11      2.82      0.00
   -5    3   11     -0.94      0.00
   -4    3   11     -0.01      0.00
   -3    3   11     -1.49      0.00
   -2    3   11      3.07      0.00
   -1    3   11     -1.46      0.00
    0    3   11     -6.22      0.00
    1    3   11     -8.15      0.00
    2    3   11      3.53      0.00
    3    3   11      3.94      0.00
    4    3   11      5.04      0.00
    5    3   11     -0.08      0.00
    6    3   11     -1.98      0.00
    7    3   11     -2.29      0.00
    8    3   11      2.73      0.00
    9    3   11      4.16      0.00
   10    3   11     -1.70      0.00
   11    3   11      0.07      0.00
   12    3   11      1.94      0.00
   13    3   11     -0.62      0.00
   14    3   11      0.01      0.00
   15    3   11      0.65      0.00
   16    3   11      0.88      0.00
   17    3   11     -0.35      0.00
   18    3   11     -0.45      0.00
   19    3   11     -0.21      0.00
   20    3   11      0.02      0.00
   21    3   11     -1.04      0.00
   22    3   11     -1.98      0.00
   23    3   11      2.22      0.00
  -23    4   11     -0.31      0.00
  -22    4   11     -0.35      0.00
  -21    4   11     -0.51      0.00
  -20    4   11      0.22      0.00
  -19    4   11      0.53      0.00
  -18    4   11      0.78      0.00
  -17    4   11      0.73      0.00
  -16    4   11     -0.64      0.00
  -15    4   11     -1.81      0.00
  -14    4   11     -0.42      0.00
  -13    4   11      0.80      0.00
  -12    4   11      1.20      0.00
  -11    4   11     -0.81      0.00
  -10    4   11     -1.03      0.00
   -9    4   11      0.88      0.00
   -8    4   11      1.91      0.00
   -7    4   11     -1.61      0.00
   -6    4   11     -1.28      0.00
   -5    4   11      3.51      0.00
   -4    4   11     -1.99      0.00
   -3    4   11      0.01      0.00
   -2    4   11      2.70      0.00
   -1    4   11     -1.47      0.00
    0    4   11     -8.62      0.00
    1    4   11      0.18      0.00
    2    4   11      1.14      0.00
    3    4   11     -0.48      0.00
    4    4   11      0.75      0.00
    5    4   11      3.29      0.00
    6    4   11     -0.60      0.00
    7    4   11     -3.01      0.00
    8    4   11      0.73      0.00
    9    4   11      2.10      0.00
   10    4   11      2.09      0.00
   11    4   11     -0.01      0.00
   12    4   11     -0.05      0.00
   13    4   11      0.70      0.00
   14    4   11     -0.49      0.00
   15    4   11      0.28      0.00
   16    4   11      0.67      0.00
   17    4   11      0.74      0.00
   18    4   11     -1.44      0.00
   19    4   11     -0.98      0.00
   20    4   11     -0.03      0.00
   21    4   11      1.02      0.00
   22    4   11      0.71      0.00
   23    4   11     -1.83      0.00
  -23    5   11      0.33      0.00
  -22    5   11     -0.79      0.00
  -21    5   11     -0.47      0.00
  -20    5   11      0.35      0.00
  -19    5   11      1.79      0.00
  -18    5   11      0.13      0.00
  -17    5   11     -1.33      0.00
  -16    5   11     -0.15      0.00
  -15    5   11      0.09      0.00
  -14    5   11     -0.92      0.00
  -13    5   11      0.24      0.00
  -12    5   11      0.42      0.00
  -11    5   11     -1.41      0.00
  -10    5   11      0.35      0.00
   -9    5   11      1.95      0.00
   -8    5   11     -1.08      0.00
   -7    5   11     -2.22      0.00
   -6    5   11      1.86      0.00
   -5    5   11      0.58      0.00
   -4    5   11      0.38      0.00
   -3    5   11     -0.37      0.00
   -2    5   11      1.39      0.00
   -1    5   11     -1.08      0.00
    0    5   11     -2.00      0.00
    1    5   11     -3.87      0.00
    2    5   11     -0.63      0.00
    3    5   11      0.45      0.00
    4    5   11      1.24      0.00
    5    5   11      1.78      0.00
    6    5   11     -1.75      0.00
    7    5   11     -2.00      0.00
    8    5   11     -0.32      0.00
    9    5   11      3.37      0.00
   10    5   11      0.83      0.00
   11    5   11     -1.05      0.00
   12    5   11      1.11      0.00
   13    5   11      0.03      0.00
   14    5   11     -0.26      0.00
   15    5   11      0.34      0.00
   16    5   11      0.50      0.00
   17    5   11     -0.17      0.00
   18    5   11     -1.58      0.00
   19    5   11     -1.04      0.00
   20    5   11      2.13      0.00
   21    5   11      0.19      0.00
   22    5   11     -1.30      0.00
  -22    6   11      0.47      0.00
  -21    6   11      1.05      0.00
  -20    6   11      0.28      0.00
  -19    6   11     -1.01      0.00
  -18    6   11      0.41      0.00
  -17    6   11      0.32      0.00
  -16    6   11     -0.64      0.00
  -15    6   11     -0.69      0.00
  -14    6   11      0.08      0.00
  -13    6   11      0.49      0.00
  -12    6   11      0.35      0.00
  -11    6   11      0.16      0.00
  -10    6   11     -1.74      0.00
   -9    6   11      0.36      0.00
   -8    6   11      1.12      0.00
   -7    6   11     -0.98      0.00
   -6    6   11     -2.27      0.00
   -5    6   11      1.96      0.00
   -4    6   11      0.70      0.00
   -3    6   11      0.82      0.00
   -2    6   11      0.83      0.00
   -1    6   11     -0.54      0.00
    0    6   11     -3.33      0.00
    1    6   11     -0.69      0.00
    2    6   11      1.04      0.00
    3    6   11     -0.82      0.00
    4    6   11     -1.07      0.00
    5    6   11      0.44      0.00
    6    6   11      1.18      0.00
    7    6   11     -2.22      0.00
    8    6   11      0.25      0.00
    9    6   11      1.14      0.00
   10    6   11      0.77      0.00
   11    6   11      0.05      0.00
   12    6   11     -0.87      0.00
   13    6   11      1.04      0.00
   14    6   11      0.40      0.00
   15    6   11      0.00      0.00
   16    6   11      0.24      0.00
   17    6   11     -1.40      0.00
   18    6   11     -0.28      0.00
   19    6   11     -0.27      0.00
   20    6   11     -0.76      0.00
   21    6   11      1.23      0.00
   22    6   11      0.47      0.00
  -21    7   11     -0.08      0.00
  -20    7   11     -0.42      0.00
  -19    7   11      0.52      0.00
  -18    7   11     -0.45      0.00
  -17    7   11     -0.79      0.00
  -16    7   11     -0.13      0.00
  -15    7   11      0.83      0.00
  -14    7   11     -0.08      0.00
  -13    7   11     -0.09      0.00
  -12    7   11      0.31      0.00
  -11    7   11     -1.66      0.00
  -10    7   11      0.73      0.00
   -9    7   11      1.15      0.00
   -8    7   11      0.33      0.00
   -7    7   11     -1.68      0.00
   -6    7   11     -0.49      0.00
   -5    7   11      0.23      0.00
   -4    7   11      0.54      0.00
   -3    7   11     -0.28      0.00
   -2    7   11      1.95      0.00
   -1    7   11      0.83      0.00
    0    7   11     -2.16      0.00
    1    7   11     -1.17      0.00
    2    7   11     -0.07      0.00
    3    7   11      0.04      0.00
    4    7   11     -0.07      0.00
    5    7   11      1.25      0.00
    6    7   11     -0.01      0.00
    7    7   11     -0.46      0.00
    8    7   11     -1.01      0.00
    9    7   11      1.02      0.00
   10    7   11      0.56      0.00
   11    7   11     -0.35      0.00
   12    7   11      1.39      0.00
   13    7   11      0.95      0.00
   14    7   11     -1.02      0.00
   15    7   11     -0.46      0.00
   16    7   11      0.60      0.00
   17    7   11      0.67      0.00
   18    7   11     -1.51      0.00
   19    7   11     -1.49      0.00
   20    7   11      0.78      0.00
  -19    8   11      0.24      0.00
  -18    8   11     -0.57      0.00
  -17    8   11     -0.79      0.00
  -16    8   11      0.81      0.00
  -15    8   11     -0.11      0.00
  -14    8   11     -0.64      0.00
  -13    8   11     -0.30      0.00
  -12    8   11     -1.13      0.00
  -11    8   11      0.83      0.00
  -10    8   11     -0.24      0.00
   -9    8   11      0.96      0.00
   -8    8   11      1.15      0.00
   -7    8   11     -0.46      0.00
   -6    8   11     -1.29      0.00
   -5    8   11      0.31      0.00
   -4    8   11      0.99      0.00
   -3    8   11     -0.25      0.00
   -2    8   11      0.25      0.00
   -1    8   11      1.19      0.00
    0    8   11     -0.65      0.00
    1    8   11     -1.75      0.00
    2    8   11      0.46      0.00
    3    8   11      0.25      0.00
    4    8   11      0.89      0.00
    5    8   11      0.25      0.00
    6    8   11      0.84      0.00
    7    8   11     -0.33      0.00
    8    8   11     -0.32      0.00
    9    8   11      0.26      0.00
   10    8   11      0.41      0.00
   11    8   11      0.66      0.00
   12    8   11      1.92      0.00
   13    8   11     -0.44      0.00
   14    8   11     -0.78      0.00
   15    8   11      1.11      0.00
   16    8   11      1.85      0.00
   17    8   11     -1.01      0.00
   18    8   11     -3.26      0.00
   19    8   11      1.21      0.00
  -18    9   11      0.88      0.00
  -17    9   11      0.19      0.00
  -16    9   11     -1.11      0.00
  -15    9   11      0.59      0.00
  -14    9   11     -0.12      0.00
  -13    9   11     -2.48      0.00
  -12    9   11     -0.46      0.00
  -11    9   11     -0.14      0.00
  -10    9   11      1.21      0.00
   -9    9   11      0.64      0.00
   -8    9   11      0.40      0.00
   -7    9   11      0.11      0.00
   -6    9   11     -1.04      0.00
   -5    9   11      0.96      0.00
   -4    9   11      1.06      0.00
   -3    9   11      0.30      0.00
   -2    9   11     -0.50      0.00
   -1    9   11     -0.64      0.00
    0    9   11     -0.71      0.00
    1    9   11      0.64      0.00
    2    9   11      0.50      0.00
    3    9   11     -0.77      0.00
    4    9   11     -0.89      0.00
    5    9   11      3.00      0.00
    6    9   11      0.49      0.00
    7    9   11     -0.38      0.00
    8    9   11     -0.74      0.00
    9    9   11     -0.25      0.00
   10    9   11      1.08      0.00
   11    9   11      0.83      0.00
   12    9   11     -0.33      0.00
   13    9   11      2.61      0.00
   14    9   11      0.32      0.00
   15    9   11     -1.58      0.00
   16    9   11      1.14      0.00
   17    9   11      0.30      0.00
  -15   10   11     -0.57      0.00
  -14   10   11     -0.18      0.00
  -13   10   11     -0.55      0.00
  -12   10   11     -0.91      0.00
  -11   10   11      0.29      0.00
  -10   10   11     -0.17      0.00
   -9   10   11     -0.34      0.00
   -8   10   11     -0.87      0.00
   -7   10   11      0.17      0.00
   -6   10   11      1.98      0.00
   -5   10   11      0.47      0.00
   -4   10   11      0.00      0.00
   -3   10   11     -0.64      0.00
   -2   10   11     -0.41      0.00
   -1   10   11     -0.58      0.00
    0   10   11      0.20      0.00
    1   10   11     -0.43      0.00
    2   10   11     -1.16      0.00
    3   10   11      0.95      0.00
    4   10   11      2.31      0.00
    5   10   11     -1.88      0.00
    6   10   11      0.19      0.00
    7   10   11      0.57      0.00
    8   10   11      0.48      0.00
    9   10   11     -0.51      0.00
   10   10   11     -0.02      0.00
   11   10   11      0.53      0.00
   12   10   11      1.04      0.00
   13   10   11     -0.15      0.00
   14   10   11     -0.16      0.00
   15   10   11      1.01      0.00
  -13   11   11      0.68      0.00
  -12   11   11     -1.35      0.00
  -11   11   11     -0.46      0.00
  -10   11   11      0.50      0.00
   -9   11   11     -1.63      0.00
   -8   11   11     -1.19      0.00
   -7   11   11      0.63      0.00
   -6   11   11      1.71      0.00
   -5   11   11     -0.38      0.00
   -4   11   11     -1.08      0.00
   -3   11   11      0.24      0.00
   -2   11   11     -0.87      0.00
   -1   11   11     -0.57      0.00
    0   11   11      0.07      0.00
    1   11   11     -0.36      0.00
    2   11   11      0.13      0.00
    3   11   11     -0.66      0.00
    4   11   11     -0.65      0.00
    5   11   11      1.95      0.00
    6   11   11     -0.31      0.00
    7   11   11     -0.05      0.00
    8   11   11     -0.42      0.00
    9   11   11      0.20      0.00
   10   11   11      0.33      0.00
   11   11   11      0.31      0.00
   12   11   11     -0.47      0.00
  -10   12   11     -0.82      0.00
   -9   12   11     -0.90      0.00
   -8   12   11     -0.73      0.00
   -7   12   11      0.63      0.00
   -6   12   11     -1.15      0.00
   -5   12   11      0.26      0.00
   -4   12   11     -0.18      0.00
   -3   12   11     -1.04      0.00
   -2   12   11     -0.17      0.00
   -1   12   11     -0.32      0.00
    0   12   11     -0.63      0.00
    1   12   11      0.49      0.00
    2   12   11     -1.27      0.00
    3   12   11      0.03      0.00
    4   12   11      1.20      0.00
    5   12   11     -0.90      0.00
    6   12   11     -0.23      0.00
    7   12   11      0.11      0.00
    8   12   11      0.78      0.00
    9   12   11      0.23      0.00
  -24    0   12     -0.15      0.00
  -22    0   12      0.92      0.00
  -20    0   12     -1.07      0.00
  -18    0   12      1.73      0.00
  -16    0   12     -0.36      0.00
  -14    0   12      0.41      0.00
  -12    0   12      0.21      0.00
  -10    0   12      2.20      0.00
   -8    0   12     -5.02      0.00
   -6    0   12     -1.21      0.00
   -4    0   12      0.07      0.00
   -2    0   12      5.26      0.00
    0    0   12    -11.12      0.00
    2    0   12     11.36      0.00
    4    0   12      4.64      0.00
    6    0   12      2.60      0.00
    8    0   12      3.19      0.00
   10    0   12     -2.65      0.00
   12    0   12      1.83      0.00
   14    0   12     -1.01      0.00
   16    0   12     -0.72      0.00
   18    0   12     -0.56      0.00
   20    0   12      0.55      0.00
   22    0   12     -0.36      0.00
   24    0   12     -1.04      0.00
  -24    1   12      0.75      0.00
  -23    1   12     -0.25      0.00
  -22    1   12     -1.39      0.00
  -21    1   12      0.20      0.00
  -20    1   12      0.89      0.00
  -19    1   12      0.82      0.00
  -18    1   12      0.09      0.00
  -17    1   12     -0.17      0.00
  -16    1   12      0.00      0.00
  -15    1   12      0.44      0.00
  -14    1   12     -0.58      0.00
  -13    1   12      0.97      0.00
  -12    1   12      1.26      0.00
  -11    1   12     -0.84      0.00
  -10    1   12     -0.30      0.00
   -9    1   12      2.17      0.00
   -8    1   12      1.05      0.00
   -7    1   12     -7.43      0.00
   -6    1   12     -1.14      0.00
   -5    1   12      2.23      0.00
   -4    1   12     -0.54      0.00
   -3    1   12      5.67      0.00
   -2    1   12      1.17      0.00
   -1    1   12     -9.50      0.00
    0    1   12     -6.50      0.00
    1    1   12      5.23      0.00
    2    1   12      0.45      0.00
    3    1   12      4.43      0.00
    4    1   12      1.42      0.00
    5    1   12      5.78      0.00
    6    1   12     -2.10      0.00
    7    1   12      0.75      0.00
    8    1   12      1.90      0.00
    9    1   12      1.00      0.00
   10    1   12     -0.08      0.00
   11    1   12     -0.24      0.00
   12    1   12      0.12      0.00
   13    1   12     -0.30      0.00
   14    1   12     -0.20      0.00
   15    1   12      0.35      0.00
   16    1   12      0.62      0.00
   17    1   12     -0.73      0.00
   18    1   12     -0.11      0.00
   19    1   12     -0.39      0.00
   20    1   12      0.33      0.00
   21    1   12     -0.26      0.00
   22    1   12     -0.95      0.00
   23    1   12     -0.41      0.00
   24    1   12      1.29      0.00
  -24    2   12      0.01      0.00
  -23    2   12     -1.42      0.00
  -22    2   12     -0.24      0.00
  -21    2   12     -0.10      0.00
  -20    2   12      0.43      0.00
  -19    2   12      0.73      0.00
  -18    2   12      0.55      0.00
  -17    2   12     -0.43      0.00
  -16    2   12      0.22      0.00
  -15    2   12      0.19      0.00
  -14    2   12     -0.25      0.00
  -13    2   12      0.53      0.00
  -12    2   12      0.62      0.00
  -11    2   12      0.23      0.00
  -10    2   12      0.83      0.00
   -9    2   12      1.61      0.00
   -8    2   12     -4.12      0.00
   -7    2   12     -1.20      0.00
   -6    2   12      1.52      0.00
   -5    2   12     -0.32      0.00
   -4    2   12      0.69      0.00
   -3    2   12     -0.14      0.00
   -2    2   12      3.02      0.00
   -1    2   12     -2.70      0.00
    0    2   12     -7.80      0.00
    1    2   12     -7.26      0.00
    2    2   12      6.75      0.00
    3    2   12      4.16      0.00
    4    2   12      4.42      0.00
    5    2   12     -1.58      0.00
    6    2   12      0.04      0.00
    7    2   12     -0.84      0.00
    8    2   12      3.42      0.00
    9    2   12      2.89      0.00
   10    2   12     -2.49      0.00
   11    2   12     -0.38      0.00
   12    2   12      1.92      0.00
   13    2   12      0.05      0.00
   14    2   12     -0.18      0.00
   15    2   12      0.04      0.00
   16    2   12      0.55      0.00
   17    2   12      0.57      0.00
   18    2   12     -0.55      0.00
   19    2   12      0.09      0.00
   20    2   12     -0.30      0.00
   21    2   12     -1.36      0.00
   22    2   12     -1.93      0.00
   23    2   12      1.68      0.00
   24    2   12      1.12      0.00
  -24    3   12     -0.52      0.00
  -23    3   12     -0.31      0.00
  -22    3   12     -0.77      0.00
  -21    3   12     -0.68      0.00
  -20    3   12      0.23      0.00
  -19    3   12      1.21      0.00
  -18    3   12      0.35      0.00
  -17    3   12      0.17      0.00
  -16    3   12     -0.41      0.00
  -15    3   12     -0.90      0.00
  -14    3   12      0.31      0.00
  -13    3   12      0.49      0.00
  -12    3   12      0.80      0.00
  -11    3   12     -0.47      0.00
  -10    3   12     -0.20      0.00
   -9    3   12      0.36      0.00
   -8    3   12      1.75      0.00
   -7    3   12     -2.69      0.00
   -6    3   12     -1.71      0.00
   -5    3   12      3.83      0.00
   -4    3   12     -0.74      0.00
   -3    3   12      0.97      0.00
   -2    3   12      2.14      0.00
   -1    3   12     -3.23      0.00
    0    3   12    -10.08      0.00
    1    3   12      0.82      0.00
    2    3   12      1.89      0.00
    3    3   12      1.59      0.00
    4    3   12      0.75      0.00
    5    3   12      3.98      0.00
    6    3   12     -2.03      0.00
    7    3   12     -2.26      0.00
    8    3   12      1.68      0.00
    9    3   12      2.68      0.00
   10    3   12      1.67      0.00
   11    3   12     -0.80      0.00
   12    3   12      0.16      0.00
   13    3   12      0.52      0.00
   14    3   12     -0.70      0.00
   15    3   12      1.02      0.00
   16    3   12      1.24      0.00
   17    3   12      0.61      0.00
   18    3   12     -1.52      0.00
   19    3   12     -0.82      0.00
   20    3   12      0.46      0.00
   21    3   12     -1.08      0.00
   22    3   12     -0.23      0.00
   23    3   12     -0.46      0.00
  -23    4   12     -0.20      0.00
  -22    4   12     -1.95      0.00
  -21    4   12      0.05      0.00
  -20    4   12      0.79      0.00
  -19    4   12      0.60      0.00
  -18    4   12      0.72      0.00
  -17    4   12     -0.55      0.00
  -16    4   12     -0.25      0.00
  -15    4   12     -0.05      0.00
  -14    4   12     -1.49      0.00
  -13    4   12      0.20      0.00
  -12    4   12      0.47      0.00
  -11    4   12     -0.84      0.00
  -10    4   12      0.17      0.00
   -9    4   12      2.19      0.00
   -8    4   12     -1.42      0.00
   -7    4   12     -1.85      0.00
   -6    4   12      2.12      0.00
   -5    4   12      0.85      0.00
   -4    4   12      0.37      0.00
   -3    4   12     -0.40      0.00
   -2    4   12      1.57      0.00
   -1    4   12     -1.80      0.00
    0    4   12     -3.33      0.00
    1    4   12     -5.84      0.00
    2    4   12      1.18      0.00
    3    4   12      2.70      0.00
    4    4   12      2.21      0.00
    5    4   12      0.00      0.00
    6    4   12     -2.27      0.00
    7    4   12     -2.27      0.00
    8    4   12      1.93      0.00
    9    4   12      4.18      0.00
   10    4   12     -0.66      0.00
   11    4   12     -0.72      0.00
   12    4   12      1.34      0.00
   13    4   12     -0.07      0.00
   14    4   12     -0.03      0.00
   15    4   12      0.72      0.00
   16    4   12      0.87      0.00
   17    4   12     -0.66      0.00
   18    4   12     -0.90      0.00
   19    4   12     -0.94      0.00
   20    4   12      1.67      0.00
   21    4   12     -0.15      0.00
   22    4   12     -2.85      0.00
   23    4   12      2.09      0.00
  -23    5   12     -0.53      0.00
  -22    5   12      0.84      0.00
  -21    5   12     -0.10      0.00
  -20    5   12     -0.19      0.00
  -19    5   12      0.27      0.00
  -18    5   12      1.17      0.00
  -17    5   12      0.68      0.00
  -16    5   12     -1.43      0.00
  -15    5   12     -1.52      0.00
  -14    5   12     -0.29      0.00
  -13    5   12      0.20      0.00
  -12    5   12      0.55      0.00
  -11    5   12     -0.04      0.00
  -10    5   12     -1.35      0.00
   -9    5   12      0.15      0.00
   -8    5   12      1.37      0.00
   -7    5   12     -1.18      0.00
   -6    5   12     -1.85      0.00
   -5    5   12      2.78      0.00
   -4    5   12      1.20      0.00
   -3    5   12      0.48      0.00
   -2    5   12     -0.24      0.00
   -1    5   12     -0.95      0.00
    0    5   12     -4.33      0.00
    1    5   12     -0.14      0.00
    2    5   12      0.32      0.00
    3    5   12     -0.61      0.00
    4    5   12     -0.24      0.00
    5    5   12      0.78      0.00
    6    5   12      0.11      0.00
    7    5   12     -2.79      0.00
    8    5   12      0.50      0.00
    9    5   12      2.15      0.00
   10    5   12      1.43      0.00
   11    5   12     -0.48      0.00
   12    5   12     -0.78      0.00
   13    5   12      1.13      0.00
   14    5   12      0.03      0.00
   15    5   12     -0.06      0.00
   16    5   12      0.67      0.00
   17    5   12     -0.63      0.00
   18    5   12     -1.05      0.00
   19    5   12     -0.12      0.00
   20    5   12     -0.46      0.00
   21    5   12      1.04      0.00
   22    5   12      0.88      0.00
  -22    6   12     -0.06      0.00
  -21    6   12     -0.20      0.00
  -20    6   12      0.11      0.00
  -19    6   12      1.16      0.00
  -18    6   12     -0.21      0.00
  -17    6   12     -1.03      0.00
  -16    6   12      0.05      0.00
  -15    6   12     -0.02      0.00
  -14    6   12     -0.56      0.00
  -13    6   12      0.21      0.00
  -12    6   12      0.46      0.00
  -11    6   12     -1.28      0.00
  -10    6   12      0.12      0.00
   -9    6   12      0.61      0.00
   -8    6   12     -0.26      0.00
   -7    6   12     -1.66      0.00
   -6    6   12      0.03      0.00
   -5    6   12      0.72      0.00
   -4    6   12      1.37      0.00
   -3    6   12     -0.81      0.00
   -2    6   12      1.69      0.00
   -1    6   12      0.25      0.00
    0    6   12     -2.36      0.00
    1    6   12     -2.30      0.00
    2    6   12      0.23      0.00
    3    6   12      0.45      0.00
    4    6   12      0.07      0.00
    5    6   12      0.36      0.00
    6    6   12     -1.19      0.00
    7    6   12     -0.69      0.00
    8    6   12     -0.95      0.00
    9    6   12      2.39      0.00
   10    6   12      0.97      0.00
   11    6   12     -1.26      0.00
   12    6   12      0.96      0.00
   13    6   12     -0.29      0.00
   14    6   12     -0.28      0.00
   15    6   12      0.39      0.00
   16    6   12     -0.60      0.00
   17    6   12      0.97      0.00
   18    6   12     -0.93      0.00
   19    6   12     -1.63      0.00
   20    6   12      0.52      0.00
   21    6   12      0.52      0.00
  -21    7   12      0.13      0.00
  -20    7   12     -0.01      0.00
  -19    7   12     -0.58      0.00
  -18    7   12     -0.26      0.00
  -17    7   12     -0.08      0.00
  -16    7   12      0.44      0.00
  -15    7   12     -0.55      0.00
  -14    7   12     -0.40      0.00
  -13    7   12      0.59      0.00
  -12    7   12     -0.03      0.00
  -11    7   12     -0.12      0.00
  -10    7   12     -1.64      0.00
   -9    7   12      1.07      0.00
   -8    7   12      1.37      0.00
   -7    7   12     -0.68      0.00
   -6    7   12     -2.04      0.00
   -5    7   12      0.59      0.00
   -4    7   12      0.33      0.00
   -3    7   12      0.94      0.00
   -2    7   12      0.92      0.00
   -1    7   12      0.39      0.00
    0    7   12     -1.80      0.00
    1    7   12     -1.15      0.00
    2    7   12      1.09      0.00
    3    7   12     -0.22      0.00
    4    7   12     -0.19      0.00
    5    7   12      0.42      0.00
    6    7   12      0.11      0.00
    7    7   12     -1.05      0.00
    8    7   12      0.88      0.00
    9    7   12      0.70      0.00
   10    7   12      0.66      0.00
   11    7   12     -0.14      0.00
   12    7   12     -0.67      0.00
   13    7   12      0.70      0.00
   14    7   12      0.16      0.00
   15    7   12     -0.04      0.00
   16    7   12      1.64      0.00
   17    7   12     -1.74      0.00
   18    7   12     -1.38      0.00
   19    7   12      0.50      0.00
   20    7   12     -0.38      0.00
  -19    8   12     -0.37      0.00
  -18    8   12      0.44      0.00
  -17    8   12     -0.52      0.00
  -16    8   12     -0.90      0.00
  -15    8   12      2.03      0.00
  -14    8   12     -0.23      0.00
  -13    8   12     -2.67      0.00
  -12    8   12      0.21      0.00
  -11    8   12     -0.79      0.00
  -10    8   12      0.53      0.00
   -9    8   12      1.29      0.00
   -8    8   12      1.57      0.00
   -7    8   12     -0.83      0.00
   -6    8   12     -1.65      0.00
   -5    8   12      0.20      0.00
   -4    8   12      1.12      0.00
   -3    8   12     -0.04      0.00
   -2    8   12      0.40      0.00
   -1    8   12      0.65      0.00
    0    8   12     -0.35      0.00
    1    8   12     -0.75      0.00
    2    8   12     -0.57      0.00
    3    8   12      0.15      0.00
    4    8   12      0.02      0.00
    5    8   12      2.00      0.00
    6    8   12      0.56      0.00
    7    8   12     -0.52      0.00
    8    8   12     -0.36      0.00
    9    8   12      0.72      0.00
   10    8   12      0.28      0.00
   11    8   12     -0.28      0.00
   12    8   12      0.53      0.00
   13    8   12      2.62      0.00
   14    8   12     -0.78      0.00
   15    8   12     -1.30      0.00
   16    8   12      0.88      0.00
   17    8   12      1.33      0.00
   18    8   12     -0.86      0.00
   19    8   12     -2.42      0.00
  -17    9   12     -1.19      0.00
  -16    9   12      0.60      0.00
  -15    9   12     -0.27      0.00
  -14    9   12     -0.41      0.00
  -13    9   12     -0.29      0.00
  -12    9   12     -2.39      0.00
  -11    9   12      0.34      0.00
  -10    9   12      0.15      0.00
   -9    9   12      0.58      0.00
   -8    9   12      0.73      0.00
   -7    9   12      0.20      0.00
   -6    9   12     -0.10      0.00
   -5    9   12     -0.13      0.00
   -4    9   12      1.21      0.00
   -3    9   12     -0.41      0.00
   -2    9   12     -0.37      0.00
   -1    9   12      0.78      0.00
    0    9   12     -0.30      0.00
    1    9   12     -1.41      0.00
    2    9   12     -0.30      0.00
    3    9   12      0.92      0.00
    4    9   12      1.63      0.00
    5    9   12     -1.08      0.00
    6    9   12      1.16      0.00
    7    9   12      0.71      0.00
    8    9   12     -0.32      0.00
    9    9   12     -0.35      0.00
   10    9   12     -0.18      0.00
   11    9   12      0.43      0.00
   12    9   12      2.12      0.00
   13    9   12     -0.58      0.00
   14    9   12      0.14      0.00
   15    9   12      0.83      0.00
   16    9   12      0.85      0.00
   17    9   12      0.70      0.00
  -15   10   12     -0.07      0.00
  -14   10   12      0.46      0.00
  -13   10   12     -1.32      0.00
  -12   10   12     -1.19      0.00
  -11   10   12     -0.30      0.00
  -10   10   12      0.63      0.00
   -9   10   12     -1.22      0.00
   -8   10   12     -0.31      0.00
   -7   10   12      0.89      0.00
   -6   10   12      0.13      0.00
   -5   10   12      0.72      0.00
   -4   10   12      0.06      0.00
   -3   10   12      0.40      0.00
   -2   10   12     -0.81      0.00
   -1   10   12     -1.08      0.00
    0   10   12     -0.51      0.00
    1   10   12      0.44      0.00
    2   10   12      0.25      0.00
    3   10   12     -0.80      0.00
    4   10   12     -0.66      0.00
    5   10   12      2.77      0.00
    6   10   12     -0.10      0.00
    7   10   12      0.20      0.00
    8   10   12     -0.72      0.00
    9   10   12     -0.62      0.00
   10   10   12      0.71      0.00
   11   10   12      0.19      0.00
   12   10   12     -0.73      0.00
   13   10   12      1.78      0.00
   14   10   12      0.43      0.00
   15   10   12     -0.97      0.00
  -12   11   12      0.52      0.00
  -11   11   12     -0.44      0.00
  -10   11   12     -1.27      0.00
   -9   11   12     -0.70      0.00
   -8   11   12     -1.43      0.00
   -7   11   12      0.15      0.00
   -6   11   12      1.01      0.00
   -5   11   12      0.81      0.00
   -4   11   12      0.02      0.00
   -3   11   12     -1.54      0.00
   -2   11   12     -0.87      0.00
   -1   11   12     -0.58      0.00
    0   11   12     -0.05      0.00
    1   11   12     -0.24      0.00
    2   11   12     -1.11      0.00
    3   11   12      0.12      0.00
    4   11   12      1.77      0.00
    5   11   12     -0.87      0.00
    6   11   12      0.06      0.00
    7   11   12      0.16      0.00
    8   11   12      0.99      0.00
    9   11   12     -0.51      0.00
   10   11   12     -0.62      0.00
   11   11   12      0.20      0.00
   12   11   12     -0.24      0.00
   -9   12   12     -0.50      0.00
   -8   12   12     -1.14      0.00
   -7   12   12     -1.04      0.00
   -6   12   12      1.45      0.00
   -5   12   12     -0.66      0.00
   -4   12   12     -1.09      0.00
   -3   12   12     -0.02      0.00
   -2   12   12     -0.65      0.00
   -1   12   12     -0.88      0.00
    0   12   12     -0.34      0.00
    1   12   12     -0.46      0.00
    2   12   12     -0.05      0.00
    3   12   12     -0.62      0.00
    4   12   12     -0.39      0.00
    5   12   12      1.34      0.00
    6   12   12      0.11      0.00
    7   12   12     -0.02      0.00
    8   12   12     -0.19      0.00
  -23    0   13     -0.30      0.00
  -21    0   13      0.42      0.00
  -19    0   13      0.03      0.00
  -17    0   13      0.55      0.00
  -15    0   13      0.41      0.00
  -13    0   13      0.44      0.00
  -11    0   13      0.32      0.00
   -9    0   13      1.34      0.00
   -7    0   13     -6.62      0.00
   -5    0   13      2.34      0.00
   -3    0   13      2.45      0.00
   -1    0   13     -7.86      0.00
    1    0   13      6.42      0.00
    3    0   13      2.00      0.00
    5    0   13      4.89      0.00
    7    0   13      2.89      0.00
    9    0   13      0.02      0.00
   11    0   13     -0.31      0.00
   13    0   13      0.00      0.00
   15    0   13     -0.60      0.00
   17    0   13     -0.27      0.00
   19    0   13     -0.76      0.00
   21    0   13      0.67      0.00
   23    0   13     -1.00      0.00
  -24    1   13     -0.29      0.00
  -23    1   13     -0.34      0.00
  -22    1   13      0.73      0.00
  -21    1   13     -0.50      0.00
  -20    1   13     -0.78      0.00
  -19    1   13      0.77      0.00
  -18    1   13      1.13      0.00
  -17    1   13     -0.42      0.00
  -16    1   13      0.26      0.00
  -15    1   13      0.26      0.00
  -14    1   13      0.07      0.00
  -13    1   13     -0.30      0.00
  -12    1   13      0.88      0.00
  -11    1   13      0.74      0.00
  -10    1   13      0.89      0.00
   -9    1   13      0.89      0.00
   -8    1   13     -3.82      0.00
   -7    1   13     -1.26      0.00
   -6    1   13      0.06      0.00
   -5    1   13      0.22      0.00
   -4    1   13     -0.04      0.00
   -3    1   13      0.49      0.00
   -2    1   13      2.09      0.00
   -1    1   13     -2.04      0.00
    0    1   13     -6.98      0.00
    1    1   13     -3.91      0.00
    2    1   13      8.53      0.00
    3    1   13      2.29      0.00
    4    1   13      1.42      0.00
    5    1   13     -1.40      0.00
    6    1   13      3.38      0.00
    7    1   13      0.15      0.00
    8    1   13      3.15      0.00
    9    1   13      0.97      0.00
   10    1   13     -2.75      0.00
   11    1   13      0.08      0.00
   12    1   13      1.66      0.00
   13    1   13     -0.18      0.00
   14    1   13     -0.36      0.00
   15    1   13      0.19      0.00
   16    1   13     -0.60      0.00
   17    1   13      0.38      0.00
   18    1   13     -0.25      0.00
   19    1   13      0.32      0.00
   20    1   13     -0.09      0.00
   21    1   13     -0.83      0.00
   22    1   13     -0.79      0.00
   23    1   13      0.65      0.00
   24    1   13     -0.36      0.00
  -24    2   13      0.44      0.00
  -23    2   13     -0.31      0.00
  -22    2   13     -1.44      0.00
  -21    2   13      0.16      0.00
  -20    2   13      0.42      0.00
  -19    2   13      0.35      0.00
  -18    2   13      0.25      0.00
  -17    2   13      0.02      0.00
  -16    2   13     -0.31      0.00
  -15    2   13      0.66      0.00
  -14    2   13      0.08      0.00
  -13    2   13      0.23      0.00
  -12    2   13      0.92      0.00
  -11    2   13     -0.23      0.00
  -10    2   13      0.20      0.00
   -9    2   13      0.57      0.00
   -8    2   13      1.22      0.00
   -7    2   13     -4.37      0.00
   -6    2   13     -2.09      0.00
   -5    2   13      3.66      0.00
   -4    2   13      0.65      0.00
   -3    2   13      1.07      0.00
   -2    2   13      1.60      0.00
   -1    2   13     -4.68      0.00
    0    2   13     -9.27      0.00
    1    2   13      3.27      0.00
    2    2   13      2.02      0.00
    3    2   13      0.97      0.00
    4    2   13      0.43      0.00
    5    2   13      4.85      0.00
    6    2   13     -2.49      0.00
    7    2   13     -0.29      0.00
    8    2   13      2.28      0.00
    9    2   13      2.16      0.00
   10    2   13      0.79      0.00
   11    2   13     -1.18      0.00
   12    2   13     -0.15      0.00
   13    2   13      0.33      0.00
   14    2   13     -0.12      0.00
   15    2   13      1.07      0.00
   16    2   13      0.83      0.00
   17    2   13     -0.17      0.00
   18    2   13     -0.46      0.00
   19    2   13     -0.53      0.00
   20    2   13      0.46      0.00
   21    2   13     -1.28      0.00
   22    2   13     -0.91      0.00
   23    2   13     -0.28      0.00
  -23    3   13     -1.12      0.00
  -22    3   13     -0.97      0.00
  -21    3   13      0.21      0.00
  -20    3   13      0.03      0.00
  -19    3   13     -0.03      0.00
  -18    3   13      1.00      0.00
  -17    3   13     -0.32      0.00
  -16    3   13     -0.16      0.00
  -15    3   13      0.24      0.00
  -14    3   13     -0.71      0.00
  -13    3   13      0.42      0.00
  -12    3   13      0.13      0.00
  -11    3   13     -0.14      0.00
  -10    3   13      0.45      0.00
   -9    3   13      1.64      0.00
   -8    3   13     -2.31      0.00
   -7    3   13     -1.18      0.00
   -6    3   13      1.83      0.00
   -5    3   13      0.01      0.00
   -4    3   13      0.73      0.00
   -3    3   13      1.25      0.00
   -2    3   13      1.09      0.00
   -1    3   13     -3.28      0.00
    0    3   13     -3.68      0.00
    1    3   13     -6.30      0.00
    2    3   13      2.78      0.00
    3    3   13      4.30      0.00
    4    3   13      2.05      0.00
    5    3   13     -2.47      0.00
    6    3   13     -0.37      0.00
    7    3   13     -0.96      0.00
    8    3   13      2.72      0.00
    9    3   13      3.73      0.00
   10    3   13     -1.56      0.00
   11    3   13     -0.76      0.00
   12    3   13      1.31      0.00
   13    3   13      0.12      0.00
   14    3   13      0.25      0.00
   15    3   13      0.61      0.00
   16    3   13      0.82      0.00
   17    3   13     -0.28      0.00
   18    3   13     -0.32      0.00
   19    3   13     -0.27      0.00
   20    3   13      0.45      0.00
   21    3   13     -1.04      0.00
   22    3   13     -3.39      0.00
   23    3   13      2.26      0.00
  -23    4   13     -0.57      0.00
  -22    4   13      0.34      0.00
  -21    4   13     -1.15      0.00
  -20    4   13      0.38      0.00
  -19    4   13      1.21      0.00
  -18    4   13     -0.05      0.00
  -17    4   13      0.59      0.00
  -16    4   13     -0.61      0.00
  -15    4   13     -1.64      0.00
  -14    4   13     -0.06      0.00
  -13    4   13     -0.14      0.00
  -12    4   13      0.38      0.00
  -11    4   13     -0.13      0.00
  -10    4   13     -0.82      0.00
   -9    4   13      0.04      0.00
   -8    4   13      1.73      0.00
   -7    4   13     -1.24      0.00
   -6    4   13     -1.78      0.00
   -5    4   13      3.14      0.00
   -4    4   13      1.65      0.00
   -3    4   13     -0.34      0.00
   -2    4   13     -0.10      0.00
   -1    4   13     -0.27      0.00
    0    4   13     -6.47      0.00
    1    4   13     -0.82      0.00
    2    4   13      1.24      0.00
    3    4   13      0.58      0.00
    4    4   13     -0.31      0.00
    5    4   13      1.54      0.00
    6    4   13     -1.15      0.00
    7    4   13     -2.22      0.00
    8    4   13      1.26      0.00
    9    4   13      2.37      0.00
   10    4   13      1.21      0.00
   11    4   13     -0.37      0.00
   12    4   13      0.09      0.00
   13    4   13      0.29      0.00
   14    4   13     -0.26      0.00
   15    4   13      0.82      0.00
   16    4   13      0.86      0.00
   17    4   13      0.11      0.00
   18    4   13     -1.52      0.00
   19    4   13     -0.06      0.00
   20    4   13     -0.27      0.00
   21    4   13     -0.37      0.00
   22    4   13      0.77      0.00
  -22    5   13     -1.51      0.00
  -21    5   13      0.80      0.00
  -20    5   13      0.83      0.00
  -19    5   13      0.43      0.00
  -18    5   13      0.26      0.00
  -17    5   13     -0.66      0.00
  -16    5   13      0.13      0.00
  -15    5   13     -0.46      0.00
  -14    5   13     -1.63      0.00
  -13    5   13     -0.19      0.00
  -12    5   13      0.60      0.00
  -11    5   13     -0.76      0.00
  -10    5   13     -0.17      0.00
   -9    5   13      0.83      0.00
   -8    5   13     -0.87      0.00
   -7    5   13     -1.62      0.00
   -6    5   13      1.20      0.00
   -5    5   13      1.82      0.00
   -4    5   13      0.55      0.00
   -3    5   13     -1.10      0.00
   -2    5   13      2.25      0.00
   -1    5   13     -0.91      0.00
    0    5   13     -2.96      0.00
    1    5   13     -3.13      0.00
    2    5   13      0.76      0.00
    3    5   13      0.84      0.00
    4    5   13      0.67      0.00
    5    5   13     -0.12      0.00
    6    5   13     -2.22      0.00
    7    5   13     -1.34      0.00
    8    5   13      0.28      0.00
    9    5   13      3.14      0.00
   10    5   13      0.41      0.00
   11    5   13     -1.36      0.00
   12    5   13      1.20      0.00
   13    5   13      0.06      0.00
   14    5   13     -0.74      0.00
   15    5   13      0.36      0.00
   16    5   13      0.52      0.00
   17    5   13      0.43      0.00
   18    5   13     -1.15      0.00
   19    5   13     -1.83      0.00
   20    5   13      1.51      0.00
   21    5   13      0.88      0.00
  -21    6   13     -0.05      0.00
  -20    6   13     -0.32      0.00
  -19    6   13      0.14      0.00
  -18    6   13      0.74      0.00
  -17    6   13      0.11      0.00
  -16    6   13     -0.97      0.00
  -15    6   13     -0.73      0.00
  -14    6   13     -0.40      0.00
  -13    6   13      0.38      0.00
  -12    6   13      0.46      0.00
  -11    6   13     -0.06      0.00
  -10    6   13     -1.65      0.00
   -9    6   13     -0.09      0.00
   -8    6   13      0.76      0.00
   -7    6   13     -0.55      0.00
   -6    6   13     -1.64      0.00
   -5    6   13      1.20      0.00
   -4    6   13      1.31      0.00
   -3    6   13      1.55      0.00
   -2    6   13     -1.36      0.00
   -1    6   13     -0.53      0.00
    0    6   13     -0.92      0.00
    1    6   13     -0.42      0.00
    2    6   13      0.10      0.00
    3    6   13     -0.30      0.00
    4    6   13     -0.67      0.00
    5    6   13      0.01      0.00
    6    6   13     -0.08      0.00
    7    6   13     -2.11      0.00
    8    6   13      1.03      0.00
    9    6   13      1.59      0.00
   10    6   13      0.90      0.00
   11    6   13     -0.81      0.00
   12    6   13     -1.50      0.00
   13    6   13      1.41      0.00
   14    6   13     -0.15      0.00
   15    6   13     -0.58      0.00
   16    6   13      1.72      0.00
   17    6   13     -1.62      0.00
   18    6   13     -0.93      0.00
   19    6   13      0.25      0.00
   20    6   13     -0.26      0.00
   21    6   13      0.39      0.00
  -20    7   13     -0.42      0.00
  -19    7   13     -0.31      0.00
  -18    7   13     -0.04      0.00
  -17    7   13     -0.35      0.00
  -16    7   13     -0.39      0.00
  -15    7   13      1.00      0.00
  -14    7   13     -0.10      0.00
  -13    7   13     -1.19      0.00
  -12    7   13      0.24      0.00
  -11    7   13     -0.72      0.00
  -10    7   13      0.10      0.00
   -9    7   13      0.37      0.00
   -8    7   13      0.94      0.00
   -7    7   13     -1.21      0.00
   -6    7   13     -0.91      0.00
   -5    7   13      0.43      0.00
   -4    7   13      1.18      0.00
   -3    7   13     -1.32      0.00
   -2    7   13      1.38      0.00
   -1    7   13      1.31      0.00
    0    7   13     -1.19      0.00
    1    7   13     -1.37      0.00
    2    7   13     -0.20      0.00
    3    7   13      0.74      0.00
    4    7   13      0.38      0.00
    5    7   13     -0.02      0.00
    6    7   13     -0.60      0.00
    7    7   13      0.04      0.00
    8    7   13     -0.09      0.00
    9    7   13      1.77      0.00
   10    7   13      0.35      0.00
   11    7   13     -1.07      0.00
   12    7   13      0.22      0.00
   13    7   13      0.24      0.00
   14    7   13      0.05      0.00
   15    7   13      0.14      0.00
   16    7   13     -1.07      0.00
   17    7   13      1.93      0.00
   18    7   13     -0.58      0.00
   19    7   13     -1.99      0.00
   20    7   13     -0.05      0.00
  -19    8   13      0.67      0.00
  -18    8   13     -0.59      0.00
  -17    8   13     -1.37      0.00
  -16    8   13      1.32      0.00
  -15    8   13     -0.15      0.00
  -14    8   13     -0.54      0.00
  -13    8   13      0.19      0.00
  -12    8   13     -1.65      0.00
  -11    8   13     -0.34      0.00
  -10    8   13     -0.69      0.00
   -9    8   13      1.55      0.00
   -8    8   13      1.36      0.00
   -7    8   13      0.14      0.00
   -6    8   13     -1.36      0.00
   -5    8   13     -0.34      0.00
   -4    8   13      0.48      0.00
   -3    8   13      0.45      0.00
   -2    8   13      0.42      0.00
   -1    8   13      0.89      0.00
    0    8   13     -0.75      0.00
    1    8   13     -1.17      0.00
    2    8   13      0.26      0.00
    3    8   13      0.58      0.00
    4    8   13      0.96      0.00
    5    8   13     -0.49      0.00
    6    8   13      0.29      0.00
    7    8   13      0.61      0.00
    8    8   13      0.49      0.00
    9    8   13      0.42      0.00
   10    8   13      0.46      0.00
   11    8   13     -0.67      0.00
   12    8   13      0.33      0.00
   13    8   13     -0.02      0.00
   14    8   13      0.67      0.00
   15    8   13      0.31      0.00
   16    8   13      1.64      0.00
   17    8   13     -0.79      0.00
   18    8   13     -1.75      0.00
  -17    9   13     -0.05      0.00
  -16    9   13     -1.64      0.00
  -15    9   13      1.91      0.00
  -14    9   13      0.17      0.00
  -13    9   13     -3.23      0.00
  -12    9   13     -0.31      0.00
  -11    9   13     -0.68      0.00
  -10    9   13      0.28      0.00
   -9    9   13      0.21      0.00
   -8    9   13      1.74      0.00
   -7    9   13      0.15      0.00
   -6    9   13     -1.99      0.00
   -5    9   13      0.58      0.00
   -4    9   13      1.81      0.00
   -3    9   13      0.18      0.00
   -2    9   13     -1.35      0.00
   -1    9   13      0.06      0.00
    0    9   13      0.53      0.00
    1    9   13     -0.43      0.00
    2    9   13     -0.15      0.00
    3    9   13     -0.57      0.00
    4    9   13     -0.68      0.00
    5    9   13      3.24      0.00
    6    9   13      0.62      0.00
    7    9   13     -0.52      0.00
    8    9   13     -0.33      0.00
    9    9   13     -0.18      0.00
   10    9   13      0.30      0.00
   11    9   13     -0.15      0.00
   12    9   13     -0.59      0.00
   13    9   13      3.26      0.00
   14    9   13     -0.47      0.00
   15    9   13     -1.30      0.00
   16    9   13      1.38      0.00
  -14   10   13      0.21      0.00
  -13   10   13     -0.44      0.00
  -12   10   13     -1.69      0.00
  -11   10   13     -0.01      0.00
  -10   10   13     -0.80      0.00
   -9   10   13     -0.22      0.00
   -8   10   13     -0.35      0.00
   -7   10   13      0.11      0.00
   -6   10   13      0.46      0.00
   -5   10   13      0.19      0.00
   -4   10   13      1.30      0.00
   -3   10   13     -0.80      0.00
   -2   10   13     -0.97      0.00
   -1   10   13     -0.39      0.00
    0   10   13     -0.23      0.00
    1   10   13     -0.42      0.00
    2   10   13     -0.54      0.00
    3   10   13      0.06      0.00
    4   10   13      1.55      0.00
    5   10   13     -0.69      0.00
    6   10   13      1.35      0.00
    7   10   13      0.16      0.00
    8   10   13     -0.10      0.00
    9   10   13     -0.69      0.00
   10   10   13     -0.63      0.00
   11   10   13      0.40      0.00
   12   10   13      0.55      0.00
   13   10   13     -0.80      0.00
   14   10   13      1.40      0.00
   15   10   13      0.44      0.00
  -12   11   13     -1.75      0.00
  -11   11   13     -0.83      0.00
  -10   11   13      0.26      0.00
   -9   11   13     -1.28      0.00
   -8   11   13     -0.88      0.00
   -7   11   13     -0.32      0.00
   -6   11   13      1.03      0.00
   -5   11   13      0.23      0.00
   -4   11   13     -1.15      0.00
   -3   11   13      0.41      0.00
   -2   11   13     -0.55      0.00
   -1   11   13     -1.60      0.00
    0   11   13     -0.80      0.00
    1   11   13      0.14      0.00
    2   11   13     -0.65      0.00
    3   11   13     -0.25      0.00
    4   11   13      0.12      0.00
    5   11   13      1.60      0.00
    6   11   13     -0.17      0.00
    7   11   13      0.72      0.00
    8   11   13     -0.56      0.00
    9   11   13     -0.43      0.00
   10   11   13      0.15      0.00
   11   11   13     -0.58      0.00
   -8   12   13     -1.28      0.00
   -7   12   13      0.06      0.00
   -6   12   13     -0.50      0.00
   -5   12   13      0.47      0.00
   -4   12   13     -0.05      0.00
   -3   12   13     -1.11      0.00
   -2   12   13     -0.93      0.00
   -1   12   13     -0.75      0.00
    0   12   13     -0.64      0.00
    1   12   13     -0.53      0.00
    2   12   13     -0.61      0.00
    3   12   13     -0.47      0.00
    4   12   13      1.00      0.00
    5   12   13      0.15      0.00
    6   12   13     -0.05      0.00
    7   12   13      0.22      0.00
    8   12   13      1.02      0.00
  -24    0   14     -0.55      0.00
  -22    0   14      1.39      0.00
  -20    0   14     -1.37      0.00
  -18    0   14      1.28      0.00
  -16    0   14      0.11      0.00
  -14    0   14      0.50      0.00
  -12    0   14      0.26      0.00
  -10    0   14      1.58      0.00
   -8    0   14     -3.59      0.00
   -6    0   14      0.37      0.00
   -4    0   14     -1.50      0.00
   -2    0   14      0.72      0.00
    0    0   14     -4.32      0.00
    2    0   14      7.55      0.00
    4    0   14     -1.25      0.00
    6    0   14      5.94      0.00
    8    0   14      1.62      0.00
   10    0   14     -1.76      0.00
   12    0   14      0.87      0.00
   14    0   14      0.01      0.00
   16    0   14     -1.70      0.00
   18    0   14      0.46      0.00
   20    0   14     -0.14      0.00
   22    0   14     -0.32      0.00
   24    0   14     -0.78      0.00
  -24    1   14      0.00      0.00
  -23    1   14     -0.09      0.00
  -22    1   14     -0.33      0.00
  -21    1   14      0.57      0.00
  -20    1   14     -0.11      0.00
  -19    1   14     -0.57      0.00
  -18    1   14      0.51      0.00
  -17    1   14      0.57      0.00
  -16    1   14     -0.78      0.00
  -15    1   14      0.98      0.00
  -14    1   14      0.56      0.00
  -13    1   14      0.03      0.00
  -12    1   14      0.05      0.00
  -11    1   14      0.48      0.00
  -10    1   14      0.42      0.00
   -9    1   14      0.44      0.00
   -8    1   14      0.71      0.00
   -7    1   14     -4.35      0.00
   -6    1   14     -1.79      0.00
   -5    1   14      2.62      0.00
   -4    1   14      1.33      0.00
   -3    1   14     -0.66      0.00
   -2    1   14      0.39      0.00
   -1    1   14     -4.14      0.00
    0    1   14     -4.84      0.00
    1    1   14      4.98      0.00
    2    1   14      1.23      0.00
    3    1   14     -0.53      0.00
    4    1   14     -0.48      0.00
    5    1   14      4.96      0.00
    6    1   14     -0.91      0.00
    7    1   14      1.85      0.00
    8    1   14      1.11      0.00
    9    1   14      0.95      0.00
   10    1   14      0.33      0.00
   11    1   14     -0.84      0.00
   12    1   14     -0.17      0.00
   13    1   14      0.08      0.00
   14    1   14      0.24      0.00
   15    1   14      0.17      0.00
   16    1   14      0.23      0.00
   17    1   14     -0.64      0.00
   18    1   14      0.17      0.00
   19    1   14     -0.21      0.00
   20    1   14      0.02      0.00
   21    1   14     -0.29      0.00
   22    1   14     -0.18      0.00
   23    1   14     -0.71      0.00
   24    1   14      0.36      0.00
  -24    2   14     -0.58      0.00
  -23    2   14     -0.48      0.00
  -22    2   14     -0.01      0.00
  -21    2   14     -0.41      0.00
  -20    2   14     -0.49      0.00
  -19    2   14      0.16      0.00
  -18    2   14      0.64      0.00
  -17    2   14     -0.45      0.00
  -16    2   14      0.45      0.00
  -15    2   14      0.32      0.00
  -14    2   14     -0.09      0.00
  -13    2   14      0.20      0.00
  -12    2   14      0.80      0.00
  -11    2   14      0.47      0.00
  -10    2   14     -0.19      0.00
   -9    2   14      1.18      0.00
   -8    2   14     -2.11      0.00
   -7    2   14     -1.41      0.00
   -6    2   14      0.81      0.00
   -5    2   14      0.38      0.00
   -4    2   14      0.07      0.00
   -3    2   14      1.25      0.00
   -2    2   14      0.79      0.00
   -1    2   14     -2.95      0.00
    0    2   14     -3.41      0.00
    1    2   14     -4.80      0.00
    2    2   14      4.34      0.00
    3    2   14      2.96      0.00
    4    2   14      0.55      0.00
    5    2   14     -2.52      0.00
    6    2   14      2.14      0.00
    7    2   14      0.25      0.00
    8    2   14      3.05      0.00
    9    2   14      1.82      0.00
   10    2   14     -2.13      0.00
   11    2   14      0.17      0.00
   12    2   14      1.07      0.00
   13    2   14     -0.38      0.00
   14    2   14      0.33      0.00
   15    2   14      0.61      0.00
   16    2   14      0.04      0.00
   17    2   14      0.23      0.00
   18    2   14     -0.06      0.00
   19    2   14      0.08      0.00
   20    2   14     -0.03      0.00
   21    2   14     -0.85      0.00
   22    2   14     -2.46      0.00
   23    2   14      1.24      0.00
  -23    3   14     -1.24      0.00
  -22    3   14     -0.39      0.00
  -21    3   14     -0.43      0.00
  -20    3   14      0.28      0.00
  -19    3   14      0.57      0.00
  -18    3   14     -0.61      0.00
  -17    3   14      0.22      0.00
  -16    3   14     -0.06      0.00
  -15    3   14     -0.21      0.00
  -14    3   14      0.20      0.00
  -13    3   14     -0.44      0.00
  -12    3   14      0.65      0.00
  -11    3   14      0.12      0.00
  -10    3   14     -0.30      0.00
   -9    3   14     -0.28      0.00
   -8    3   14      1.27      0.00
   -7    3   14     -1.55      0.00
   -6    3   14     -1.48      0.00
   -5    3   14      2.76      0.00
   -4    3   14      1.52      0.00
   -3    3   14     -0.25      0.00
   -2    3   14      0.58      0.00
   -1    3   14     -1.02      0.00
    0    3   14     -7.38      0.00
    1    3   14      0.59      0.00
    2    3   14      1.65      0.00
    3    3   14      0.25      0.00
    4    3   14     -0.54      0.00
    5    3   14      2.40      0.00
    6    3   14     -1.78      0.00
    7    3   14     -0.39      0.00
    8    3   14      1.75      0.00
    9    3   14      2.05      0.00
   10    3   14      1.02      0.00
   11    3   14     -0.74      0.00
   12    3   14      0.17      0.00
   13    3   14      0.13      0.00
   14    3   14     -0.34      0.00
   15    3   14      1.14      0.00
   16    3   14      1.08      0.00
   17    3   14      0.40      0.00
   18    3   14     -1.19      0.00
   19    3   14     -0.39      0.00
   20    3   14      0.28      0.00
   21    3   14     -1.17      0.00
   22    3   14     -0.35      0.00
   23    3   14     -1.29      0.00
  -23    4   14     -0.64      0.00
  -22    4   14     -1.91      0.00
  -21    4   14      1.24      0.00
  -20    4   14      0.61      0.00
  -19    4   14     -0.53      0.00
  -18    4   14      0.63      0.00
  -17    4   14     -0.32      0.00
  -16    4   14     -0.05      0.00
  -15    4   14     -0.18      0.00
  -14    4   14     -1.66      0.00
  -13    4   14     -0.03      0.00
  -12    4   14      0.08      0.00
  -11    4   14     -0.40      0.00
  -10    4   14      0.25      0.00
   -9    4   14      0.70      0.00
   -8    4   14     -1.38      0.00
   -7    4   14     -0.69      0.00
   -6    4   14      1.72      0.00
   -5    4   14      1.19      0.00
   -4    4   14      0.22      0.00
   -3    4   14      0.31      0.00
   -2    4   14      1.75      0.00
   -1    4   14     -2.28      0.00
    0    4   14     -2.56      0.00
    1    4   14     -4.13      0.00
    2    4   14      1.42      0.00
    3    4   14      2.34      0.00
    4    4   14      0.11      0.00
    5    4   14     -1.98      0.00
    6    4   14     -0.74      0.00
    7    4   14     -0.84      0.00
    8    4   14      1.53      0.00
    9    4   14      3.08      0.00
   10    4   14     -1.02      0.00
   11    4   14     -1.08      0.00
   12    4   14      1.89      0.00
   13    4   14      0.48      0.00
   14    4   14     -1.03      0.00
   15    4   14      0.48      0.00
   16    4   14      1.21      0.00
   17    4   14     -0.26      0.00
   18    4   14     -0.49      0.00
   19    4   14     -1.17      0.00
   20    4   14      1.02      0.00
   21    4   14     -0.02      0.00
   22    4   14     -3.22      0.00
  -22    5   14      0.68      0.00
  -21    5   14     -1.04      0.00
  -20    5   14      0.74      0.00
  -19    5   14      1.18      0.00
  -18    5   14     -0.17      0.00
  -17    5   14      0.11      0.00
  -16    5   14     -0.78      0.00
  -15    5   14     -1.14      0.00
  -14    5   14     -0.55      0.00
  -13    5   14     -0.17      0.00
  -12    5   14      0.26      0.00
  -11    5   14     -0.16      0.00
  -10    5   14     -1.22      0.00
   -9    5   14     -0.23      0.00
   -8    5   14      0.71      0.00
   -7    5   14     -0.91      0.00
   -6    5   14     -0.93      0.00
   -5    5   14      2.27      0.00
   -4    5   14      2.01      0.00
   -3    5   14      0.32      0.00
   -2    5   14     -2.23      0.00
   -1    5   14      0.30      0.00
    0    5   14     -1.68      0.00
    1    5   14     -0.61      0.00
    2    5   14     -0.24      0.00
    3    5   14     -0.30      0.00
    4    5   14     -0.69      0.00
    5    5   14      0.18      0.00
    6    5   14     -0.70      0.00
    7    5   14     -2.02      0.00
    8    5   14      0.99      0.00
    9    5   14      1.67      0.00
   10    5   14      0.66      0.00
   11    5   14     -0.73      0.00
   12    5   14     -0.54      0.00
   13    5   14      1.17      0.00
   14    5   14     -0.33      0.00
   15    5   14     -0.43      0.00
   16    5   14      1.41      0.00
   17    5   14     -0.55      0.00
   18    5   14     -1.65      0.00
   19    5   14      0.39      0.00
   20    5   14      0.10      0.00
   21    5   14     -0.31      0.00
  -21    6   14      1.15      0.00
  -20    6   14     -0.07      0.00
  -19    6   14     -0.09      0.00
  -18    6   14      0.16      0.00
  -17    6   14     -0.56      0.00
  -16    6   14      0.02      0.00
  -15    6   14      0.05      0.00
  -14    6   14     -0.52      0.00
  -13    6   14     -0.83      0.00
  -12    6   14      0.12      0.00
  -11    6   14     -0.10      0.00
  -10    6   14      0.08      0.00
   -9    6   14     -0.46      0.00
   -8    6   14     -0.71      0.00
   -7    6   14     -1.03      0.00
   -6    6   14      0.43      0.00
   -5    6   14      1.18      0.00
   -4    6   14      1.05      0.00
   -3    6   14     -1.74      0.00
   -2    6   14      1.80      0.00
   -1    6   14      0.30      0.00
    0    6   14     -1.70      0.00
    1    6   14     -1.30      0.00
    2    6   14      0.26      0.00
    3    6   14      0.68      0.00
    4    6   14      0.22      0.00
    5    6   14     -1.09      0.00
    6    6   14     -1.39      0.00
    7    6   14     -0.18      0.00
    8    6   14     -0.59      0.00
    9    6   14      2.59      0.00
   10    6   14      0.92      0.00
   11    6   14     -1.83      0.00
   12    6   14      0.15      0.00
   13    6   14     -0.40      0.00
   14    6   14     -0.12      0.00
   15    6   14      0.41      0.00
   16    6   14     -0.81      0.00
   17    6   14      1.55      0.00
   18    6   14     -0.76      0.00
   19    6   14     -1.75      0.00
   20    6   14      0.12      0.00
   21    6   14      0.82      0.00
  -20    7   14     -0.04      0.00
  -19    7   14      0.49      0.00
  -18    7   14     -0.22      0.00
  -17    7   14     -0.77      0.00
  -16    7   14      0.43      0.00
  -15    7   14     -0.32      0.00
  -14    7   14     -0.30      0.00
  -13    7   14      0.68      0.00
  -12    7   14     -0.65      0.00
  -11    7   14     -0.68      0.00
  -10    7   14     -0.87      0.00
   -9    7   14      0.80      0.00
   -8    7   14      0.68      0.00
   -7    7   14      0.06      0.00
   -6    7   14     -1.78      0.00
   -5    7   14      0.28      0.00
   -4    7   14      0.75      0.00
   -3    7   14      1.18      0.00
   -2    7   14     -0.75      0.00
   -1    7   14      0.24      0.00
    0    7   14     -0.58      0.00
    1    7   14     -0.53      0.00
    2    7   14      1.29      0.00
    3    7   14      0.24      0.00
    4    7   14     -0.73      0.00
    5    7   14     -0.26      0.00
    6    7   14     -0.39      0.00
    7    7   14     -0.57      0.00
    8    7   14      1.57      0.00
    9    7   14      1.21      0.00
   10    7   14      0.89      0.00
   11    7   14     -1.10      0.00
   12    7   14     -1.89      0.00
   13    7   14      0.43      0.00
   14    7   14      0.51      0.00
   15    7   14      0.01      0.00
   16    7   14      1.98      0.00
   17    7   14     -1.94      0.00
   18    7   14     -0.35      0.00
   19    7   14      0.11      0.00
  -19    8   14     -0.95      0.00
  -18    8   14      0.67      0.00
  -17    8   14      0.30      0.00
  -16    8   14     -1.65      0.00
  -15    8   14      2.14      0.00
  -14    8   14      0.25      0.00
  -13    8   14     -2.95      0.00
  -12    8   14     -0.01      0.00
  -11    8   14     -0.58      0.00
  -10    8   14     -0.14      0.00
   -9    8   14      0.74      0.00
   -8    8   14      2.36      0.00
   -7    8   14     -1.18      0.00
   -6    8   14     -1.54      0.00
   -5    8   14      0.73      0.00
   -4    8   14      1.27      0.00
   -3    8   14     -0.93      0.00
   -2    8   14      0.03      0.00
   -1    8   14      0.85      0.00
    0    8   14      0.26      0.00
    1    8   14     -0.51      0.00
    2    8   14     -0.39      0.00
    3    8   14     -0.04      0.00
    4    8   14      0.39      0.00
    5    8   14      1.40      0.00
    6    8   14     -0.32      0.00
    7    8   14     -0.10      0.00
    8    8   14      0.85      0.00
    9    8   14      0.75      0.00
   10    8   14     -0.03      0.00
   11    8   14     -0.35      0.00
   12    8   14     -0.96      0.00
   13    8   14      1.50      0.00
   14    8   14     -0.14      0.00
   15    8   14     -0.03      0.00
   16    8   14      0.03      0.00
   17    8   14      1.55      0.00
   18    8   14     -0.46      0.00
  -16    9   14      1.25      0.00
  -15    9   14      0.23      0.00
  -14    9   14     -0.06      0.00
  -13    9   14     -0.51      0.00
  -12    9   14     -2.62      0.00
  -11    9   14     -0.13      0.00
  -10    9   14     -0.57      0.00
   -9    9   14      1.09      0.00
   -8    9   14      0.68      0.00
   -7    9   14      0.60      0.00
   -6    9   14     -0.84      0.00
   -5    9   14     -0.83      0.00
   -4    9   14      1.62      0.00
   -3    9   14      0.38      0.00
   -2    9   14     -0.93      0.00
   -1    9   14      0.06      0.00
    0    9   14      0.39      0.00
    1    9   14     -0.43      0.00
    2    9   14     -0.95      0.00
    3    9   14      0.50      0.00
    4    9   14      1.43      0.00
    5    9   14     -0.84      0.00
    6    9   14      1.49      0.00
    7    9   14      0.66      0.00
    8    9   14     -0.60      0.00
    9    9   14      0.12      0.00
   10    9   14      0.00      0.00
   11    9   14     -0.78      0.00
   12    9   14      0.66      0.00
   13    9   14     -0.74      0.00
   14    9   14      2.01      0.00
   15    9   14      0.05      0.00
   16    9   14     -0.21      0.00
  -14   10   14      0.71      0.00
  -13   10   14     -1.19      0.00
  -12   10   14     -1.34      0.00
  -11   10   14     -1.37      0.00
  -10   10   14      0.33      0.00
   -9   10   14     -0.91      0.00
   -8   10   14      0.79      0.00
   -7   10   14      0.32      0.00
   -6   10   14     -1.31      0.00
   -5   10   14      0.13      0.00
   -4   10   14      0.82      0.00
   -3   10   14      0.81      0.00
   -2   10   14     -1.11      0.00
   -1   10   14     -0.88      0.00
    0   10   14     -0.44      0.00
    1   10   14     -0.36      0.00
    2   10   14     -0.06      0.00
    3   10   14     -0.19      0.00
    4   10   14     -0.45      0.00
    5   10   14      2.43      0.00
    6   10   14      0.14      0.00
    7   10   14      0.67      0.00
    8   10   14     -0.69      0.00
    9   10   14     -1.12      0.00
   10   10   14      0.10      0.00
   11   10   14     -0.43      0.00
   12   10   14     -0.57      0.00
   13   10   14      2.22      0.00
   14   10   14     -0.77      0.00
  -12   11   14     -0.29      0.00
  -11   11   14     -0.59      0.00
  -10   11   14     -1.40      0.00
   -9   11   14     -0.76      0.00
   -8   11   14     -0.88      0.00
   -7   11   14      0.46      0.00
   -6   11   14      0.03      0.00
   -5   11   14     -0.12      0.00
   -4   11   14      0.46      0.00
   -3   11   14     -1.12      0.00
   -2   11   14     -0.94      0.00
   -1   11   14     -0.55      0.00
    0   11   14     -0.66      0.00
    1   11   14     -1.08      0.00
    2   11   14     -0.21      0.00
    3   11   14     -0.49      0.00
    4   11   14      1.09      0.00
    5   11   14      0.34      0.00
    6   11   14      0.93      0.00
    7   11   14     -0.17      0.00
    8   11   14      0.59      0.00
    9   11   14     -0.93      0.00
   10   11   14     -1.00      0.00
   -6   12   14      0.95      0.00
   -5   12   14     -0.06      0.00
   -4   12   14     -1.38      0.00
   -3   12   14     -0.48      0.00
   -2   12   14     -0.08      0.00
   -1   12   14     -1.09      0.00
    0   12   14     -1.09      0.00
    1   12   14     -0.23      0.00
    2   12   14     -1.26      0.00
    3   12   14     -0.29      0.00
    4   12   14      0.16      0.00
    5   12   14      1.07      0.00
    6   12   14      0.46      0.00
    7   12   14      0.56      0.00
  -23    0   15     -0.05      0.00
  -21    0   15      0.96      0.00
  -19    0   15     -1.02      0.00
  -17    0   15      0.87      0.00
  -15    0   15      0.41      0.00
  -13    0   15      0.59      0.00
  -11    0   15      0.06      0.00
   -9    0   15      0.92      0.00
   -7    0   15     -3.58      0.00
   -5    0   15      2.01      0.00
   -3    0   15     -2.86      0.00
   -1    0   15     -2.34      0.00
    1    0   15      5.55      0.00
    3    0   15     -2.76      0.00
    5    0   15      5.21      0.00
    7    0   15      2.56      0.00
    9    0   15      0.12      0.00
   11    0   15     -0.38      0.00
   13    0   15      0.06      0.00
   15    0   15     -0.73      0.00
   17    0   15     -0.41      0.00
   19    0   15     -0.28      0.00
   21    0   15      0.44      0.00
   23    0   15     -0.98      0.00
  -24    1   15     -1.10      0.00
  -23    1   15     -0.28      0.00
  -22    1   15      1.03      0.00
  -21    1   15     -0.13      0.00
  -20    1   15     -0.95      0.00
  -19    1   15      0.02      0.00
  -18    1   15      0.52      0.00
  -17    1   15     -0.12      0.00
  -16    1   15      0.48      0.00
  -15    1   15     -0.32      0.00
  -14    1   15      0.49      0.00
  -13    1   15      0.49      0.00
  -12    1   15      0.49      0.00
  -11    1   15      0.21      0.00
  -10    1   15      0.53      0.00
   -9    1   15      0.49      0.00
   -8    1   15     -2.19      0.00
   -7    1   15     -0.77      0.00
   -6    1   15      0.78      0.00
   -5    1   15      0.19      0.00
   -4    1   15     -1.83      0.00
   -3    1   15      0.88      0.00
   -2    1   15     -0.07      0.00
   -1    1   15     -1.56      0.00
    0    1   15     -1.43      0.00
    1    1   15     -2.52      0.00
    2    1   15      4.18      0.00
    3    1   15      1.56      0.00
    4    1   15     -1.55      0.00
    5    1   15     -2.04      0.00
    6    1   15      5.46      0.00
    7    1   15      1.14      0.00
    8    1   15      1.30      0.00
    9    1   15     -0.06      0.00
   10    1   15     -1.32      0.00
   11    1   15      0.87      0.00
   12    1   15      0.73      0.00
   13    1   15     -0.54      0.00
   14    1   15      0.01      0.00
   15    1   15      0.36      0.00
   16    1   15     -1.13      0.00
   17    1   15      0.61      0.00
   18    1   15      0.24      0.00
   19    1   15     -0.26      0.00
   20    1   15      0.19      0.00
   21    1   15     -0.35      0.00
   22    1   15     -1.17      0.00
   23    1   15      0.83      0.00
  -23    2   15     -0.91      0.00
  -22    2   15     -0.32      0.00
  -21    2   15      0.26      0.00
  -20    2   15      0.03      0.00
  -19    2   15     -0.67      0.00
  -18    2   15     -0.54      0.00
  -17    2   15      0.47      0.00
  -16    2   15     -0.19      0.00
  -15    2   15      1.04      0.00
  -14    2   15      0.24      0.00
  -13    2   15     -0.58      0.00
  -12    2   15      0.84      0.00
  -11    2   15      0.85      0.00
  -10    2   15     -0.23      0.00
   -9    2   15     -0.74      0.00
   -8    2   15      1.05      0.00
   -7    2   15     -1.69      0.00
   -6    2   15     -1.84      0.00
   -5    2   15      2.17      0.00
   -4    2   15      2.10      0.00
   -3    2   15     -1.68      0.00
   -2    2   15      0.06      0.00
   -1    2   15     -0.36      0.00
    0    2   15     -5.87      0.00
    1    2   15      1.83      0.00
    2    2   15      1.93      0.00
    3    2   15     -1.11      0.00
    4    2   15     -1.87      0.00
    5    2   15      3.88      0.00
    6    2   15     -0.70      0.00
    7    2   15      0.63      0.00
    8    2   15      1.52      0.00
    9    2   15      1.57      0.00
   10    2   15      0.42      0.00
   11    2   15     -0.56      0.00
   12    2   15      0.36      0.00
   13    2   15     -0.40      0.00
   14    2   15     -0.35      0.00
   15    2   15      1.17      0.00
   16    2   15      1.03      0.00
   17    2   15     -0.53      0.00
   18    2   15     -0.46      0.00
   19    2   15      0.24      0.00
   20    2   15      0.03      0.00
   21    2   15     -1.04      0.00
   22    2   15      0.09      0.00
   23    2   15     -1.39      0.00
  -23    3   15     -0.33      0.00
  -22    3   15     -1.40      0.00
  -21    3   15      0.47      0.00
  -20    3   15     -0.26      0.00
  -19    3   15     -0.76      0.00
  -18    3   15      0.82      0.00
  -17    3   15     -0.49      0.00
  -16    3   15     -0.12      0.00
  -15    3   15      0.41      0.00
  -14    3   15     -0.61      0.00
  -13    3   15     -0.02      0.00
  -12    3   15     -0.03      0.00
  -11    3   15      0.37      0.00
  -10    3   15      0.32      0.00
   -9    3   15      0.41      0.00
   -8    3   15     -1.65      0.00
   -7    3   15     -0.57      0.00
   -6    3   15      1.65      0.00
   -5    3   15      0.92      0.00
   -4    3   15     -0.46      0.00
   -3    3   15      1.20      0.00
   -2    3   15      1.67      0.00
   -1    3   15     -3.40      0.00
    0    3   15     -2.24      0.00
    1    3   15     -2.78      0.00
    2    3   15      2.10      0.00
    3    3   15      1.36      0.00
    4    3   15     -0.51      0.00
    5    3   15     -2.61      0.00
    6    3   15      1.16      0.00
    7    3   15      0.39      0.00
    8    3   15      2.18      0.00
    9    3   15      2.14      0.00
   10    3   15     -1.34      0.00
   11    3   15     -0.71      0.00
   12    3   15      1.34      0.00
   13    3   15      0.70      0.00
   14    3   15     -0.35      0.00
   15    3   15      0.10      0.00
   16    3   15      0.74      0.00
   17    3   15      0.23      0.00
   18    3   15      0.15      0.00
   19    3   15     -0.73      0.00
   20    3   15      0.30      0.00
   21    3   15     -0.22      0.00
   22    3   15     -3.47      0.00
  -23    4   15     -0.68      0.00
  -22    4   15      0.79      0.00
  -21    4   15     -1.42      0.00
  -20    4   15      0.62      0.00
  -19    4   15      1.54      0.00
  -18    4   15     -1.06      0.00
  -17    4   15     -0.38      0.00
  -16    4   15     -0.08      0.00
  -15    4   15     -0.77      0.00
  -14    4   15     -0.13      0.00
  -13    4   15     -0.73      0.00
  -12    4   15     -0.05      0.00
  -11    4   15     -0.09      0.00
  -10    4   15     -0.48      0.00
   -9    4   15     -0.18      0.00
   -8    4   15      0.47      0.00
   -7    4   15     -0.54      0.00
   -6    4   15     -0.29      0.00
   -5    4   15      1.64      0.00
   -4    4   15      2.08      0.00
   -3    4   15      0.38      0.00
   -2    4   15     -1.93      0.00
   -1    4   15      0.36      0.00
    0    4   15     -2.70      0.00
    1    4   15     -0.60      0.00
    2    4   15     -0.09      0.00
    3    4   15      0.24      0.00
    4    4   15     -1.12      0.00
    5    4   15     -0.21      0.00
    6    4   15     -0.95      0.00
    7    4   15     -0.15      0.00
    8    4   15      1.02      0.00
    9    4   15      1.56      0.00
   10    4   15      0.43      0.00
   11    4   15     -0.95      0.00
   12    4   15      0.24      0.00
   13    4   15      0.89      0.00
   14    4   15      0.06      0.00
   15    4   15      0.06      0.00
   16    4   15      0.54      0.00
   17    4   15      0.34      0.00
   18    4   15     -1.24      0.00
   19    4   15      0.34      0.00
   20    4   15      0.04      0.00
   21    4   15     -1.47      0.00
   22    4   15     -0.02      0.00
  -22    5   15     -0.85      0.00
  -21    5   15      1.99      0.00
  -20    5   15      0.50      0.00
  -19    5   15     -0.57      0.00
  -18    5   15      0.00      0.00
  -17    5   15     -0.39      0.00
  -16    5   15      0.27      0.00
  -15    5   15     -0.36      0.00
  -14    5   15     -1.34      0.00
  -13    5   15     -0.59      0.00
  -12    5   15     -0.01      0.00
  -11    5   15     -0.29      0.00
  -10    5   15     -0.04      0.00
   -9    5   15     -0.27      0.00
   -8    5   15     -0.92      0.00
   -7    5   15     -0.69      0.00
   -6    5   15      0.81      0.00
   -5    5   15      1.78      0.00
   -4    5   15      0.53      0.00
   -3    5   15     -1.44      0.00
   -2    5   15      2.41      0.00
   -1    5   15     -0.50      0.00
    0    5   15     -2.38      0.00
    1    5   15     -2.05      0.00
    2    5   15      1.40      0.00
    3    5   15      0.78      0.00
    4    5   15     -1.02      0.00
    5    5   15     -1.47      0.00
    6    5   15     -0.99      0.00
    7    5   15     -0.73      0.00
    8    5   15      0.38      0.00
    9    5   15      2.28      0.00
   10    5   15     -0.27      0.00
   11    5   15     -1.32      0.00
   12    5   15      0.96      0.00
   13    5   15      0.05      0.00
   14    5   15     -0.65      0.00
   15    5   15      0.39      0.00
   16    5   15      0.13      0.00
   17    5   15      0.42      0.00
   18    5   15     -0.19      0.00
   19    5   15     -1.57      0.00
   20    5   15      0.12      0.00
   21    5   15      0.72      0.00
  -21    6   15     -0.40      0.00
  -20    6   15      0.96      0.00
  -19    6   15      0.75      0.00
  -18    6   15     -0.33      0.00
  -17    6   15     -0.71      0.00
  -16    6   15     -0.53      0.00
  -15    6   15      0.14      0.00
  -14    6   15     -0.31      0.00
  -13    6   15      0.20      0.00
  -12    6   15     -0.19      0.00
  -11    6   15     -0.76      0.00
  -10    6   15     -0.87      0.00
   -9    6   15      0.29      0.00
   -8    6   15      0.03      0.00
   -7    6   15     -0.86      0.00
   -6    6   15     -0.85      0.00
   -5    6   15      1.42      0.00
   -4    6   15      0.80      0.00
   -3    6   15      1.18      0.00
   -2    6   15     -1.79      0.00
   -1    6   15     -0.09      0.00
    0    6   15     -0.08      0.00
    1    6   15      0.15      0.00
    2    6   15      0.42      0.00
    3    6   15     -0.47      0.00
    4    6   15     -0.85      0.00
    5    6   15     -0.28      0.00
    6    6   15     -0.72      0.00
    7    6   15     -1.28      0.00
    8    6   15      1.01      0.00
    9    6   15      1.16      0.00
   10    6   15      1.10      0.00
   11    6   15     -1.18      0.00
   12    6   15     -1.82      0.00
   13    6   15      1.19      0.00
   14    6   15     -0.67      0.00
   15    6   15     -0.83      0.00
   16    6   15      2.65      0.00
   17    6   15     -1.10      0.00
   18    6   15     -1.51      0.00
   19    6   15     -0.09      0.00
   20    6   15      0.52      0.00
   21    6   15     -0.05      0.00
  -20    7   15     -0.39      0.00
  -19    7   15     -0.51      0.00
  -18    7   15      0.41      0.00
  -17    7   15     -0.06      0.00
  -16    7   15     -0.86      0.00
  -15    7   15      1.07      0.00
  -14    7   15      0.41      0.00
  -13    7   15     -1.63      0.00
  -12    7   15     -0.37      0.00
  -11    7   15      0.00      0.00
  -10    7   15      0.21      0.00
   -9    7   15     -0.27      0.00
   -8    7   15      0.48      0.00
   -7    7   15     -0.77      0.00
   -6    7   15     -0.07      0.00
   -5    7   15      0.14      0.00
   -4    7   15      1.25      0.00
   -3    7   15     -1.49      0.00
   -2    7   15      0.54      0.00
   -1    7   15      0.90      0.00
    0    7   15     -0.11      0.00
    1    7   15     -0.82      0.00
    2    7   15     -0.15      0.00
    3    7   15      1.30      0.00
    4    7   15      0.45      0.00
    5    7   15     -1.32      0.00
    6    7   15     -0.75      0.00
    7    7   15      0.58      0.00
    8    7   15      0.13      0.00
    9    7   15      1.79      0.00
   10    7   15      0.66      0.00
   11    7   15     -1.06      0.00
   12    7   15     -0.95      0.00
   13    7   15     -0.65      0.00
   14    7   15     -0.03      0.00
   15    7   15      0.85      0.00
   16    7   15     -0.73      0.00
   17    7   15      1.73      0.00
   18    7   15     -0.89      0.00
   19    7   15     -0.70      0.00
  -18    8   15     -0.60      0.00
  -17    8   15     -1.19      0.00
  -16    8   15      1.62      0.00
  -15    8   15     -0.47      0.00
  -14    8   15      0.10      0.00
  -13    8   15      0.38      0.00
  -12    8   15     -2.33      0.00
  -11    8   15     -0.75      0.00
  -10    8   15     -0.06      0.00
   -9    8   15      1.33      0.00
   -8    8   15      0.52      0.00
   -7    8   15      0.96      0.00
   -6    8   15     -1.57      0.00
   -5    8   15     -0.23      0.00
   -4    8   15      0.90      0.00
   -3    8   15      0.31      0.00
   -2    8   15     -0.49      0.00
   -1    8   15      0.57      0.00
    0    8   15     -0.38      0.00
    1    8   15     -0.17      0.00
    2    8   15      0.84      0.00
    3    8   15      0.52      0.00
    4    8   15      0.03      0.00
    5    8   15     -0.75      0.00
    6    8   15      0.01      0.00
    7    8   15      0.79      0.00
    8    8   15      1.14      0.00
    9    8   15      0.81      0.00
   10    8   15      0.39      0.00
   11    8   15     -1.32      0.00
   12    8   15     -0.98      0.00
   13    8   15     -0.88      0.00
   14    8   15      2.06      0.00
   15    8   15      0.42      0.00
   16    8   15      0.54      0.00
   17    8   15     -0.75      0.00
   18    8   15      0.28      0.00
  -16    9   15     -1.78      0.00
  -15    9   15      2.62      0.00
  -14    9   15      0.56      0.00
  -13    9   15     -2.88      0.00
  -12    9   15     -0.48      0.00
  -11    9   15     -1.24      0.00
  -10    9   15     -0.21      0.00
   -9    9   15      0.32      0.00
   -8    9   15      2.43      0.00
   -7    9   15     -0.88      0.00
   -6    9   15     -1.44      0.00
   -5    9   15      0.50      0.00
   -4    9   15      0.85      0.00
   -3    9   15      0.29      0.00
   -2    9   15     -0.71      0.00
   -1    9   15     -0.13      0.00
    0    9   15      0.57      0.00
    1    9   15     -0.31      0.00
    2    9   15     -0.16      0.00
    3    9   15     -0.41      0.00
    4    9   15     -0.03      0.00
    5    9   15      2.07      0.00
    6    9   15     -0.20      0.00
    7    9   15      0.51      0.00
    8    9   15      0.60      0.00
    9    9   15     -0.96      0.00
   10    9   15     -0.38      0.00
   11    9   15      0.16      0.00
   12    9   15     -1.16      0.00
   13    9   15      2.15      0.00
   14    9   15     -1.09      0.00
   15    9   15      0.27      0.00
  -14   10   15      0.90      0.00
  -13   10   15     -0.38      0.00
  -12   10   15     -1.61      0.00
  -11   10   15     -0.23      0.00
  -10   10   15     -1.55      0.00
   -9   10   15     -0.17      0.00
   -8   10   15     -0.03      0.00
   -7   10   15      1.10      0.00
   -6   10   15     -0.66      0.00
   -5   10   15     -1.21      0.00
   -4   10   15      1.63      0.00
   -3   10   15     -0.19      0.00
   -2   10   15     -1.51      0.00
   -1   10   15     -0.13      0.00
    0   10   15      0.50      0.00
    1   10   15     -0.88      0.00
    2   10   15     -0.93      0.00
    3   10   15     -0.16      0.00
    4   10   15      1.08      0.00
    5   10   15      0.41      0.00
    6   10   15      2.13      0.00
    7   10   15     -0.76      0.00
    8   10   15     -0.84      0.00
    9   10   15     -0.25      0.00
   10   10   15     -0.30      0.00
   11   10   15     -0.07      0.00
   12   10   15     -0.26      0.00
   13   10   15     -1.25      0.00
   14   10   15      2.18      0.00
  -11   11   15     -1.24      0.00
  -10   11   15     -0.36      0.00
   -9   11   15     -1.28      0.00
   -8   11   15      0.30      0.00
   -7   11   15     -0.19      0.00
   -6   11   15     -0.39      0.00
   -5   11   15     -0.19      0.00
   -4   11   15     -0.60      0.00
   -3   11   15      0.19      0.00
   -2   11   15     -0.40      0.00
   -1   11   15     -1.48      0.00
    0   11   15     -1.22      0.00
    1   11   15      0.26      0.00
    2   11   15     -1.28      0.00
    3   11   15     -0.29      0.00
    4   11   15      0.43      0.00
    5   11   15      1.64      0.00
    6   11   15      0.15      0.00
    7   11   15      0.97      0.00
    8   11   15     -0.85      0.00
    9   11   15     -0.82      0.00
   10   11   15      0.00      0.00
   -6   12   15     -0.40      0.00
   -5   12   15      0.33      0.00
   -4   12   15      0.17      0.00
   -3   12   15     -0.95      0.00
   -2   12   15     -1.62      0.00
   -1   12   15     -0.71      0.00
    0   12   15     -0.09      0.00
    1   12   15     -1.19      0.00
    2   12   15     -0.50      0.00
    3   12   15     -1.12      0.00
    4   12   15      0.74      0.00
    5   12   15      0.69      0.00
    6   12   15      0.40      0.00
  -24    0   16     -1.19      0.00
  -22    0   16      0.80      0.00
  -20    0   16     -0.23      0.00
  -18    0   16     -0.12      0.00
  -16    0   16      0.89      0.00
  -14    0   16     -0.41      0.00
  -12    0   16      1.20      0.00
  -10    0   16      0.31      0.00
   -8    0   16     -1.54      0.00
   -6    0   16      1.00      0.00
   -4    0   16     -3.27      0.00
   -2    0   16     -0.26      0.00
    0    0   16      0.03      0.00
    2    0   16      3.09      0.00
    4    0   16     -2.62      0.00
    6    0   16      6.47      0.00
    8    0   16      0.36      0.00
   10    0   16     -0.86      0.00
   12    0   16      0.96      0.00
   14    0   16     -0.66      0.00
   16    0   16     -1.59      0.00
   18    0   16      0.72      0.00
   20    0   16      0.04      0.00
   22    0   16     -0.44      0.00
  -24    1   16     -0.17      0.00
  -23    1   16     -0.73      0.00
  -22    1   16      0.24      0.00
  -21    1   16      1.00      0.00
  -20    1   16     -0.17      0.00
  -19    1   16     -1.31      0.00
  -18    1   16     -0.35      0.00
  -17    1   16      0.86      0.00
  -16    1   16     -0.18      0.00
  -15    1   16      0.56      0.00
  -14    1   16      0.19      0.00
  -13    1   16      0.26      0.00
  -12    1   16      0.19      0.00
  -11    1   16      0.42      0.00
  -10    1   16      0.41      0.00
   -9    1   16      0.17      0.00
   -8    1   16     -0.10      0.00
   -7    1   16     -1.92      0.00
   -6    1   16     -0.69      0.00
   -5    1   16      1.41      0.00
   -4    1   16      1.14      0.00
   -3    1   16     -3.22      0.00
   -2    1   16     -0.01      0.00
   -1    1   16     -0.10      0.00
    0    1   16     -2.67      0.00
    1    1   16      3.60      0.00
    2    1   16      0.76      0.00
    3    1   16     -3.27      0.00
    4    1   16     -1.54      0.00
    5    1   16      4.75      0.00
    6    1   16      0.42      0.00
    7    1   16      1.70      0.00
    8    1   16      0.09      0.00
    9    1   16      0.55      0.00
   10    1   16      0.69      0.00
   11    1   16     -0.20      0.00
   12    1   16     -0.03      0.00
   13    1   16     -0.17      0.00
   14    1   16      0.21      0.00
   15    1   16     -0.31      0.00
   16    1   16      0.17      0.00
   17    1   16     -0.58      0.00
   18    1   16      0.44      0.00
   19    1   16      0.31      0.00
   20    1   16     -0.52      0.00
   21    1   16     -0.10      0.00
   22    1   16      0.35      0.00
   23    1   16     -1.18      0.00
  -23    2   16      0.36      0.00
  -22    2   16     -0.16      0.00
  -21    2   16     -0.48      0.00
  -20    2   16     -0.89      0.00
  -19    2   16     -0.11      0.00
  -18    2   16      0.41      0.00
  -17    2   16     -0.93      0.00
  -16    2   16      0.26      0.00
  -15    2   16      0.48      0.00
  -14    2   16      0.55      0.00
  -13    2   16      0.04      0.00
  -12    2   16     -0.12      0.00
  -11    2   16      0.73      0.00
  -10    2   16      0.57      0.00
   -9    2   16      0.05      0.00
   -8    2   16     -1.68      0.00
   -7    2   16     -0.43      0.00
   -6    2   16      1.16      0.00
   -5    2   16      0.47      0.00
   -4    2   16     -1.18      0.00
   -3    2   16      1.33      0.00
   -2    2   16      0.40      0.00
   -1    2   16     -2.68      0.00
    0    2   16     -0.36      0.00
    1    2   16     -1.98      0.00
    2    2   16      1.76      0.00
    3    2   16      0.62      0.00
    4    2   16     -1.48      0.00
    5    2   16     -2.41      0.00
    6    2   16      3.85      0.00
    7    2   16      1.11      0.00
    8    2   16      1.10      0.00
    9    2   16      0.95      0.00
   10    2   16     -0.76      0.00
   11    2   16      0.17      0.00
   12    2   16      0.67      0.00
   13    2   16      0.18      0.00
   14    2   16      0.02      0.00
   15    2   16      0.09      0.00
   16    2   16     -0.30      0.00
   17    2   16      0.77      0.00
   18    2   16      0.19      0.00
   19    2   16     -0.52      0.00
   20    2   16      0.64      0.00
   21    2   16     -0.50      0.00
   22    2   16     -2.53      0.00
   23    2   16      1.37      0.00
  -23    3   16     -0.69      0.00
  -22    3   16      0.55      0.00
  -21    3   16     -1.16      0.00
  -20    3   16      0.15      0.00
  -19    3   16      0.48      0.00
  -18    3   16     -1.42      0.00
  -17    3   16     -0.19      0.00
  -16    3   16      0.21      0.00
  -15    3   16      0.28      0.00
  -14    3   16      0.06      0.00
  -13    3   16     -0.91      0.00
  -12    3   16      0.50      0.00
  -11    3   16      0.40      0.00
  -10    3   16     -0.48      0.00
   -9    3   16     -0.38      0.00
   -8    3   16      0.90      0.00
   -7    3   16     -0.54      0.00
   -6    3   16     -0.88      0.00
   -5    3   16      1.44      0.00
   -4    3   16      2.30      0.00
   -3    3   16     -0.78      0.00
   -2    3   16     -1.15      0.00
   -1    3   16      1.37      0.00
    0    3   16     -3.92      0.00
    1    3   16     -0.45      0.00
    2    3   16      1.48      0.00
    3    3   16     -0.39      0.00
    4    3   16     -2.68      0.00
    5    3   16      1.17      0.00
    6    3   16     -0.63      0.00
    7    3   16      0.63      0.00
    8    3   16      1.59      0.00
    9    3   16      1.41      0.00
   10    3   16      0.26      0.00
   11    3   16     -0.52      0.00
   12    3   16      0.04      0.00
   13    3   16      0.12      0.00
   14    3   16      0.46      0.00
   15    3   16      0.63      0.00
   16    3   16      0.28      0.00
   17    3   16      0.21      0.00
   18    3   16     -0.60      0.00
   19    3   16      0.32      0.00
   20    3   16     -0.10      0.00
   21    3   16     -1.42      0.00
   22    3   16      0.06      0.00
  -22    4   16     -1.00      0.00
  -21    4   16      2.17      0.00
  -20    4   16     -0.35      0.00
  -19    4   16     -1.37      0.00
  -18    4   16      0.88      0.00
  -17    4   16     -0.27      0.00
  -16    4   16     -0.68      0.00
  -15    4   16      0.02      0.00
  -14    4   16     -0.95      0.00
  -13    4   16     -0.39      0.00
  -12    4   16     -0.47      0.00
  -11    4   16     -0.16      0.00
  -10    4   16      0.32      0.00
   -9    4   16     -0.06      0.00
   -8    4   16     -0.96      0.00
   -7    4   16     -0.23      0.00
   -6    4   16      1.40      0.00
   -5    4   16      1.36      0.00
   -4    4   16     -0.86      0.00
   -3    4   16      0.18      0.00
   -2    4   16      3.23      0.00
   -1    4   16     -2.47      0.00
    0    4   16     -2.44      0.00
    1    4   16     -1.09      0.00
    2    4   16      1.65      0.00
    3    4   16      0.27      0.00
    4    4   16     -1.70      0.00
    5    4   16     -2.60      0.00
    6    4   16      0.41      0.00
    7    4   16      0.31      0.00
    8    4   16      1.07      0.00
    9    4   16      1.48      0.00
   10    4   16     -0.73      0.00
   11    4   16     -1.12      0.00
   12    4   16      1.24      0.00
   13    4   16      1.07      0.00
   14    4   16     -0.91      0.00
   15    4   16     -0.03      0.00
   16    4   16      0.85      0.00
   17    4   16      0.01      0.00
   18    4   16      0.31      0.00
   19    4   16     -1.24      0.00
   20    4   16     -0.12      0.00
   21    4   16      0.42      0.00
  -21    5   16     -0.94      0.00
  -20    5   16      1.89      0.00
  -19    5   16      1.55      0.00
  -18    5   16     -1.44      0.00
  -17    5   16     -1.27      0.00
  -16    5   16     -0.07      0.00
  -15    5   16      0.01      0.00
  -14    5   16     -0.43      0.00
  -13    5   16     -0.21      0.00
  -12    5   16     -0.30      0.00
  -11    5   16     -0.98      0.00
  -10    5   16     -0.78      0.00
   -9    5   16      0.34      0.00
   -8    5   16     -0.05      0.00
   -7    5   16     -0.72      0.00
   -6    5   16      0.03      0.00
   -5    5   16      1.11      0.00
   -4    5   16      1.04      0.00
   -3    5   16      0.86      0.00
   -2    5   16     -2.18      0.00
   -1    5   16      0.93      0.00
    0    5   16      0.07      0.00
    1    5   16     -0.60      0.00
    2    5   16     -0.66      0.00
    3    5   16     -0.09      0.00
    4    5   16     -1.05      0.00
    5    5   16     -1.15      0.00
    6    5   16     -0.51      0.00
    7    5   16     -0.19      0.00
    8    5   16      0.18      0.00
    9    5   16      0.67      0.00
   10    5   16      0.10      0.00
   11    5   16     -0.96      0.00
   12    5   16      0.29      0.00
   13    5   16      0.96      0.00
   14    5   16     -1.06      0.00
   15    5   16     -0.51      0.00
   16    5   16      1.76      0.00
   17    5   16     -0.18      0.00
   18    5   16     -1.91      0.00
   19    5   16      0.45      0.00
   20    5   16      0.76      0.00
   21    5   16     -1.36      0.00
  -20    6   16      0.14      0.00
  -19    6   16     -0.03      0.00
  -18    6   16     -0.08      0.00
  -17    6   16     -0.49      0.00
  -16    6   16     -0.15      0.00
  -15    6   16      0.01      0.00
  -14    6   16      0.19      0.00
  -13    6   16     -0.79      0.00
  -12    6   16     -0.31      0.00
  -11    6   16      0.05      0.00
  -10    6   16     -0.29      0.00
   -9    6   16     -0.81      0.00
   -8    6   16     -0.39      0.00
   -7    6   16     -0.38      0.00
   -6    6   16      0.43      0.00
   -5    6   16      0.58      0.00
   -4    6   16      0.76      0.00
   -3    6   16     -2.03      0.00
   -2    6   16      1.79      0.00
   -1    6   16      0.89      0.00
    0    6   16     -1.15      0.00
    1    6   16     -1.04      0.00
    2    6   16      0.56      0.00
    3    6   16      0.87      0.00
    4    6   16     -0.27      0.00
    5    6   16     -1.54      0.00
    6    6   16     -1.14      0.00
    7    6   16      0.16      0.00
    8    6   16     -0.07      0.00
    9    6   16      1.33      0.00
   10    6   16      0.35      0.00
   11    6   16     -0.96      0.00
   12    6   16     -0.44      0.00
   13    6   16     -0.65      0.00
   14    6   16     -0.06      0.00
   15    6   16      0.04      0.00
   16    6   16     -0.61      0.00
   17    6   16      1.63      0.00
   18    6   16     -0.53      0.00
   19    6   16     -1.10      0.00
   20    6   16     -0.38      0.00
  -19    7   16      0.49      0.00
  -18    7   16      0.00      0.00
  -17    7   16     -0.99      0.00
  -16    7   16      0.30      0.00
  -15    7   16      0.12      0.00
  -14    7   16      0.13      0.00
  -13    7   16      0.61      0.00
  -12    7   16     -1.14      0.00
  -11    7   16     -1.15      0.00
  -10    7   16      0.20      0.00
   -9    7   16      0.80      0.00
   -8    7   16     -0.54      0.00
   -7    7   16      0.33      0.00
   -6    7   16     -0.75      0.00
   -5    7   16      0.63      0.00
   -4    7   16      0.02      0.00
   -3    7   16      0.98      0.00
   -2    7   16     -1.16      0.00
   -1    7   16     -0.12      0.00
    0    7   16      0.12      0.00
    1    7   16      0.34      0.00
    2    7   16      1.34      0.00
    3    7   16      0.42      0.00
    4    7   16     -0.91      0.00
    5    7   16     -0.98      0.00
    6    7   16     -0.58      0.00
    7    7   16      0.17      0.00
    8    7   16      1.49      0.00
    9    7   16      1.15      0.00
   10    7   16      1.01      0.00
   11    7   16     -1.81      0.00
   12    7   16     -2.28      0.00
   13    7   16      0.41      0.00
   14    7   16      0.65      0.00
   15    7   16     -0.48      0.00
   16    7   16      1.76      0.00
   17    7   16     -1.11      0.00
   18    7   16     -0.07      0.00
   19    7   16     -0.69      0.00
  -18    8   16      0.24      0.00
  -17    8   16      0.50      0.00
  -16    8   16     -1.38      0.00
  -15    8   16      2.02      0.00
  -14    8   16      0.30      0.00
  -13    8   16     -2.12      0.00
  -12    8   16     -0.46      0.00
  -11    8   16     -0.62      0.00
  -10    8   16      0.18      0.00
   -9    8   16      0.28      0.00
   -8    8   16      1.65      0.00
   -7    8   16     -1.17      0.00
   -6    8   16     -0.04      0.00
   -5    8   16      0.39      0.00
   -4    8   16      0.90      0.00
   -3    8   16     -1.00      0.00
   -2    8   16     -0.41      0.00
   -1    8   16      0.74      0.00
    0    8   16      0.52      0.00
    1    8   16     -0.50      0.00
    2    8   16      0.58      0.00
    3    8   16      0.73      0.00
    4    8   16     -0.23      0.00
    5    8   16     -0.25      0.00
    6    8   16     -0.35      0.00
    7    8   16      0.76      0.00
    8    8   16      1.18      0.00
    9    8   16      0.37      0.00
   10    8   16     -0.08      0.00
   11    8   16      0.06      0.00
   12    8   16     -1.72      0.00
   13    8   16     -0.01      0.00
   14    8   16     -0.68      0.00
   15    8   16      1.77      0.00
   16    8   16      0.42      0.00
   17    8   16      0.16      0.00
  -16    9   16      1.15      0.00
  -15    9   16     -0.47      0.00
  -14    9   16      1.03      0.00
  -13    9   16     -0.05      0.00
  -12    9   16     -2.64      0.00
  -11    9   16     -0.17      0.00
  -10    9   16     -0.64      0.00
   -9    9   16      0.60      0.00
   -8    9   16      0.20      0.00
   -7    9   16      1.46      0.00
   -6    9   16     -1.35      0.00
   -5    9   16     -0.43      0.00
   -4    9   16      1.39      0.00
   -3    9   16     -0.47      0.00
   -2    9   16     -0.90      0.00
   -1    9   16      0.29      0.00
    0    9   16      0.47      0.00
    1    9   16      0.50      0.00
    2    9   16     -0.78      0.00
    3    9   16     -0.39      0.00
    4    9   16      1.01      0.00
    5    9   16      0.23      0.00
    6    9   16      0.94      0.00
    7    9   16     -0.15      0.00
    8    9   16     -0.22      0.00
    9    9   16      0.57      0.00
   10    9   16      0.15      0.00
   11    9   16     -1.07      0.00
   12    9   16     -0.41      0.00
   13    9   16     -1.85      0.00
   14    9   16      2.89      0.00
   15    9   16      0.16      0.00
  -13   10   16     -0.89      0.00
  -12   10   16     -0.37      0.00
  -11   10   16     -1.46      0.00
  -10   10   16     -0.32      0.00
   -9   10   16     -0.58      0.00
   -8   10   16      1.29      0.00
   -7   10   16     -0.67      0.00
   -6   10   16     -1.00      0.00
   -5   10   16     -0.21      0.00
   -4   10   16      0.37      0.00
   -3   10   16      1.02      0.00
   -2   10   16     -1.27      0.00
   -1   10   16     -1.42      0.00
    0   10   16      0.38      0.00
    1   10   16      0.38      0.00
    2   10   16     -1.07      0.00
    3   10   16     -0.54      0.00
    4   10   16      0.40      0.00
    5   10   16      1.97      0.00
    6   10   16      0.03      0.00
    7   10   16      1.03      0.00
    8   10   16     -0.72      0.00
    9   10   16     -1.59      0.00
   10   10   16     -0.29      0.00
   11   10   16      0.19      0.00
   12   10   16     -0.60      0.00
   13   10   16      1.25      0.00
  -10   11   16     -1.04      0.00
   -9   11   16     -0.46      0.00
   -8   11   16     -0.91      0.00
   -7   11   16      0.60      0.00
   -6   11   16     -0.48      0.00
   -5   11   16     -0.85      0.00
   -4   11   16      0.79      0.00
   -3   11   16     -0.63      0.00
   -2   11   16     -1.87      0.00
   -1   11   16     -0.33      0.00
    0   11   16      0.06      0.00
    1   11   16     -1.80      0.00
    2   11   16      0.04      0.00
    3   11   16     -0.66      0.00
    4   11   16      0.34      0.00
    5   11   16      1.05      0.00
    6   11   16      1.74      0.00
    7   11   16     -0.84      0.00
    8   11   16     -0.24      0.00
    9   11   16     -0.62      0.00
   -5   12   16     -0.67      0.00
   -4   12   16     -1.00      0.00
   -3   12   16     -0.10      0.00
   -2   12   16      0.77      0.00
   -1   12   16     -1.47      0.00
    0   12   16     -2.22      0.00
    1   12   16      0.26      0.00
    2   12   16     -1.11      0.00
    5   12   16      0.94      0.00
  -23    0   17     -0.37      0.00
  -21    0   17      0.76      0.00
  -19    0   17     -0.64      0.00
  -17    0   17      0.28      0.00
  -15    0   17      0.62      0.00
  -13    0   17     -0.33      0.00
  -11    0   17      0.93      0.00
   -9    0   17      0.42      0.00
   -7    0   17     -1.63      0.00
   -5    0   17      1.01      0.00
   -3    0   17     -4.24      0.00
   -1    0   17      0.94      0.00
    1    0   17      3.64      0.00
    3    0   17     -4.82      0.00
    5    0   17      5.62      0.00
    7    0   17      0.83      0.00
    9    0   17      0.96      0.00
   11    0   17     -0.46      0.00
   13    0   17      0.53      0.00
   15    0   17     -1.62      0.00
   17    0   17     -0.59      0.00
   19    0   17      0.92      0.00
   21    0   17     -0.15      0.00
  -23    1   17      0.63      0.00
  -22    1   17     -0.03      0.00
  -21    1   17     -0.61      0.00
  -20    1   17      0.03      0.00
  -19    1   17      0.49      0.00
  -18    1   17     -0.48      0.00
  -17    1   17     -1.16      0.00
  -16    1   17      0.88      0.00
  -15    1   17      0.42      0.00
  -14    1   17     -0.11      0.00
  -13    1   17      0.28      0.00
  -12    1   17      0.66      0.00
  -11    1   17     -0.13      0.00
  -10    1   17      0.56      0.00
   -9    1   17      0.69      0.00
   -8    1   17     -1.25      0.00
   -7    1   17     -1.06      0.00
   -6    1   17      1.03      0.00
   -5    1   17      0.83      0.00
   -4    1   17     -2.91      0.00
   -3    1   17      0.54      0.00
   -2    1   17      0.32      0.00
   -1    1   17     -1.41      0.00
    0    1   17      0.47      0.00
    1    1   17     -0.39      0.00
    2    1   17      1.30      0.00
    3    1   17     -0.73      0.00
    4    1   17     -2.09      0.00
    5    1   17     -0.95      0.00
    6    1   17      5.28      0.00
    7    1   17      1.07      0.00
    8    1   17      0.00      0.00
    9    1   17     -0.28      0.00
   10    1   17      0.01      0.00
   11    1   17      0.78      0.00
   12    1   17      0.37      0.00
   13    1   17     -0.06      0.00
   14    1   17     -0.18      0.00
   15    1   17      0.03      0.00
   16    1   17     -1.62      0.00
   17    1   17      0.90      0.00
   18    1   17      0.71      0.00
   19    1   17     -0.72      0.00
   20    1   17      0.69      0.00
   21    1   17      0.01      0.00
   22    1   17     -1.42      0.00
   23    1   17      0.67      0.00
  -23    2   17     -1.04      0.00
  -22    2   17      0.91      0.00
  -21    2   17      0.04      0.00
  -20    2   17     -0.46      0.00
  -19    2   17     -1.04      0.00
  -18    2   17     -0.98      0.00
  -17    2   17      0.63      0.00
  -16    2   17     -0.24      0.00
  -15    2   17      0.40      0.00
  -14    2   17      0.44      0.00
  -13    2   17      0.19      0.00
  -12    2   17      0.32      0.00
  -11    2   17     -0.02      0.00
  -10    2   17      0.01      0.00
   -9    2   17      0.23      0.00
   -8    2   17      0.38      0.00
   -7    2   17     -0.94      0.00
   -6    2   17     -0.65      0.00
   -5    2   17      0.86      0.00
   -4    2   17      1.76      0.00
   -3    2   17     -1.69      0.00
   -2    2   17     -0.77      0.00
   -1    2   17      1.54      0.00
    0    2   17     -2.67      0.00
    1    2   17      0.19      0.00
    2    2   17      0.94      0.00
    3    2   17     -1.07      0.00
    4    2   17     -3.04      0.00
    5    2   17      2.10      0.00
    6    2   17      0.76      0.00
    7    2   17      1.31      0.00
    8    2   17      0.46      0.00
    9    2   17      0.72      0.00
   10    2   17      0.86      0.00
   11    2   17      0.24      0.00
   12    2   17     -0.16      0.00
   13    2   17     -0.71      0.00
   14    2   17      0.42      0.00
   15    2   17      0.67      0.00
   16    2   17      0.46      0.00
   17    2   17     -0.53      0.00
   18    2   17     -0.26      0.00
   19    2   17      0.70      0.00
   20    2   17     -0.13      0.00
   21    2   17     -0.77      0.00
   22    2   17      0.13      0.00
  -23    3   17      0.10      0.00
  -22    3   17     -0.46      0.00
  -21    3   17      0.76      0.00
  -20    3   17     -1.28      0.00
  -19    3   17     -0.97      0.00
  -18    3   17      0.96      0.00
  -17    3   17     -0.83      0.00
  -16    3   17     -0.58      0.00
  -15    3   17      0.47      0.00
  -14    3   17     -0.17      0.00
  -13    3   17     -0.30      0.00
  -12    3   17     -0.27      0.00
  -11    3   17      0.54      0.00
  -10    3   17      0.30      0.00
   -9    3   17     -0.35      0.00
   -8    3   17     -0.82      0.00
   -7    3   17      0.37      0.00
   -6    3   17      1.19      0.00
   -5    3   17      0.75      0.00
   -4    3   17     -1.10      0.00
   -3    3   17      0.56      0.00
   -2    3   17      2.36      0.00
   -1    3   17     -2.30      0.00
    0    3   17     -1.35      0.00
    1    3   17     -0.95      0.00
    2    3   17      1.50      0.00
    3    3   17     -0.26      0.00
    4    3   17     -2.30      0.00
    5    3   17     -2.64      0.00
    6    3   17      2.48      0.00
    7    3   17      0.92      0.00
    8    3   17      0.62      0.00
    9    3   17      1.00      0.00
   10    3   17     -0.34      0.00
   11    3   17     -0.21      0.00
   12    3   17      1.02      0.00
   13    3   17      0.36      0.00
   14    3   17     -0.83      0.00
   15    3   17      0.30      0.00
   16    3   17      0.95      0.00
   17    3   17      0.15      0.00
   18    3   17      0.02      0.00
   19    3   17     -0.83      0.00
   20    3   17      0.26      0.00
   21    3   17      0.00      0.00
   22    3   17     -2.56      0.00
  -22    4   17      0.42      0.00
  -21    4   17     -1.33      0.00
  -20    4   17      1.41      0.00
  -19    4   17      1.33      0.00
  -18    4   17     -1.78      0.00
  -17    4   17     -1.08      0.00
  -16    4   17      0.16      0.00
  -15    4   17     -0.35      0.00
  -14    4   17     -0.12      0.00
  -13    4   17     -0.55      0.00
  -12    4   17     -0.27      0.00
  -11    4   17     -0.55      0.00
  -10    4   17     -0.49      0.00
   -9    4   17      0.31      0.00
   -8    4   17      0.14      0.00
   -7    4   17     -0.29      0.00
   -6    4   17      0.43      0.00
   -5    4   17      0.84      0.00
   -4    4   17      0.91      0.00
   -3    4   17      0.07      0.00
   -2    4   17     -1.38      0.00
   -1    4   17      1.87      0.00
    0    4   17     -1.21      0.00
    1    4   17     -0.63      0.00
    2    4   17      0.10      0.00
    3    4   17     -0.54      0.00
    4    4   17     -2.11      0.00
    5    4   17     -1.16      0.00
    6    4   17     -0.48      0.00
    7    4   17      1.51      0.00
    8    4   17      0.24      0.00
    9    4   17      0.04      0.00
   10    4   17     -0.03      0.00
   11    4   17     -0.51      0.00
   12    4   17      0.47      0.00
   13    4   17      0.92      0.00
   14    4   17      0.09      0.00
   15    4   17     -0.68      0.00
   16    4   17      0.28      0.00
   17    4   17      1.09      0.00
   18    4   17     -1.08      0.00
   19    4   17     -0.13      0.00
   20    4   17      0.23      0.00
   21    4   17     -1.42      0.00
  -21    5   17      1.54      0.00
  -20    5   17     -0.48      0.00
  -19    5   17      0.02      0.00
  -18    5   17      0.70      0.00
  -17    5   17     -0.68      0.00
  -16    5   17     -0.96      0.00
  -15    5   17     -0.28      0.00
  -14    5   17     -0.16      0.00
  -13    5   17     -0.40      0.00
  -12    5   17     -0.29      0.00
  -11    5   17     -0.27      0.00
  -10    5   17     -0.50      0.00
   -9    5   17     -0.80      0.00
   -8    5   17     -0.17      0.00
   -7    5   17      0.15      0.00
   -6    5   17      0.47      0.00
   -5    5   17      0.50      0.00
   -4    5   17     -0.11      0.00
   -3    5   17     -0.86      0.00
   -2    5   17      2.53      0.00
   -1    5   17     -0.41      0.00
    0    5   17     -1.01      0.00
    1    5   17     -0.71      0.00
    2    5   17      0.75      0.00
    3    5   17      0.29      0.00
    4    5   17     -1.66      0.00
    5    5   17     -2.01      0.00
    6    5   17     -0.32      0.00
    7    5   17      0.08      0.00
    8    5   17      0.58      0.00
    9    5   17      0.58      0.00
   10    5   17     -0.90      0.00
   11    5   17     -1.33      0.00
   12    5   17      0.66      0.00
   13    5   17      1.32      0.00
   14    5   17     -0.51      0.00
   15    5   17     -0.94      0.00
   16    5   17     -0.09      0.00
   17    5   17      0.76      0.00
   18    5   17      0.62      0.00
   19    5   17     -1.24      0.00
   20    5   17     -0.87      0.00
   21    5   17      0.40      0.00
  -20    6   17      1.10      0.00
  -19    6   17      0.58      0.00
  -18    6   17     -0.50      0.00
  -17    6   17     -1.07      0.00
  -16    6   17     -0.18      0.00
  -15    6   17      0.48      0.00
  -14    6   17     -0.38      0.00
  -13    6   17      0.56      0.00
  -12    6   17     -0.15      0.00
  -11    6   17     -1.30      0.00
  -10    6   17     -0.52      0.00
   -9    6   17      0.40      0.00
   -8    6   17     -0.37      0.00
   -7    6   17     -0.58      0.00
   -6    6   17     -0.31      0.00
   -5    6   17      1.31      0.00
   -4    6   17     -0.26      0.00
   -3    6   17      0.56      0.00
   -2    6   17     -1.17      0.00
   -1    6   17      0.69      0.00
    0    6   17      0.24      0.00
    1    6   17      0.10      0.00
    2    6   17      0.72      0.00
    3    6   17     -0.24      0.00
    4    6   17     -1.14      0.00
    5    6   17     -0.75      0.00
    6    6   17     -0.54      0.00
    7    6   17     -0.61      0.00
    8    6   17      0.89      0.00
    9    6   17      1.01      0.00
   10    6   17     -0.10      0.00
   11    6   17     -1.86      0.00
   12    6   17     -0.75      0.00
   13    6   17      1.11      0.00
   14    6   17     -0.64      0.00
   15    6   17     -0.84      0.00
   16    6   17      1.59      0.00
   17    6   17     -0.49      0.00
   18    6   17     -0.91      0.00
   19    6   17     -0.38      0.00
  -19    7   17     -0.52      0.00
  -18    7   17     -0.13      0.00
  -17    7   17      0.21      0.00
  -16    7   17     -0.57      0.00
  -15    7   17      0.96      0.00
  -14    7   17      0.49      0.00
  -13    7   17     -1.33      0.00
  -12    7   17     -0.35      0.00
  -11    7   17      0.29      0.00
  -10    7   17     -0.05      0.00
   -9    7   17     -0.29      0.00
   -8    7   17      0.17      0.00
   -7    7   17     -0.85      0.00
   -6    7   17      1.02      0.00
   -5    7   17      0.02      0.00
   -4    7   17      0.64      0.00
   -3    7   17     -1.45      0.00
   -2    7   17      0.62      0.00
   -1    7   17      0.43      0.00
    0    7   17     -0.18      0.00
    1    7   17      0.04      0.00
    2    7   17      0.41      0.00
    3    7   17      1.04      0.00
    4    7   17      0.42      0.00
    5    7   17     -1.62      0.00
    6    7   17     -1.09      0.00
    7    7   17      1.00      0.00
    8    7   17      0.25      0.00
    9    7   17      0.90      0.00
   10    7   17      1.07      0.00
   11    7   17     -0.51      0.00
   12    7   17     -2.14      0.00
   13    7   17     -0.85      0.00
   14    7   17      0.01      0.00
   15    7   17      0.77      0.00
   16    7   17      0.01      0.00
   17    7   17      1.28      0.00
   18    7   17     -1.49      0.00
  -17    8   17     -0.87      0.00
  -16    8   17      1.45      0.00
  -15    8   17     -0.67      0.00
  -14    8   17      0.56      0.00
  -13    8   17      0.60      0.00
  -12    8   17     -2.13      0.00
  -11    8   17     -0.97      0.00
  -10    8   17      0.87      0.00
   -9    8   17      1.01      0.00
   -8    8   17     -1.07      0.00
   -7    8   17      1.49      0.00
   -6    8   17     -0.84      0.00
   -5    8   17      0.23      0.00
   -4    8   17      0.78      0.00
   -3    8   17      0.10      0.00
   -2    8   17     -1.47      0.00
   -1    8   17      0.14      0.00
    0    8   17      0.71      0.00
    1    8   17      0.54      0.00
    2    8   17      0.53      0.00
    3    8   17      0.75      0.00
    4    8   17     -0.27      0.00
    5    8   17     -1.11      0.00
    6    8   17     -0.10      0.00
    7    8   17      0.77      0.00
    8    8   17      0.86      0.00
    9    8   17      0.95      0.00
   10    8   17      0.80      0.00
   11    8   17     -1.54      0.00
   12    8   17     -1.58      0.00
   13    8   17     -1.47      0.00
   14    8   17      2.22      0.00
   15    8   17      0.20      0.00
   16    8   17      0.46      0.00
  -16    9   17     -0.78      0.00
  -15    9   17      2.19      0.00
  -14    9   17     -0.13      0.00
  -13    9   17     -1.67      0.00
  -12    9   17     -0.31      0.00
  -11    9   17     -1.08      0.00
  -10    9   17      0.28      0.00
   -9    9   17      0.11      0.00
   -8    9   17      1.47      0.00
   -7    9   17     -1.59      0.00
   -6    9   17      0.08      0.00
   -5    9   17      0.48      0.00
   -4    9   17      0.40      0.00
   -3    9   17     -0.05      0.00
   -2    9   17     -0.97      0.00
   -1    9   17     -0.15      0.00
    0    9   17      0.57      0.00
    1    9   17      0.01      0.00
    2    9   17      0.84      0.00
    3    9   17     -0.29      0.00
    4    9   17     -0.76      0.00
    5    9   17      0.93      0.00
    6    9   17      0.22      0.00
    7    9   17      1.07      0.00
    8    9   17      0.57      0.00
    9    9   17     -1.60      0.00
   10    9   17     -0.81      0.00
   11    9   17      1.28      0.00
   12    9   17     -1.16      0.00
   13    9   17      0.31      0.00
   14    9   17     -1.69      0.00
  -13   10   17     -0.65      0.00
  -12   10   17     -1.57      0.00
  -11   10   17      0.42      0.00
  -10   10   17     -1.06      0.00
   -9   10   17     -0.14      0.00
   -8   10   17     -0.33      0.00
   -7   10   17      1.02      0.00
   -6   10   17     -0.95      0.00
   -5   10   17     -0.69      0.00
   -4   10   17      0.64      0.00
   -3   10   17     -0.50      0.00
   -2   10   17     -0.83      0.00
   -1   10   17     -0.32      0.00
    0   10   17      0.11      0.00
    1   10   17     -0.27      0.00
    2   10   17     -0.43      0.00
    3   10   17     -0.65      0.00
    4   10   17      0.63      0.00
    5   10   17      1.07      0.00
    6   10   17      1.80      0.00
    7   10   17     -1.13      0.00
    8   10   17     -0.87      0.00
    9   10   17     -0.21      0.00
   10   10   17     -0.01      0.00
   11   10   17     -0.35      0.00
   12   10   17     -0.12      0.00
   13   10   17     -1.65      0.00
   -9   11   17     -0.69      0.00
   -8   11   17      1.08      0.00
   -7   11   17      0.00      0.00
   -6   11   17     -1.23      0.00
   -5   11   17     -1.40      0.00
   -4   11   17     -0.10      0.00
   -3   11   17      0.96      0.00
   -2   11   17     -0.38      0.00
   -1   11   17     -2.18      0.00
    0   11   17     -1.36      0.00
    1   11   17      0.84      0.00
    2   11   17     -1.26      0.00
    3   11   17     -0.27      0.00
    4   11   17      0.25      0.00
    5   11   17      1.44      0.00
    6   11   17      0.39      0.00
    7   11   17      0.72      0.00
    8   11   17     -1.15      0.00
   -2   12   17     -1.55      0.00
   -1   12   17      0.10      0.00
    0   12   17      0.24      0.00
  -22    0   18     -0.79      0.00
  -20    0   18      1.08      0.00
  -18    0   18     -0.69      0.00
  -16    0   18      0.54      0.00
  -14    0   18     -0.48      0.00
  -12    0   18      0.77      0.00
  -10    0   18      0.67      0.00
   -8    0   18     -0.68      0.00
   -6    0   18      0.56      0.00
   -4    0   18     -3.14      0.00
   -2    0   18      0.18      0.00
    0    0   18      0.81      0.00
    2    0   18      0.86      0.00
    4    0   18     -2.67      0.00
    6    0   18      5.44      0.00
    8    0   18     -0.60      0.00
   10    0   18      0.58      0.00
   12    0   18      0.40      0.00
   14    0   18     -0.70      0.00
   16    0   18     -1.54      0.00
   18    0   18     -0.05      0.00
   20    0   18      1.73      0.00
   22    0   18     -1.43      0.00
  -23    1   18     -0.64      0.00
  -22    1   18      1.01      0.00
  -21    1   18      0.35      0.00
  -20    1   18     -0.67      0.00
  -19    1   18     -0.63      0.00
  -18    1   18     -0.16      0.00
  -17    1   18      0.26      0.00
  -16    1   18     -0.48      0.00
  -15    1   18      0.35      0.00
  -14    1   18      0.26      0.00
  -13    1   18      0.16      0.00
  -12    1   18      0.31      0.00
  -11    1   18      0.24      0.00
  -10    1   18     -0.09      0.00
   -9    1   18      0.86      0.00
   -8    1   18      0.25      0.00
   -7    1   18     -1.41      0.00
   -6    1   18     -0.63      0.00
   -5    1   18      0.79      0.00
   -4    1   18      1.21      0.00
   -3    1   18     -3.32      0.00
   -2    1   18     -0.24      0.00
   -1    1   18      2.08      0.00
    0    1   18     -1.55      0.00
    1    1   18      0.99      0.00
    2    1   18      0.79      0.00
    3    1   18     -2.96      0.00
    4    1   18     -2.46      0.00
    5    1   18      3.68      0.00
    6    1   18      1.20      0.00
    7    1   18      0.84      0.00
    8    1   18     -0.12      0.00
    9    1   18      0.58      0.00
   10    1   18      0.59      0.00
   11    1   18      0.43      0.00
   12    1   18      0.08      0.00
   13    1   18     -0.41      0.00
   14    1   18      0.24      0.00
   15    1   18     -0.60      0.00
   16    1   18      0.26      0.00
   17    1   18     -1.00      0.00
   18    1   18      0.45      0.00
   19    1   18      1.31      0.00
   20    1   18     -0.96      0.00
   21    1   18     -0.22      0.00
   22    1   18      0.81      0.00
  -23    2   18      0.46      0.00
  -22    2   18     -0.23      0.00
  -21    2   18     -0.12      0.00
  -20    2   18     -0.85      0.00
  -19    2   18     -0.15      0.00
  -18    2   18     -0.07      0.00
  -17    2   18     -1.32      0.00
  -16    2   18      0.42      0.00
  -15    2   18      0.33      0.00
  -14    2   18     -0.01      0.00
  -13    2   18      0.33      0.00
  -12    2   18      0.46      0.00
  -11    2   18      0.02      0.00
  -10    2   18      0.17      0.00
   -9    2   18      0.43      0.00
   -8    2   18     -0.76      0.00
   -7    2   18     -0.47      0.00
   -6    2   18      1.22      0.00
   -5    2   18      1.06      0.00
   -4    2   18     -2.30      0.00
   -3    2   18      0.44      0.00
   -2    2   18      2.01      0.00
   -1    2   18     -1.95      0.00
    0    2   18     -0.46      0.00
    1    2   18      0.12      0.00
    2    2   18      0.35      0.00
    3    2   18     -1.61      0.00
    4    2   18     -1.38      0.00
    5    2   18     -1.68      0.00
    6    2   18      3.44      0.00
    7    2   18      1.60      0.00
    8    2   18     -0.57      0.00
    9    2   18     -0.13      0.00
   10    2   18      0.83      0.00
   11    2   18      0.92      0.00
   12    2   18      0.16      0.00
   13    2   18     -0.23      0.00
   14    2   18     -0.35      0.00
   15    2   18      0.28      0.00
   16    2   18     -0.41      0.00
   17    2   18      1.02      0.00
   18    2   18      0.51      0.00
   19    2   18     -1.42      0.00
   20    2   18      0.77      0.00
   21    2   18      0.43      0.00
   22    2   18     -2.22      0.00
  -22    3   18      0.67      0.00
  -21    3   18     -1.17      0.00
  -20    3   18      0.37      0.00
  -19    3   18      0.20      0.00
  -18    3   18     -1.54      0.00
  -17    3   18     -0.38      0.00
  -16    3   18     -0.11      0.00
  -15    3   18      0.02      0.00
  -14    3   18      0.13      0.00
  -13    3   18     -0.37      0.00
  -12    3   18      0.11      0.00
  -11    3   18     -0.11      0.00
  -10    3   18     -0.24      0.00
   -9    3   18      0.26      0.00
   -8    3   18      0.37      0.00
   -7    3   18     -0.20      0.00
   -6    3   18      0.33      0.00
   -5    3   18      0.54      0.00
   -4    3   18      1.20      0.00
   -3    3   18     -0.43      0.00
   -2    3   18     -1.73      0.00
   -1    3   18      2.30      0.00
    0    3   18     -0.78      0.00
    1    3   18     -1.24      0.00
    2    3   18      0.26      0.00
    3    3   18     -0.06      0.00
    4    3   18     -3.25      0.00
    5    3   18     -0.50      0.00
    6    3   18      0.47      0.00
    7    3   18      1.63      0.00
    8    3   18      0.45      0.00
    9    3   18      0.14      0.00
   10    3   18      0.10      0.00
   11    3   18      0.13      0.00
   12    3   18      0.35      0.00
   13    3   18      0.14      0.00
   14    3   18      0.30      0.00
   15    3   18     -0.28      0.00
   16    3   18      0.29      0.00
   17    3   18      1.11      0.00
   18    3   18     -0.91      0.00
   19    3   18     -0.26      0.00
   20    3   18      0.29      0.00
   21    3   18     -1.13      0.00
   22    3   18     -0.42      0.00
  -21    4   18      0.81      0.00
  -20    4   18     -1.64      0.00
  -19    4   18     -0.14      0.00
  -18    4   18      1.70      0.00
  -17    4   18     -0.69      0.00
  -16    4   18     -1.67      0.00
  -15    4   18     -0.17      0.00
  -14    4   18     -0.49      0.00
  -13    4   18     -0.40      0.00
  -12    4   18     -0.09      0.00
  -11    4   18      0.14      0.00
  -10    4   18     -0.36      0.00
   -9    4   18     -0.72      0.00
   -8    4   18      0.27      0.00
   -7    4   18      0.45      0.00
   -6    4   18      0.25      0.00
   -5    4   18      0.79      0.00
   -4    4   18     -0.29      0.00
   -3    4   18     -0.58      0.00
   -2    4   18      2.45      0.00
   -1    4   18     -0.99      0.00
    0    4   18     -0.92      0.00
    1    4   18     -0.23      0.00
    2    4   18      1.43      0.00
    3    4   18     -0.48      0.00
    4    4   18     -3.04      0.00
    5    4   18     -2.36      0.00
    6    4   18      0.88      0.00
    7    4   18      0.46      0.00
    8    4   18      1.23      0.00
    9    4   18      0.07      0.00
   10    4   18     -1.17      0.00
   11    4   18     -0.95      0.00
   12    4   18      0.78      0.00
   13    4   18      1.79      0.00
   14    4   18     -0.30      0.00
   15    4   18     -0.93      0.00
   16    4   18      0.24      0.00
   17    4   18      0.36      0.00
   18    4   18      1.01      0.00
   19    4   18     -1.25      0.00
   20    4   18     -1.31      0.00
   21    4   18      0.37      0.00
  -21    5   18     -0.04      0.00
  -20    5   18      1.18      0.00
  -19    5   18      0.34      0.00
  -18    5   18     -0.60      0.00
  -17    5   18     -0.73      0.00
  -16    5   18     -0.23      0.00
  -15    5   18     -0.43      0.00
  -14    5   18     -0.57      0.00
  -13    5   18      0.34      0.00
  -12    5   18     -0.08      0.00
  -11    5   18     -1.16      0.00
  -10    5   18     -0.59      0.00
   -9    5   18      0.53      0.00
   -8    5   18     -0.46      0.00
   -7    5   18     -0.55      0.00
   -6    5   18      0.46      0.00
   -5    5   18      0.75      0.00
   -4    5   18     -0.65      0.00
   -3    5   18      0.53      0.00
   -2    5   18     -0.27      0.00
   -1    5   18      1.15      0.00
    0    5   18     -0.31      0.00
    1    5   18      0.43      0.00
    2    5   18      0.01      0.00
    3    5   18     -0.80      0.00
    4    5   18     -1.14      0.00
    5    5   18     -1.79      0.00
    6    5   18     -0.40      0.00
    7    5   18      0.99      0.00
    8    5   18     -0.57      0.00
    9    5   18      0.24      0.00
   10    5   18     -0.30      0.00
   11    5   18     -1.91      0.00
   12    5   18      0.25      0.00
   13    5   18      1.67      0.00
   14    5   18     -0.03      0.00
   15    5   18     -1.08      0.00
   16    5   18      0.24      0.00
   17    5   18      0.61      0.00
   18    5   18     -1.02      0.00
   19    5   18     -0.16      0.00
   20    5   18      0.52      0.00
  -19    6   18      0.44      0.00
  -18    6   18     -0.58      0.00
  -17    6   18     -0.53      0.00
  -16    6   18      0.00      0.00
  -15    6   18      0.11      0.00
  -14    6   18      0.30      0.00
  -13    6   18     -0.68      0.00
  -12    6   18     -0.01      0.00
  -11    6   18      0.27      0.00
  -10    6   18     -0.70      0.00
   -9    6   18     -0.81      0.00
   -8    6   18      0.12      0.00
   -7    6   18      0.01      0.00
   -6    6   18      0.24      0.00
   -5    6   18     -0.65      0.00
   -4    6   18      0.74      0.00
   -3    6   18     -1.05      0.00
   -2    6   18      1.24      0.00
   -1    6   18      0.73      0.00
    0    6   18     -0.27      0.00
    1    6   18     -0.74      0.00
    2    6   18      0.26      0.00
    3    6   18      1.00      0.00
    4    6   18     -0.23      0.00
    5    6   18     -1.36      0.00
    6    6   18     -0.97      0.00
    7    6   18      0.02      0.00
    8    6   18     -0.19      0.00
    9    6   18      0.69      0.00
   10    6   18      0.37      0.00
   11    6   18     -1.10      0.00
   12    6   18     -1.06      0.00
   13    6   18      0.19      0.00
   14    6   18     -0.06      0.00
   15    6   18     -0.41      0.00
   16    6   18      0.03      0.00
   17    6   18      0.79      0.00
   18    6   18     -0.62      0.00
   19    6   18     -0.15      0.00
  -18    7   18      0.01      0.00
  -17    7   18     -0.82      0.00
  -16    7   18      0.31      0.00
  -15    7   18      0.18      0.00
  -14    7   18      0.42      0.00
  -13    7   18      0.65      0.00
  -12    7   18     -1.06      0.00
  -11    7   18     -1.07      0.00
  -10    7   18      0.79      0.00
   -9    7   18      0.59      0.00
   -8    7   18     -0.93      0.00
   -7    7   18      0.40      0.00
   -6    7   18     -0.49      0.00
   -5    7   18      1.28      0.00
   -4    7   18     -0.46      0.00
   -3    7   18      0.21      0.00
   -2    7   18     -0.76      0.00
   -1    7   18      0.26      0.00
    0    7   18      0.06      0.00
    1    7   18      0.37      0.00
    2    7   18      1.46      0.00
    3    7   18      0.35      0.00
    4    7   18     -0.98      0.00
    5    7   18     -0.64      0.00
    6    7   18     -0.47      0.00
    7    7   18     -0.11      0.00
    8    7   18      1.35      0.00
    9    7   18      0.72      0.00
   10    7   18      0.37      0.00
   11    7   18     -1.30      0.00
   12    7   18     -1.69      0.00
   13    7   18     -0.29      0.00
   14    7   18      0.99      0.00
   15    7   18     -0.58      0.00
   16    7   18      0.38      0.00
   17    7   18     -0.20      0.00
   18    7   18      0.59      0.00
  -17    8   18      0.47      0.00
  -16    8   18     -0.74      0.00
  -15    8   18      2.15      0.00
  -14    8   18     -0.35      0.00
  -13    8   18     -1.69      0.00
  -12    8   18      0.06      0.00
  -11    8   18     -0.08      0.00
  -10    8   18      0.25      0.00
   -9    8   18      0.36      0.00
   -8    8   18      0.49      0.00
   -7    8   18     -1.64      0.00
   -6    8   18      1.88      0.00
   -5    8   18      0.10      0.00
   -4    8   18     -0.04      0.00
   -3    8   18     -0.24      0.00
   -2    8   18     -0.20      0.00
   -1    8   18     -0.47      0.00
    0    8   18      0.37      0.00
    1    8   18      0.55      0.00
    2    8   18      1.18      0.00
    3    8   18      0.60      0.00
    4    8   18     -0.64      0.00
    5    8   18     -1.27      0.00
    6    8   18      0.03      0.00
    7    8   18      1.72      0.00
    8    8   18      0.46      0.00
    9    8   18     -0.73      0.00
   10    8   18      0.32      0.00
   11    8   18      0.81      0.00
   12    8   18     -2.06      0.00
   13    8   18     -0.39      0.00
   14    8   18     -0.98      0.00
   15    8   18      1.62      0.00
   16    8   18      0.45      0.00
  -15    9   18     -0.68      0.00
  -14    9   18      0.96      0.00
  -13    9   18      0.39      0.00
  -12    9   18     -2.14      0.00
  -11    9   18     -0.42      0.00
  -10    9   18      0.47      0.00
   -9    9   18      0.61      0.00
   -8    9   18     -1.18      0.00
   -7    9   18      1.67      0.00
   -6    9   18     -0.91      0.00
   -5    9   18      0.05      0.00
   -4    9   18      0.72      0.00
   -3    9   18     -0.77      0.00
   -2    9   18     -0.75      0.00
   -1    9   18      0.37      0.00
    0    9   18      0.21      0.00
    1    9   18      0.42      0.00
    2    9   18      0.04      0.00
    3    9   18      0.38      0.00
    4    9   18      0.10      0.00
    5    9   18     -0.39      0.00
    6    9   18      0.63      0.00
    7    9   18      0.27      0.00
    8    9   18     -0.07      0.00
    9    9   18      0.15      0.00
   10    9   18      0.19      0.00
   11    9   18     -1.06      0.00
   12    9   18     -0.19      0.00
   13    9   18     -2.29      0.00
   14    9   18      1.99      0.00
  -13   10   18     -0.44      0.00
  -12   10   18     -0.47      0.00
  -11   10   18     -1.08      0.00
  -10   10   18      0.13      0.00
   -9   10   18     -0.38      0.00
   -8   10   18      1.22      0.00
   -7   10   18     -0.85      0.00
   -6   10   18     -0.67      0.00
   -5   10   18     -0.56      0.00
   -4   10   18      0.29      0.00
   -3   10   18      0.44      0.00
   -2   10   18     -1.01      0.00
   -1   10   18     -1.23      0.00
    0   10   18     -0.05      0.00
    1   10   18      0.72      0.00
    2   10   18     -0.37      0.00
    3   10   18     -0.71      0.00
    4   10   18      0.18      0.00
    5   10   18      1.68      0.00
    6   10   18      0.12      0.00
    7   10   18      0.58      0.00
    8   10   18     -0.57      0.00
    9   10   18     -1.62      0.00
   10   10   18     -0.86      0.00
   11   10   18      1.51      0.00
   12   10   18     -0.45      0.00
   -8   11   18     -0.45      0.00
   -7   11   18      0.15      0.00
   -6   11   18      0.09      0.00
   -5   11   18     -0.36      0.00
   -4   11   18     -0.78      0.00
   -3   11   18     -0.86      0.00
   -2   11   18     -1.27      0.00
   -1   11   18     -0.03      0.00
    0   11   18      0.46      0.00
    1   11   18     -1.83      0.00
    2   11   18     -0.47      0.00
    3   11   18     -0.65      0.00
    4   11   18      0.84      0.00
    5   11   18      1.18      0.00
    6   11   18      1.28      0.00
    7   11   18     -1.34      0.00
  -23    0   19     -0.17      0.00
  -21    0   19      0.13      0.00
  -19    0   19     -0.13      0.00
  -17    0   19      0.43      0.00
  -15    0   19     -0.52      0.00
  -13    0   19      0.04      0.00
  -11    0   19      0.65      0.00
   -9    0   19      0.77      0.00
   -7    0   19     -1.06      0.00
   -5    0   19      0.19      0.00
   -3    0   19     -3.31      0.00
   -1    0   19      2.42      0.00
    1    0   19      0.08      0.00
    3    0   19     -2.40      0.00
    5    0   19      2.78      0.00
    7    0   19      0.74      0.00
    9    0   19      0.77      0.00
   11    0   19      0.39      0.00
   13    0   19      0.03      0.00
   15    0   19     -1.69      0.00
   17    0   19     -0.50      0.00
   19    0   19      0.83      0.00
   21    0   19      0.46      0.00
  -23    1   19      0.49      0.00
  -22    1   19     -0.86      0.00
  -21    1   19     -0.40      0.00
  -20    1   19      0.68      0.00
  -19    1   19      0.37      0.00
  -18    1   19     -0.64      0.00
  -17    1   19     -1.12      0.00
  -16    1   19      0.52      0.00
  -15    1   19      0.49      0.00
  -14    1   19     -0.55      0.00
  -13    1   19     -0.11      0.00
  -12    1   19      1.01      0.00
  -11    1   19      0.22      0.00
  -10    1   19      0.19      0.00
   -9    1   19      0.30      0.00
   -8    1   19     -0.23      0.00
   -7    1   19     -0.63      0.00
   -6    1   19      0.38      0.00
   -5    1   19      0.90      0.00
   -4    1   19     -2.48      0.00
   -3    1   19      0.09      0.00
   -2    1   19      1.11      0.00
   -1    1   19     -0.65      0.00
    0    1   19     -0.02      0.00
    1    1   19      0.05      0.00
    2    1   19      0.14      0.00
    3    1   19     -1.64      0.00
    4    1   19     -1.69      0.00
    5    1   19     -0.15      0.00
    6    1   19      3.77      0.00
    7    1   19      0.58      0.00
    8    1   19     -0.75      0.00
    9    1   19      0.06      0.00
   10    1   19      1.11      0.00
   11    1   19      0.39      0.00
   12    1   19      0.03      0.00
   13    1   19      0.47      0.00
   14    1   19     -0.54      0.00
   15    1   19     -0.42      0.00
   16    1   19     -1.21      0.00
   17    1   19      1.20      0.00
   18    1   19      0.14      0.00
   19    1   19     -0.81      0.00
   20    1   19      1.64      0.00
   21    1   19     -0.18      0.00
   22    1   19     -1.62      0.00
  -22    2   19      0.71      0.00
  -21    2   19     -0.48      0.00
  -20    2   19     -0.12      0.00
  -19    2   19     -0.35      0.00
  -18    2   19     -1.03      0.00
  -17    2   19     -0.27      0.00
  -16    2   19     -0.35      0.00
  -15    2   19      0.53      0.00
  -14    2   19      0.18      0.00
  -13    2   19      0.19      0.00
  -12    2   19      0.26      0.00
  -11    2   19     -0.22      0.00
  -10    2   19     -0.06      0.00
   -9    2   19      0.97      0.00
   -8    2   19      0.53      0.00
   -7    2   19     -1.23      0.00
   -6    2   19     -0.26      0.00
   -5    2   19      1.19      0.00
   -4    2   19      1.44      0.00
   -3    2   19     -1.90      0.00
   -2    2   19     -1.15      0.00
   -1    2   19      2.47      0.00
    0    2   19     -0.89      0.00
    1    2   19     -1.03      0.00
    2    2   19      0.31      0.00
    3    2   19     -0.85      0.00
    4    2   19     -3.17      0.00
    5    2   19      1.16      0.00
    6    2   19      0.90      0.00
    7    2   19      1.11      0.00
    8    2   19      0.67      0.00
    9    2   19     -0.16      0.00
   10    2   19      0.26      0.00
   11    2   19      0.80      0.00
   12    2   19      0.12      0.00
   13    2   19     -0.51      0.00
   14    2   19      0.70      0.00
   15    2   19     -0.21      0.00
   16    2   19     -0.14      0.00
   17    2   19     -0.03      0.00
   18    2   19      0.35      0.00
   19    2   19      0.81      0.00
   20    2   19     -0.90      0.00
   21    2   19     -0.57      0.00
  -22    3   19      0.32      0.00
  -21    3   19     -0.01      0.00
  -20    3   19     -2.08      0.00
  -19    3   19     -0.08      0.00
  -18    3   19      1.35      0.00
  -17    3   19     -1.01      0.00
  -16    3   19     -1.01      0.00
  -15    3   19     -0.15      0.00
  -14    3   19     -0.29      0.00
  -13    3   19     -0.06      0.00
  -12    3   19      0.42      0.00
  -11    3   19      0.15      0.00
  -10    3   19     -0.43      0.00
   -9    3   19      0.08      0.00
   -8    3   19      0.29      0.00
   -7    3   19      0.21      0.00
   -6    3   19      0.57      0.00
   -5    3   19      0.96      0.00
   -4    3   19     -0.90      0.00
   -3    3   19     -0.19      0.00
   -2    3   19      2.19      0.00
   -1    3   19     -1.65      0.00
    0    3   19     -0.46      0.00
    1    3   19      0.42      0.00
    2    3   19      0.40      0.00
    3    3   19     -1.09      0.00
    4    3   19     -1.94      0.00
    5    3   19     -2.52      0.00
    6    3   19      1.68      0.00
    7    3   19      1.29      0.00
    8    3   19      0.08      0.00
    9    3   19      0.05      0.00
   10    3   19      0.12      0.00
   11    3   19     -0.04      0.00
   12    3   19      0.27      0.00
   13    3   19      0.46      0.00
   14    3   19     -0.26      0.00
   15    3   19      0.19      0.00
   16    3   19      0.37      0.00
   17    3   19      0.28      0.00
   18    3   19      0.64      0.00
   19    3   19     -1.48      0.00
   20    3   19     -0.39      0.00
   21    3   19      0.51      0.00
  -21    4   19     -0.38      0.00
  -20    4   19      0.39      0.00
  -19    4   19     -0.20      0.00
  -18    4   19     -0.64      0.00
  -17    4   19     -0.01      0.00
  -16    4   19     -0.11      0.00
  -15    4   19     -1.03      0.00
  -14    4   19     -0.70      0.00
  -13    4   19     -0.24      0.00
  -12    4   19      0.08      0.00
  -11    4   19     -0.43      0.00
  -10    4   19     -0.28      0.00
   -9    4   19      0.50      0.00
   -8    4   19     -0.29      0.00
   -7    4   19     -0.06      0.00
   -6    4   19      0.84      0.00
   -5    4   19      0.29      0.00
   -4    4   19     -0.29      0.00
   -3    4   19      0.17      0.00
   -2    4   19     -0.61      0.00
   -1    4   19      2.10      0.00
    0    4   19     -0.45      0.00
    1    4   19     -0.48      0.00
    2    4   19      0.33      0.00
    3    4   19     -0.38      0.00
    4    4   19     -2.29      0.00
    5    4   19     -1.98      0.00
    6    4   19      0.15      0.00
    7    4   19      1.58      0.00
    8    4   19     -0.92      0.00
    9    4   19      0.02      0.00
   10    4   19     -0.09      0.00
   11    4   19     -0.72      0.00
   12    4   19      0.23      0.00
   13    4   19      0.49      0.00
   14    4   19      0.70      0.00
   15    4   19     -0.20      0.00
   16    4   19     -0.22      0.00
   17    4   19      1.22      0.00
   18    4   19     -1.11      0.00
   19    4   19     -0.70      0.00
   20    4   19      0.27      0.00
   21    4   19     -1.08      0.00
  -21    5   19      0.53      0.00
  -20    5   19     -0.38      0.00
  -19    5   19      0.76      0.00
  -18    5   19      0.32      0.00
  -17    5   19     -0.59      0.00
  -16    5   19     -0.90      0.00
  -15    5   19     -0.32      0.00
  -14    5   19     -0.07      0.00
  -13    5   19     -0.54      0.00
  -12    5   19     -0.11      0.00
  -11    5   19      0.17      0.00
  -10    5   19     -0.57      0.00
   -9    5   19     -0.85      0.00
   -8    5   19      0.61      0.00
   -7    5   19      0.09      0.00
   -6    5   19     -0.39      0.00
   -5    5   19     -0.28      0.00
   -4    5   19      0.31      0.00
   -3    5   19     -0.70      0.00
   -2    5   19      1.75      0.00
   -1    5   19      0.47      0.00
    0    5   19     -0.12      0.00
    1    5   19     -0.59      0.00
    2    5   19      0.61      0.00
    3    5   19      0.13      0.00
    4    5   19     -1.69      0.00
    5    5   19     -1.22      0.00
    6    5   19     -0.40      0.00
    7    5   19     -0.06      0.00
    8    5   19      0.26      0.00
    9    5   19     -0.90      0.00
   10    5   19     -0.11      0.00
   11    5   19     -0.75      0.00
   12    5   19     -0.99      0.00
   13    5   19      1.65      0.00
   14    5   19      0.64      0.00
   15    5   19     -1.21      0.00
   16    5   19     -0.20      0.00
   17    5   19      0.41      0.00
   18    5   19      0.69      0.00
   19    5   19     -0.89      0.00
   20    5   19     -1.15      0.00
  -19    6   19      0.35      0.00
  -18    6   19      0.53      0.00
  -17    6   19     -1.08      0.00
  -16    6   19     -0.68      0.00
  -15    6   19      0.39      0.00
  -14    6   19     -0.02      0.00
  -13    6   19      0.87      0.00
  -12    6   19     -0.17      0.00
  -11    6   19     -1.21      0.00
  -10    6   19     -0.11      0.00
   -9    6   19      0.30      0.00
   -8    6   19     -0.41      0.00
   -7    6   19      0.05      0.00
   -6    6   19     -0.33      0.00
   -5    6   19      0.62      0.00
   -4    6   19     -1.13      0.00
   -3    6   19      0.68      0.00
   -2    6   19      0.18      0.00
   -1    6   19      0.49      0.00
    0    6   19     -0.05      0.00
    1    6   19      0.41      0.00
    2    6   19      0.67      0.00
    3    6   19     -0.28      0.00
    4    6   19     -1.00      0.00
    5    6   19     -0.80      0.00
    6    6   19      0.34      0.00
    7    6   19     -0.24      0.00
    8    6   19     -0.29      0.00
    9    6   19      0.36      0.00
   10    6   19     -0.36      0.00
   11    6   19     -1.96      0.00
   12    6   19     -0.27      0.00
   13    6   19      1.42      0.00
   14    6   19      0.18      0.00
   15    6   19     -1.35      0.00
   16    6   19     -0.30      0.00
   17    6   19      0.51      0.00
   18    6   19      0.16      0.00
   19    6   19     -0.71      0.00
  -18    7   19     -0.43      0.00
  -17    7   19      0.14      0.00
  -16    7   19      0.00      0.00
  -15    7   19      0.77      0.00
  -14    7   19     -0.11      0.00
  -13    7   19     -0.77      0.00
  -12    7   19      0.52      0.00
  -11    7   19      0.49      0.00
  -10    7   19     -0.57      0.00
   -9    7   19     -0.19      0.00
   -8    7   19      0.37      0.00
   -7    7   19     -0.52      0.00
   -6    7   19      1.21      0.00
   -5    7   19     -0.68      0.00
   -4    7   19      0.52      0.00
   -3    7   19     -0.79      0.00
   -2    7   19      0.60      0.00
   -1    7   19      0.36      0.00
    0    7   19     -0.45      0.00
    1    7   19      0.12      0.00
    2    7   19      0.97      0.00
    3    7   19      0.73      0.00
    4    7   19     -0.14      0.00
    5    7   19     -1.10      0.00
    6    7   19     -0.60      0.00
    7    7   19      0.78      0.00
    8    7   19     -0.12      0.00
    9    7   19      0.51      0.00
   10    7   19      0.47      0.00
   11    7   19     -0.58      0.00
   12    7   19     -1.45      0.00
   13    7   19     -0.06      0.00
   14    7   19     -0.50      0.00
   15    7   19      0.20      0.00
   16    7   19      0.32      0.00
   17    7   19      0.42      0.00
   18    7   19     -1.24      0.00
  -17    8   19     -0.09      0.00
  -16    8   19      1.21      0.00
  -15    8   19     -0.77      0.00
  -14    8   19      0.91      0.00
  -13    8   19      0.47      0.00
  -12    8   19     -1.60      0.00
  -11    8   19     -0.49      0.00
  -10    8   19      1.38      0.00
   -9    8   19      0.72      0.00
   -8    8   19     -1.53      0.00
   -7    8   19      1.11      0.00
   -6    8   19     -0.32      0.00
   -5    8   19      1.20      0.00
   -4    8   19     -0.15      0.00
   -3    8   19     -0.33      0.00
   -2    8   19     -0.53      0.00
   -1    8   19     -0.01      0.00
    0    8   19      0.18      0.00
    1    8   19      0.91      0.00
    2    8   19      0.65      0.00
    3    8   19      0.63      0.00
    4    8   19     -0.12      0.00
    5    8   19     -1.15      0.00
    6    8   19     -0.78      0.00
    7    8   19      0.99      0.00
    8    8   19      1.30      0.00
    9    8   19     -0.02      0.00
   10    8   19      0.36      0.00
   11    8   19     -0.84      0.00
   12    8   19     -1.27      0.00
   13    8   19     -1.73      0.00
   14    8   19      2.13      0.00
   15    8   19      0.12      0.00
  -15    9   19      2.38      0.00
  -14    9   19     -0.64      0.00
  -13    9   19     -1.18      0.00
  -12    9   19      0.52      0.00
  -11    9   19     -0.58      0.00
  -10    9   19      0.24      0.00
   -9    9   19      0.36      0.00
   -8    9   19      0.46      0.00
   -7    9   19     -1.78      0.00
   -6    9   19      1.48      0.00
   -5    9   19     -0.01      0.00
   -4    9   19      0.02      0.00
   -3    9   19      0.20      0.00
   -2    9   19     -1.24      0.00
   -1    9   19     -0.53      0.00
    0    9   19      1.15      0.00
    1    9   19      0.15      0.00
    2    9   19      0.57      0.00
    3    9   19      0.18      0.00
    4    9   19     -0.50      0.00
    5    9   19     -0.07      0.00
    6    9   19      0.35      0.00
    7    9   19      1.07      0.00
    8    9   19      0.19      0.00
    9    9   19     -1.65      0.00
   10    9   19     -0.83      0.00
   11    9   19      2.03      0.00
   12    9   19     -1.16      0.00
   13    9   19     -0.51      0.00
  -12   10   19     -0.87      0.00
  -11   10   19     -0.01      0.00
  -10   10   19     -0.30      0.00
   -9   10   19      0.24      0.00
   -8   10   19     -1.01      0.00
   -7   10   19      0.68      0.00
   -6   10   19      0.08      0.00
   -5   10   19      0.31      0.00
   -4   10   19     -0.96      0.00
   -3   10   19     -1.47      0.00
   -2   10   19     -0.14      0.00
   -1   10   19      0.64      0.00
    0   10   19     -0.30      0.00
    1   10   19     -0.79      0.00
    2   10   19      0.04      0.00
    3   10   19      0.00      0.00
    4   10   19      0.46      0.00
    5   10   19      0.65      0.00
    6   10   19      0.99      0.00
    7   10   19     -0.73      0.00
    8   10   19     -0.66      0.00
    9   10   19     -0.47      0.00
   10   10   19      0.05      0.00
   11   10   19     -0.66      0.00
   -7   11   19      0.24      0.00
   -6   11   19     -1.22      0.00
   -5   11   19     -1.13      0.00
   -4   11   19      0.47      0.00
   -3   11   19      0.21      0.00
   -2   11   19     -0.73      0.00
   -1   11   19     -2.15      0.00
    0   11   19     -1.15      0.00
    1   11   19      1.55      0.00
    2   11   19     -0.56      0.00
    3   11   19     -0.79      0.00
    4   11   19     -0.50      0.00
    5   11   19      1.68      0.00
    6   11   19      0.70      0.00
  -22    0   20     -1.63      0.00
  -20    0   20      2.01      0.00
  -18    0   20     -1.27      0.00
  -16    0   20      0.80      0.00
  -14    0   20     -1.33      0.00
  -12    0   20      1.17      0.00
  -10    0   20      0.24      0.00
   -8    0   20      0.05      0.00
   -6    0   20      0.05      0.00
   -4    0   20     -2.61      0.00
   -2    0   20      1.15      0.00
    0    0   20     -0.01      0.00
    2    0   20     -0.75      0.00
    4    0   20     -0.71      0.00
    6    0   20      2.15      0.00
    8    0   20     -0.11      0.00
   10    0   20      1.34      0.00
   12    0   20     -0.36      0.00
   14    0   20     -0.25      0.00
   16    0   20     -1.62      0.00
   18    0   20     -0.29      0.00
   20    0   20      2.30      0.00
  -22    1   20      0.02      0.00
  -21    1   20     -0.14      0.00
  -20    1   20      0.07      0.00
  -19    1   20     -0.04      0.00
  -18    1   20     -0.34      0.00
  -17    1   20     -0.05      0.00
  -16    1   20     -0.46      0.00
  -15    1   20     -0.01      0.00
  -14    1   20      0.41      0.00
  -13    1   20     -0.05      0.00
  -12    1   20     -0.22      0.00
  -11    1   20      0.47      0.00
  -10    1   20      0.46      0.00
   -9    1   20      0.81      0.00
   -8    1   20     -0.04      0.00
   -7    1   20     -1.01      0.00
   -6    1   20     -0.34      0.00
   -5    1   20      0.39      0.00
   -4    1   20      1.46      0.00
   -3    1   20     -2.39      0.00
   -2    1   20     -1.14      0.00
   -1    1   20      2.62      0.00
    0    1   20      0.10      0.00
    1    1   20     -1.70      0.00
    2    1   20     -0.25      0.00
    3    1   20     -0.57      0.00
    4    1   20     -2.03      0.00
    5    1   20      1.15      0.00
    6    1   20      1.06      0.00
    7    1   20      0.70      0.00
    8    1   20      0.24      0.00
    9    1   20      0.50      0.00
   10    1   20      0.19      0.00
   11    1   20      0.41      0.00
   12    1   20     -0.01      0.00
   13    1   20     -0.03      0.00
   14    1   20      0.93      0.00
   15    1   20     -1.35      0.00
   16    1   20     -0.37      0.00
   17    1   20     -0.28      0.00
   18    1   20      0.44      0.00
   19    1   20      1.02      0.00
   20    1   20     -0.39      0.00
   21    1   20     -0.02      0.00
  -22    2   20      0.08      0.00
  -21    2   20     -0.61      0.00
  -20    2   20     -1.13      0.00
  -19    2   20      0.50      0.00
  -18    2   20      0.42      0.00
  -17    2   20     -1.40      0.00
  -16    2   20     -0.31      0.00
  -15    2   20      0.12      0.00
  -14    2   20     -0.05      0.00
  -13    2   20      0.19      0.00
  -12    2   20      0.98      0.00
  -11    2   20     -0.18      0.00
  -10    2   20     -0.60      0.00
   -9    2   20      0.81      0.00
   -8    2   20      0.59      0.00
   -7    2   20     -0.34      0.00
   -6    2   20     -0.09      0.00
   -5    2   20      1.18      0.00
   -4    2   20     -0.83      0.00
   -3    2   20     -0.29      0.00
   -2    2   20      1.52      0.00
   -1    2   20     -0.78      0.00
    0    2   20     -0.86      0.00
    1    2   20      0.06      0.00
    2    2   20      0.25      0.00
    3    2   20     -1.88      0.00
    4    2   20     -1.13      0.00
    5    2   20     -0.90      0.00
    6    2   20      1.94      0.00
    7    2   20      0.89      0.00
    8    2   20     -0.72      0.00
    9    2   20      0.26      0.00
   10    2   20      1.14      0.00
   11    2   20      0.64      0.00
   12    2   20     -0.62      0.00
   13    2   20     -0.30      0.00
   14    2   20      0.14      0.00
   15    2   20      0.91      0.00
   16    2   20     -0.65      0.00
   17    2   20     -0.02      0.00
   18    2   20      0.93      0.00
   19    2   20     -0.67      0.00
   20    2   20      0.24      0.00
   21    2   20     -0.05      0.00
  -21    3   20     -0.23      0.00
  -20    3   20      0.06      0.00
  -19    3   20     -0.90      0.00
  -18    3   20     -0.98      0.00
  -17    3   20      0.37      0.00
  -16    3   20     -0.21      0.00
  -15    3   20     -0.58      0.00
  -14    3   20     -0.41      0.00
  -13    3   20      0.01      0.00
  -12    3   20      0.07      0.00
  -11    3   20     -0.23      0.00
  -10    3   20     -0.04      0.00
   -9    3   20      0.68      0.00
   -8    3   20      0.49      0.00
   -7    3   20     -0.51      0.00
   -6    3   20      0.76      0.00
   -5    3   20      1.01      0.00
   -4    3   20     -0.26      0.00
   -3    3   20     -0.60      0.00
   -2    3   20     -0.38      0.00
   -1    3   20      1.97      0.00
    0    3   20     -0.66      0.00
    1    3   20     -0.70      0.00
    2    3   20     -0.05      0.00
    3    3   20     -0.49      0.00
    4    3   20     -2.19      0.00
    5    3   20     -0.70      0.00
    6    3   20      0.25      0.00
    7    3   20      1.15      0.00
    8    3   20     -0.35      0.00
    9    3   20     -0.43      0.00
   10    3   20      0.69      0.00
   11    3   20      0.63      0.00
   12    3   20     -0.32      0.00
   13    3   20     -0.84      0.00
   14    3   20      0.82      0.00
   15    3   20      0.57      0.00
   16    3   20     -0.04      0.00
   17    3   20      1.01      0.00
   18    3   20     -0.72      0.00
   19    3   20     -0.73      0.00
   20    3   20     -0.27      0.00
   21    3   20     -0.39      0.00
  -21    4   20     -0.20      0.00
  -20    4   20     -1.22      0.00
  -19    4   20      0.89      0.00
  -18    4   20      1.01      0.00
  -17    4   20     -0.97      0.00
  -16    4   20     -1.21      0.00
  -15    4   20     -0.09      0.00
  -14    4   20     -0.58      0.00
  -13    4   20     -0.94      0.00
  -12    4   20      0.15      0.00
  -11    4   20      0.58      0.00
  -10    4   20     -0.56      0.00
   -9    4   20     -0.52      0.00
   -8    4   20      0.96      0.00
   -7    4   20      0.14      0.00
   -6    4   20     -0.25      0.00
   -5    4   20      0.42      0.00
   -4    4   20      0.20      0.00
   -3    4   20     -0.75      0.00
   -2    4   20      1.06      0.00
   -1    4   20     -0.12      0.00
    0    4   20      0.99      0.00
    1    4   20     -0.25      0.00
    2    4   20      0.00      0.00
    3    4   20     -0.27      0.00
    4    4   20     -2.23      0.00
    5    4   20     -1.55      0.00
    6    4   20      0.61      0.00
    7    4   20      0.11      0.00
    8    4   20      0.17      0.00
    9    4   20     -1.06      0.00
   10    4   20     -0.25      0.00
   11    4   20     -0.18      0.00
   12    4   20     -0.15      0.00
   13    4   20      1.20      0.00
   14    4   20     -0.14      0.00
   15    4   20     -0.52      0.00
   16    4   20      1.01      0.00
   17    4   20      0.35      0.00
   18    4   20      0.19      0.00
   19    4   20     -1.70      0.00
   20    4   20     -0.99      0.00
  -20    5   20     -0.16      0.00
  -19    5   20      0.01      0.00
  -18    5   20      1.24      0.00
  -17    5   20     -0.30      0.00
  -16    5   20     -1.06      0.00
  -15    5   20     -0.89      0.00
  -14    5   20     -0.59      0.00
  -13    5   20      0.80      0.00
  -12    5   20      0.29      0.00
  -11    5   20     -1.10      0.00
  -10    5   20     -0.47      0.00
   -9    5   20      0.59      0.00
   -8    5   20     -0.39      0.00
   -7    5   20      0.01      0.00
   -6    5   20     -0.16      0.00
   -5    5   20      0.22      0.00
   -4    5   20     -0.73      0.00
   -3    5   20      0.22      0.00
   -2    5   20      0.34      0.00
   -1    5   20      1.26      0.00
    0    5   20     -0.41      0.00
    1    5   20      0.71      0.00
    2    5   20      0.69      0.00
    3    5   20     -1.08      0.00
    4    5   20     -1.54      0.00
    5    5   20     -1.30      0.00
    6    5   20      0.72      0.00
    7    5   20      0.78      0.00
    8    5   20     -1.46      0.00
    9    5   20     -0.54      0.00
   10    5   20     -0.95      0.00
   11    5   20     -1.19      0.00
   12    5   20      0.50      0.00
   13    5   20      1.05      0.00
   14    5   20      0.89      0.00
   15    5   20     -0.78      0.00
   16    5   20     -1.10      0.00
   17    5   20      1.19      0.00
   18    5   20     -0.10      0.00
   19    5   20     -0.88      0.00
  -19    6   20      0.56      0.00
  -18    6   20     -0.12      0.00
  -17    6   20      0.15      0.00
  -16    6   20     -0.23      0.00
  -15    6   20     -0.67      0.00
  -14    6   20      0.03      0.00
  -13    6   20      0.00      0.00
  -12    6   20      0.74      0.00
  -11    6   20      0.26      0.00
  -10    6   20     -0.94      0.00
   -9    6   20     -0.49      0.00
   -8    6   20      0.52      0.00
   -7    6   20     -0.07      0.00
   -6    6   20      0.25      0.00
   -5    6   20     -1.19      0.00
   -4    6   20      0.37      0.00
   -3    6   20     -0.19      0.00
   -2    6   20      1.20      0.00
   -1    6   20      0.45      0.00
    0    6   20     -0.44      0.00
    1    6   20     -0.27      0.00
    2    6   20      0.45      0.00
    3    6   20      0.71      0.00
    4    6   20     -0.08      0.00
    5    6   20     -1.08      0.00
    6    6   20     -0.90      0.00
    7    6   20      0.65      0.00
    8    6   20     -0.68      0.00
    9    6   20     -0.41      0.00
   10    6   20      0.56      0.00
   11    6   20     -1.26      0.00
   12    6   20     -1.69      0.00
   13    6   20      1.38      0.00
   14    6   20      0.79      0.00
   15    6   20     -0.94      0.00
   16    6   20     -0.22      0.00
   17    6   20     -0.09      0.00
   18    6   20     -0.29      0.00
  -17    7   20     -0.38      0.00
  -16    7   20      0.48      0.00
  -15    7   20     -0.07      0.00
  -14    7   20      0.10      0.00
  -13    7   20      0.62      0.00
  -12    7   20     -0.41      0.00
  -11    7   20     -0.31      0.00
  -10    7   20      1.01      0.00
   -9    7   20      0.03      0.00
   -8    7   20     -0.83      0.00
   -7    7   20      0.82      0.00
   -6    7   20     -0.45      0.00
   -5    7   20      1.00      0.00
   -4    7   20     -0.60      0.00
   -3    7   20      0.24      0.00
   -2    7   20     -0.27      0.00
   -1    7   20      0.39      0.00
    0    7   20      0.26      0.00
    1    7   20     -0.15      0.00
    2    7   20      0.83      0.00
    3    7   20      0.83      0.00
    4    7   20     -0.67      0.00
    5    7   20     -0.71      0.00
    6    7   20     -0.09      0.00
    7    7   20     -0.31      0.00
    8    7   20      0.86      0.00
    9    7   20      0.28      0.00
   10    7   20      0.13      0.00
   11    7   20     -1.28      0.00
   12    7   20     -1.19      0.00
   13    7   20      0.08      0.00
   14    7   20      1.31      0.00
   15    7   20     -0.62      0.00
   16    7   20     -0.80      0.00
   17    7   20     -0.17      0.00
  -16    8   20     -0.12      0.00
  -15    8   20      1.82      0.00
  -14    8   20     -0.85      0.00
  -13    8   20     -1.26      0.00
  -12    8   20      0.82      0.00
  -11    8   20      0.71      0.00
  -10    8   20      0.08      0.00
   -9    8   20      0.22      0.00
   -8    8   20      0.20      0.00
   -7    8   20     -1.42      0.00
   -6    8   20      1.96      0.00
   -5    8   20      0.09      0.00
   -4    8   20      0.05      0.00
   -3    8   20     -0.43      0.00
   -2    8   20     -0.01      0.00
   -1    8   20      0.03      0.00
    0    8   20      0.14      0.00
    1    8   20      0.39      0.00
    2    8   20      1.17      0.00
    3    8   20      0.01      0.00
    4    8   20     -0.48      0.00
    5    8   20     -0.32      0.00
    6    8   20     -0.06      0.00
    7    8   20      0.55      0.00
    8    8   20      0.22      0.00
    9    8   20     -0.26      0.00
   10    8   20     -0.29      0.00
   11    8   20      0.94      0.00
   12    8   20     -1.11      0.00
   13    8   20     -0.36      0.00
   14    8   20     -1.24      0.00
   15    8   20      0.92      0.00
  -14    9   20      0.61      0.00
  -13    9   20      0.35      0.00
  -12    9   20     -1.00      0.00
  -11    9   20      0.09      0.00
  -10    9   20      0.79      0.00
   -9    9   20      0.59      0.00
   -8    9   20     -1.72      0.00
   -7    9   20      0.84      0.00
   -6    9   20      0.42      0.00
   -5    9   20      0.80      0.00
   -4    9   20     -1.04      0.00
   -3    9   20     -0.55      0.00
   -2    9   20      0.41      0.00
   -1    9   20     -0.13      0.00
    0    9   20     -0.36      0.00
    1    9   20      0.97      0.00
    2    9   20      0.12      0.00
    3    9   20      0.31      0.00
    4    9   20      0.32      0.00
    5    9   20     -0.70      0.00
    6    9   20     -0.26      0.00
    7    9   20      1.07      0.00
    8    9   20      0.26      0.00
    9    9   20     -0.98      0.00
   10    9   20      0.05      0.00
   11    9   20     -0.64      0.00
   12    9   20      0.63      0.00
  -11   10   20     -0.19      0.00
  -10   10   20      0.60      0.00
   -9   10   20     -0.31      0.00
   -8   10   20      0.30      0.00
   -7   10   20     -0.52      0.00
   -6   10   20     -0.09      0.00
   -5   10   20     -0.59      0.00
   -4   10   20      0.77      0.00
   -3   10   20     -0.10      0.00
   -2   10   20     -1.64      0.00
   -1   10   20     -1.04      0.00
    0   10   20      0.55      0.00
    1   10   20      0.56      0.00
    2   10   20      0.01      0.00
    3   10   20     -0.29      0.00
    4   10   20     -0.40      0.00
    5   10   20      1.12      0.00
    6   10   20      0.56      0.00
    7   10   20      0.03      0.00
    8   10   20     -0.49      0.00
    9   10   20     -1.19      0.00
   10   10   20     -1.30      0.00
   -7   11   20     -0.41      0.00
   -6   11   20      0.61      0.00
   -5   11   20      0.34      0.00
   -4   11   20     -1.77      0.00
   -3   11   20     -1.12      0.00
   -2   11   20     -0.26      0.00
   -1   11   20      0.20      0.00
    0   11   20     -0.38      0.00
    1   11   20     -1.47      0.00
    2   11   20      0.04      0.00
    3   11   20     -0.23      0.00
    4   11   20      1.01      0.00
    5   11   20      0.39      0.00
  -21    0   21     -0.17      0.00
  -19    0   21      0.59      0.00
  -17    0   21     -0.14      0.00
  -15    0   21     -0.55      0.00
  -13    0   21     -0.15      0.00
  -11    0   21      0.70      0.00
   -9    0   21      0.42      0.00
   -7    0   21     -0.46      0.00
   -5    0   21     -0.12      0.00
   -3    0   21     -2.58      0.00
   -1    0   21      2.95      0.00
    1    0   21     -2.50      0.00
    3    0   21     -0.07      0.00
    5    0   21      0.40      0.00
    7    0   21      0.57      0.00
    9    0   21      0.75      0.00
   11    0   21      0.60      0.00
   13    0   21     -0.50      0.00
   15    0   21     -1.00      0.00
   17    0   21     -0.54      0.00
   19    0   21      0.34      0.00
   21    0   21      1.14      0.00
  -22    1   21     -0.87      0.00
  -21    1   21     -1.13      0.00
  -20    1   21      0.97      0.00
  -19    1   21      0.63      0.00
  -18    1   21     -0.57      0.00
  -17    1   21     -0.41      0.00
  -16    1   21      0.04      0.00
  -15    1   21     -0.33      0.00
  -14    1   21     -0.46      0.00
  -13    1   21      0.38      0.00
  -12    1   21      1.00      0.00
  -11    1   21     -0.18      0.00
  -10    1   21     -0.28      0.00
   -9    1   21      0.65      0.00
   -8    1   21      0.57      0.00
   -7    1   21     -0.47      0.00
   -6    1   21     -0.26      0.00
   -5    1   21      0.71      0.00
   -4    1   21     -1.59      0.00
   -3    1   21      0.33      0.00
   -2    1   21      1.15      0.00
   -1    1   21     -0.67      0.00
    0    1   21     -0.51      0.00
    1    1   21      0.08      0.00
    2    1   21     -0.92      0.00
    3    1   21     -1.36      0.00
    4    1   21     -0.01      0.00
    5    1   21     -0.17      0.00
    6    1   21      0.99      0.00
    7    1   21      0.44      0.00
    8    1   21     -0.37      0.00
    9    1   21      0.31      0.00
   10    1   21      1.79      0.00
   11    1   21      0.30      0.00
   12    1   21     -1.40      0.00
   13    1   21      0.08      0.00
   14    1   21      0.53      0.00
   15    1   21      0.41      0.00
   16    1   21     -1.42      0.00
   17    1   21      0.48      0.00
   18    1   21      0.19      0.00
   19    1   21     -0.76      0.00
   20    1   21      1.61      0.00
   21    1   21      0.40      0.00
  -21    2   21      0.16      0.00
  -20    2   21      0.22      0.00
  -19    2   21     -0.89      0.00
  -18    2   21     -0.82      0.00
  -17    2   21      0.10      0.00
  -16    2   21     -0.28      0.00
  -15    2   21      0.15      0.00
  -14    2   21     -0.08      0.00
  -13    2   21      0.12      0.00
  -12    2   21     -0.03      0.00
  -11    2   21      0.13      0.00
  -10    2   21      0.31      0.00
   -9    2   21      0.57      0.00
   -8    2   21      0.56      0.00
   -7    2   21     -0.53      0.00
   -6    2   21      0.19      0.00
   -5    2   21      0.71      0.00
   -4    2   21      0.98      0.00
   -3    2   21     -1.12      0.00
   -2    2   21     -1.29      0.00
   -1    2   21      1.95      0.00
    0    2   21      0.34      0.00
    1    2   21     -1.83      0.00
    2    2   21     -0.93      0.00
    3    2   21      0.14      0.00
    4    2   21     -1.95      0.00
    5    2   21      0.26      0.00
    6    2   21      0.81      0.00
    7    2   21      0.32      0.00
    8    2   21      0.27      0.00
    9    2   21     -0.15      0.00
   10    2   21      0.52      0.00
   11    2   21      0.62      0.00
   12    2   21     -0.16      0.00
   13    2   21     -0.70      0.00
   14    2   21      1.00      0.00
   15    2   21     -0.32      0.00
   16    2   21     -0.14      0.00
   17    2   21      0.62      0.00
   18    2   21     -0.29      0.00
   19    2   21      0.58      0.00
   20    2   21     -0.20      0.00
   21    2   21     -0.80      0.00
  -21    3   21     -0.59      0.00
  -20    3   21     -1.12      0.00
  -19    3   21      1.05      0.00
  -18    3   21      0.42      0.00
  -17    3   21     -1.72      0.00
  -16    3   21     -0.47      0.00
  -15    3   21      0.09      0.00
  -14    3   21     -0.42      0.00
  -13    3   21     -0.40      0.00
  -12    3   21      0.65      0.00
  -11    3   21      0.00      0.00
  -10    3   21     -0.86      0.00
   -9    3   21      0.57      0.00
   -8    3   21      1.22      0.00
   -7    3   21      0.19      0.00
   -6    3   21     -0.48      0.00
   -5    3   21      1.09      0.00
   -4    3   21      0.61      0.00
   -3    3   21     -1.25      0.00
   -2    3   21      0.56      0.00
   -1    3   21     -0.04      0.00
    0    3   21      0.34      0.00
    1    3   21     -0.05      0.00
    2    3   21     -0.03      0.00
    3    3   21     -1.46      0.00
    4    3   21     -1.35      0.00
    5    3   21     -0.72      0.00
    6    3   21      0.62      0.00
    7    3   21      0.50      0.00
    8    3   21     -0.12      0.00
    9    3   21     -0.78      0.00
   10    3   21      0.08      0.00
   11    3   21      0.97      0.00
   12    3   21     -0.17      0.00
   13    3   21     -0.43      0.00
   14    3   21     -0.34      0.00
   15    3   21      1.00      0.00
   16    3   21      0.96      0.00
   17    3   21     -0.47      0.00
   18    3   21      0.69      0.00
   19    3   21     -1.08      0.00
   20    3   21     -1.13      0.00
  -20    4   21     -0.63      0.00
  -19    4   21     -0.61      0.00
  -18    4   21      1.06      0.00
  -17    4   21      0.75      0.00
  -16    4   21     -1.18      0.00
  -15    4   21     -1.63      0.00
  -14    4   21     -0.63      0.00
  -13    4   21      0.39      0.00
  -12    4   21      0.22      0.00
  -11    4   21     -0.58      0.00
  -10    4   21     -0.34      0.00
   -9    4   21      0.61      0.00
   -8    4   21      0.06      0.00
   -7    4   21     -0.07      0.00
   -6    4   21      0.44      0.00
   -5    4   21      0.63      0.00
   -4    4   21     -0.82      0.00
   -3    4   21     -0.05      0.00
   -2    4   21      0.27      0.00
   -1    4   21      1.03      0.00
    0    4   21     -0.55      0.00
    1    4   21      1.01      0.00
    2    4   21      0.34      0.00
    3    4   21     -1.22      0.00
    4    4   21     -1.58      0.00
    5    4   21     -1.56      0.00
    6    4   21      0.76      0.00
    7    4   21      1.19      0.00
    8    4   21     -1.73      0.00
    9    4   21     -0.59      0.00
   10    4   21     -0.42      0.00
   11    4   21     -0.32      0.00
   12    4   21      0.45      0.00
   13    4   21     -0.23      0.00
   14    4   21      0.75      0.00
   15    4   21      0.56      0.00
   16    4   21     -0.35      0.00
   17    4   21      1.48      0.00
   18    4   21     -0.70      0.00
   19    4   21     -1.82      0.00
   20    4   21     -0.70      0.00
  -19    5   21      0.81      0.00
  -18    5   21      0.47      0.00
  -17    5   21      0.47      0.00
  -16    5   21     -0.50      0.00
  -15    5   21     -1.20      0.00
  -14    5   21     -0.68      0.00
  -13    5   21     -0.51      0.00
  -12    5   21      0.62      0.00
  -11    5   21      0.80      0.00
  -10    5   21     -0.62      0.00
   -9    5   21     -0.84      0.00
   -8    5   21      0.66      0.00
   -7    5   21     -0.43      0.00
   -6    5   21     -0.12      0.00
   -5    5   21     -0.33      0.00
   -4    5   21      0.30      0.00
   -3    5   21     -0.23      0.00
   -2    5   21      0.76      0.00
   -1    5   21      0.49      0.00
    0    5   21      0.47      0.00
    1    5   21     -0.75      0.00
    2    5   21      0.48      0.00
    3    5   21      0.90      0.00
    4    5   21     -1.40      0.00
    5    5   21     -1.12      0.00
    6    5   21     -0.25      0.00
    7    5   21      0.09      0.00
    8    5   21     -0.46      0.00
    9    5   21     -1.34      0.00
   10    5   21      0.14      0.00
   11    5   21     -0.90      0.00
   12    5   21     -1.45      0.00
   13    5   21      1.50      0.00
   14    5   21      1.12      0.00
   15    5   21     -0.32      0.00
   16    5   21      0.24      0.00
   17    5   21     -0.52      0.00
   18    5   21     -0.02      0.00
   19    5   21     -0.56      0.00
  -18    6   21      0.98      0.00
  -17    6   21     -0.26      0.00
  -16    6   21     -0.35      0.00
  -15    6   21     -0.10      0.00
  -14    6   21     -0.75      0.00
  -13    6   21      0.72      0.00
  -12    6   21      0.44      0.00
  -11    6   21     -0.34      0.00
  -10    6   21      0.22      0.00
   -9    6   21      0.03      0.00
   -8    6   21     -0.50      0.00
   -7    6   21      0.40      0.00
   -6    6   21     -0.67      0.00
   -5    6   21      0.49      0.00
   -4    6   21     -0.68      0.00
   -3    6   21      0.24      0.00
   -2    6   21      0.66      0.00
   -1    6   21      0.64      0.00
    0    6   21     -0.43      0.00
    1    6   21      0.05      0.00
    2    6   21      0.83      0.00
    3    6   21     -0.13      0.00
    4    6   21     -0.65      0.00
    5    6   21     -0.28      0.00
    6    6   21      0.49      0.00
    7    6   21     -0.42      0.00
    8    6   21     -0.63      0.00
    9    6   21     -0.86      0.00
   10    6   21     -0.03      0.00
   11    6   21     -0.77      0.00
   12    6   21     -1.10      0.00
   13    6   21      0.70      0.00
   14    6   21      1.78      0.00
   15    6   21     -0.70      0.00
   16    6   21     -1.91      0.00
   17    6   21      0.57      0.00
   18    6   21      0.72      0.00
  -17    7   21     -0.15      0.00
  -16    7   21      0.12      0.00
  -15    7   21      0.81      0.00
  -14    7   21     -0.53      0.00
  -13    7   21     -0.63      0.00
  -12    7   21      1.08      0.00
  -11    7   21      0.69      0.00
  -10    7   21     -0.30      0.00
   -9    7   21      0.20      0.00
   -8    7   21      0.15      0.00
   -7    7   21     -0.30      0.00
   -6    7   21      1.28      0.00
   -5    7   21     -1.19      0.00
   -4    7   21      0.24      0.00
   -3    7   21      0.16      0.00
   -2    7   21      0.72      0.00
   -1    7   21      0.31      0.00
    0    7   21     -0.43      0.00
    1    7   21      0.00      0.00
    2    7   21      0.45      0.00
    3    7   21      0.40      0.00
    4    7   21      0.25      0.00
    5    7   21     -0.47      0.00
    6    7   21     -0.31      0.00
    7    7   21      0.47      0.00
    8    7   21     -1.12      0.00
    9    7   21      0.43      0.00
   10    7   21      0.41      0.00
   11    7   21     -0.62      0.00
   12    7   21     -0.88      0.00
   13    7   21      0.66      0.00
   14    7   21     -0.45      0.00
   15    7   21     -0.63      0.00
   16    7   21      0.29      0.00
  -16    8   21      1.35      0.00
  -15    8   21     -0.72      0.00
  -14    8   21      0.35      0.00
  -13    8   21      0.33      0.00
  -12    8   21     -0.75      0.00
  -11    8   21      0.36      0.00
  -10    8   21      1.54      0.00
   -9    8   21      0.28      0.00
   -8    8   21     -1.23      0.00
   -7    8   21      0.92      0.00
   -6    8   21     -0.18      0.00
   -5    8   21      0.98      0.00
   -4    8   21     -0.37      0.00
   -3    8   21     -0.02      0.00
   -2    8   21     -0.02      0.00
   -1    8   21      0.14      0.00
    0    8   21      0.21      0.00
    1    8   21      0.68      0.00
    2    8   21      0.38      0.00
    3    8   21      0.26      0.00
    4    8   21     -0.38      0.00
    5    8   21     -0.54      0.00
    6    8   21     -0.29      0.00
    7    8   21      0.61      0.00
    8    8   21      0.89      0.00
    9    8   21     -0.65      0.00
   10    8   21     -0.05      0.00
   11    8   21     -0.72      0.00
   12    8   21      0.05      0.00
   13    8   21     -0.65      0.00
   14    8   21      0.96      0.00
  -13    9   21     -1.45      0.00
  -12    9   21      0.80      0.00
  -11    9   21      0.75      0.00
  -10    9   21      0.44      0.00
   -9    9   21      0.02      0.00
   -8    9   21      0.18      0.00
   -7    9   21     -1.45      0.00
   -6    9   21      1.04      0.00
   -5    9   21      0.45      0.00
   -4    9   21      0.27      0.00
   -3    9   21     -0.40      0.00
   -2    9   21     -0.76      0.00
   -1    9   21     -0.32      0.00
    0    9   21      0.97      0.00
    1    9   21      0.37      0.00
    2    9   21      0.43      0.00
    3    9   21     -0.39      0.00
    4    9   21     -0.20      0.00
    5    9   21      0.53      0.00
    6    9   21      0.06      0.00
    7    9   21     -0.21      0.00
    8    9   21      0.49      0.00
    9    9   21     -0.62      0.00
   10    9   21     -1.49      0.00
   11    9   21      1.76      0.00
  -10   10   21     -0.01      0.00
   -9   10   21      1.14      0.00
   -8   10   21     -0.95      0.00
   -7   10   21     -0.30      0.00
   -6   10   21      1.19      0.00
   -5   10   21      0.56      0.00
   -4   10   21     -2.15      0.00
   -3   10   21     -0.85      0.00
   -2   10   21      0.62      0.00
   -1   10   21      0.36      0.00
    0   10   21     -0.77      0.00
    1   10   21     -0.51      0.00
    2   10   21     -0.03      0.00
    3   10   21      0.59      0.00
    4   10   21      1.06      0.00
    5   10   21     -0.36      0.00
    6   10   21     -0.37      0.00
    7   10   21      0.17      0.00
    8   10   21     -0.02      0.00
    9   10   21     -0.73      0.00
   -3   11   21     -1.02      0.00
   -2   11   21     -1.19      0.00
   -1   11   21     -0.58      0.00
    0   11   21     -0.25      0.00
    1   11   21      0.30      0.00
    2   11   21     -0.36      0.00
    3   11   21     -0.13      0.00
    4   11   21     -0.62      0.00
  -20    0   22      1.31      0.00
  -18    0   22     -0.33      0.00
  -16    0   22     -0.19      0.00
  -14    0   22     -0.80      0.00
  -12    0   22      1.04      0.00
  -10    0   22     -0.40      0.00
   -8    0   22      0.75      0.00
   -6    0   22     -0.47      0.00
   -4    0   22     -1.69      0.00
   -2    0   22      0.97      0.00
    0    0   22     -0.62      0.00
    2    0   22     -1.25      0.00
    4    0   22      0.47      0.00
    6    0   22     -0.30      0.00
    8    0   22      0.49      0.00
   10    0   22      1.77      0.00
   12    0   22     -1.58      0.00
   14    0   22      0.27      0.00
   16    0   22     -0.78      0.00
   18    0   22     -0.60      0.00
   20    0   22      1.43      0.00
  -21    1   22      0.30      0.00
  -20    1   22      0.37      0.00
  -19    1   22     -0.18      0.00
  -18    1   22     -0.81      0.00
  -17    1   22      0.18      0.00
  -16    1   22      0.69      0.00
  -15    1   22     -0.51      0.00
  -14    1   22     -0.56      0.00
  -13    1   22      0.17      0.00
  -12    1   22      0.18      0.00
  -11    1   22      0.55      0.00
  -10    1   22      0.39      0.00
   -9    1   22      0.08      0.00
   -8    1   22      0.11      0.00
   -7    1   22     -0.05      0.00
   -6    1   22      0.09      0.00
   -5    1   22      0.01      0.00
   -4    1   22      0.90      0.00
   -3    1   22     -1.83      0.00
   -2    1   22     -0.79      0.00
   -1    1   22      2.13      0.00
    0    1   22      0.44      0.00
    1    1   22     -2.40      0.00
    2    1   22     -1.20      0.00
    3    1   22      0.26      0.00
    4    1   22     -0.57      0.00
    5    1   22      0.05      0.00
    6    1   22      0.26      0.00
    7    1   22      0.38      0.00
    8    1   22      0.57      0.00
    9    1   22      0.25      0.00
   10    1   22     -0.08      0.00
   11    1   22      0.54      0.00
   12    1   22      0.18      0.00
   13    1   22     -0.64      0.00
   14    1   22      1.00      0.00
   15    1   22     -0.98      0.00
   16    1   22     -0.58      0.00
   17    1   22      0.59      0.00
   18    1   22      0.41      0.00
   19    1   22     -0.11      0.00
   20    1   22     -0.07      0.00
   21    1   22      0.61      0.00
  -21    2   22     -1.19      0.00
  -20    2   22      0.30      0.00
  -19    2   22      1.03      0.00
  -18    2   22     -0.56      0.00
  -17    2   22     -1.28      0.00
  -16    2   22     -0.16      0.00
  -15    2   22      0.05      0.00
  -14    2   22      0.19      0.00
  -13    2   22      0.02      0.00
  -12    2   22      0.78      0.00
  -11    2   22     -0.31      0.00
  -10    2   22     -0.76      0.00
   -9    2   22      1.15      0.00
   -8    2   22      1.01      0.00
   -7    2   22      0.10      0.00
   -6    2   22     -0.42      0.00
   -5    2   22      0.66      0.00
   -4    2   22      0.30      0.00
   -3    2   22      0.13      0.00
   -2    2   22     -0.24      0.00
   -1    2   22     -0.79      0.00
    0    2   22      0.30      0.00
    1    2   22     -0.07      0.00
    2    2   22     -0.87      0.00
    3    2   22     -1.59      0.00
    4    2   22     -0.05      0.00
    5    2   22     -0.22      0.00
    6    2   22      0.38      0.00
    7    2   22      0.58      0.00
    8    2   22     -0.33      0.00
    9    2   22      0.12      0.00
   10    2   22      0.71      0.00
   11    2   22      0.70      0.00
   12    2   22     -1.28      0.00
   13    2   22     -0.29      0.00
   14    2   22      0.69      0.00
   15    2   22      1.15      0.00
   16    2   22     -0.77      0.00
   17    2   22     -0.52      0.00
   18    2   22      1.32      0.00
   19    2   22     -0.42      0.00
   20    2   22     -0.05      0.00
  -21    3   22     -0.07      0.00
  -20    3   22     -0.31      0.00
  -19    3   22     -0.90      0.00
  -18    3   22      0.14      0.00
  -17    3   22      0.61      0.00
  -16    3   22     -1.04      0.00
  -15    3   22     -0.87      0.00
  -14    3   22     -0.33      0.00
  -13    3   22      0.58      0.00
  -12    3   22      0.01      0.00
  -11    3   22     -0.52      0.00
  -10    3   22     -0.08      0.00
   -9    3   22      0.49      0.00
   -8    3   22      0.99      0.00
   -7    3   22      0.10      0.00
   -6    3   22      0.40      0.00
   -5    3   22      0.63      0.00
   -4    3   22     -0.09      0.00
   -3    3   22     -0.13      0.00
   -2    3   22     -0.39      0.00
   -1    3   22      0.79      0.00
    0    3   22     -0.45      0.00
    1    3   22     -0.02      0.00
    2    3   22     -0.13      0.00
    3    3   22     -0.52      0.00
    4    3   22     -1.56      0.00
    5    3   22     -0.66      0.00
    6    3   22      0.68      0.00
    7    3   22      0.36      0.00
    8    3   22     -0.48      0.00
    9    3   22     -0.35      0.00
   10    3   22      0.14      0.00
   11    3   22      0.20      0.00
   12    3   22     -0.10      0.00
   13    3   22     -1.20      0.00
   14    3   22      1.01      0.00
   15    3   22      1.23      0.00
   16    3   22     -0.19      0.00
   17    3   22      0.79      0.00
   18    3   22     -0.66      0.00
   19    3   22     -0.47      0.00
   20    3   22     -0.79      0.00
  -20    4   22     -0.81      0.00
  -19    4   22      0.79      0.00
  -18    4   22      0.20      0.00
  -17    4   22     -0.20      0.00
  -16    4   22      0.10      0.00
  -15    4   22     -0.90      0.00
  -14    4   22     -1.13      0.00
  -13    4   22     -0.95      0.00
  -12    4   22      0.36      0.00
  -11    4   22      1.04      0.00
  -10    4   22     -0.40      0.00
   -9    4   22     -0.65      0.00
   -8    4   22      0.71      0.00
   -7    4   22     -0.12      0.00
   -6    4   22      0.12      0.00
   -5    4   22      0.73      0.00
   -4    4   22      0.06      0.00
   -3    4   22     -1.07      0.00
   -2    4   22      0.95      0.00
   -1    4   22      0.45      0.00
    0    4   22      0.33      0.00
    1    4   22     -0.53      0.00
    2    4   22      0.32      0.00
    3    4   22      0.04      0.00
    4    4   22     -1.32      0.00
    5    4   22     -0.57      0.00
    6    4   22     -0.23      0.00
    7    4   22     -0.07      0.00
    8    4   22     -0.40      0.00
    9    4   22     -1.41      0.00
   10    4   22      0.49      0.00
   11    4   22     -0.01      0.00
   12    4   22     -1.24      0.00
   13    4   22      0.35      0.00
   14    4   22      0.31      0.00
   15    4   22      0.87      0.00
   16    4   22      1.73      0.00
   17    4   22     -0.60      0.00
   18    4   22     -0.46      0.00
   19    4   22     -1.29      0.00
  -19    5   22     -0.34      0.00
  -18    5   22      1.50      0.00
  -17    5   22      0.19      0.00
  -16    5   22     -0.67      0.00
  -15    5   22     -0.54      0.00
  -14    5   22     -1.28      0.00
  -13    5   22      0.08      0.00
  -12    5   22      0.60      0.00
  -11    5   22     -0.15      0.00
  -10    5   22     -0.06      0.00
   -9    5   22      0.26      0.00
   -8    5   22     -0.69      0.00
   -7    5   22      0.11      0.00
   -6    5   22     -0.48      0.00
   -5    5   22      0.56      0.00
   -4    5   22     -0.13      0.00
   -3    5   22     -0.24      0.00
   -2    5   22      0.29      0.00
   -1    5   22      0.99      0.00
    0    5   22     -0.26      0.00
    1    5   22      0.51      0.00
    2    5   22      0.40      0.00
    3    5   22     -0.87      0.00
    4    5   22     -0.66      0.00
    5    5   22     -0.35      0.00
    6    5   22      1.09      0.00
    7    5   22     -0.24      0.00
    8    5   22     -2.17      0.00
    9    5   22     -0.96      0.00
   10    5   22     -0.42      0.00
   11    5   22     -0.26      0.00
   12    5   22     -0.04      0.00
   13    5   22     -0.10      0.00
   14    5   22      1.02      0.00
   15    5   22      0.37      0.00
   16    5   22     -0.62      0.00
   17    5   22      1.20      0.00
   18    5   22     -0.46      0.00
  -17    6   22      0.13      0.00
  -16    6   22     -0.32      0.00
  -15    6   22     -0.61      0.00
  -14    6   22      0.10      0.00
  -13    6   22     -0.17      0.00
  -12    6   22      0.62      0.00
  -11    6   22      0.39      0.00
  -10    6   22     -0.24      0.00
   -9    6   22      0.10      0.00
   -8    6   22      0.34      0.00
   -7    6   22     -0.67      0.00
   -6    6   22      0.35      0.00
   -5    6   22     -0.78      0.00
   -4    6   22      0.44      0.00
   -3    6   22      0.29      0.00
   -2    6   22      0.55      0.00
   -1    6   22      0.46      0.00
    0    6   22     -0.37      0.00
    1    6   22     -0.43      0.00
    2    6   22      0.47      0.00
    3    6   22      0.72      0.00
    4    6   22     -0.24      0.00
    5    6   22     -0.45      0.00
    6    6   22     -0.12      0.00
    7    6   22      0.51      0.00
    8    6   22     -1.49      0.00
    9    6   22     -0.88      0.00
   10    6   22     -0.05      0.00
   11    6   22     -0.39      0.00
   12    6   22     -0.74      0.00
   13    6   22      0.59      0.00
   14    6   22      0.60      0.00
   15    6   22     -0.21      0.00
   16    6   22      0.00      0.00
   17    6   22     -0.79      0.00
  -17    7   22     -0.07      0.00
  -16    7   22      0.24      0.00
  -15    7   22     -0.26      0.00
  -14    7   22     -0.24      0.00
  -13    7   22      0.62      0.00
  -12    7   22      0.23      0.00
  -11    7   22      0.13      0.00
  -10    7   22      0.76      0.00
   -9    7   22      0.29      0.00
   -8    7   22     -0.20      0.00
   -7    7   22      0.49      0.00
   -6    7   22     -0.48      0.00
   -5    7   22      0.91      0.00
   -4    7   22     -0.55      0.00
   -3    7   22      0.20      0.00
   -2    7   22      0.40      0.00
   -1    7   22      0.19      0.00
    0    7   22      0.36      0.00
    1    7   22      0.11      0.00
    2    7   22      0.14      0.00
    3    7   22      0.17      0.00
    4    7   22     -0.28      0.00
    5    7   22     -0.39      0.00
    6    7   22      0.20      0.00
    7    7   22      0.30      0.00
    8    7   22      0.38      0.00
    9    7   22     -1.62      0.00
   10    7   22      0.42      0.00
   11    7   22     -0.31      0.00
   12    7   22     -1.05      0.00
   13    7   22      0.57      0.00
   14    7   22      1.52      0.00
   15    7   22     -0.76      0.00
   16    7   22     -1.71      0.00
  -15    8   22      1.40      0.00
  -14    8   22     -1.03      0.00
  -13    8   22     -0.99      0.00
  -12    8   22      1.14      0.00
  -11    8   22      0.94      0.00
  -10    8   22      0.54      0.00
   -9    8   22      0.39      0.00
   -8    8   22     -0.12      0.00
   -7    8   22     -0.74      0.00
   -6    8   22      1.32      0.00
   -5    8   22     -0.21      0.00
   -4    8   22      0.28      0.00
   -3    8   22     -0.21      0.00
   -2    8   22      0.02      0.00
   -1    8   22      0.71      0.00
    0    8   22      0.57      0.00
    1    8   22     -0.28      0.00
    2    8   22      0.30      0.00
    3    8   22      0.03      0.00
    4    8   22     -0.12      0.00
    5    8   22      0.10      0.00
    6    8   22      0.03      0.00
    7    8   22     -0.39      0.00
    8    8   22     -0.19      0.00
    9    8   22      0.85      0.00
   10    8   22     -0.74      0.00
   11    8   22      0.07      0.00
   12    8   22     -0.43      0.00
   13    8   22      0.54      0.00
   14    8   22     -0.63      0.00
  -13    9   22      0.45      0.00
  -12    9   22     -0.89      0.00
  -11    9   22      0.40      0.00
  -10    9   22      1.10      0.00
   -9    9   22      0.79      0.00
   -8    9   22     -1.21      0.00
   -7    9   22      0.11      0.00
   -6    9   22      0.58      0.00
   -5    9   22      0.54      0.00
   -4    9   22     -1.06      0.00
   -3    9   22     -0.12      0.00
   -2    9   22      0.78      0.00
   -1    9   22      0.20      0.00
    0    9   22     -0.74      0.00
    1    9   22      0.88      0.00
    2    9   22      0.25      0.00
    3    9   22     -0.21      0.00
    4    9   22      0.30      0.00
    5    9   22      0.05      0.00
    6    9   22     -0.64      0.00
    7    9   22      0.41      0.00
    8    9   22      0.37      0.00
    9    9   22     -0.66      0.00
   10    9   22      0.01      0.00
   11    9   22     -1.01      0.00
   12    9   22      1.22      0.00
   -9   10   22     -0.45      0.00
   -8   10   22      0.47      0.00
   -7   10   22     -0.05      0.00
   -6   10   22     -0.16      0.00
   -5   10   22      0.07      0.00
   -4   10   22      0.36      0.00
   -3   10   22     -0.69      0.00
   -2   10   22     -0.92      0.00
   -1   10   22     -0.61      0.00
    0   10   22      0.87      0.00
    1   10   22      0.19      0.00
    2   10   22     -0.25      0.00
    3   10   22     -0.29      0.00
    4   10   22     -0.03      0.00
    5   10   22      1.33      0.00
    6   10   22      0.14      0.00
    7   10   22     -1.11      0.00
    8   10   22     -0.10      0.00
   -3   11   22     -0.65      0.00
   -2   11   22     -0.13      0.00
   -1   11   22     -0.08      0.00
    2   11   22     -0.17      0.00
  -21    0   23      1.48      0.00
  -19    0   23     -0.66      0.00
  -17    0   23      0.68      0.00
  -15    0   23     -0.95      0.00
  -13    0   23      0.00      0.00
  -11    0   23      0.76      0.00
   -9    0   23     -0.45      0.00
   -7    0   23      0.76      0.00
   -5    0   23     -0.91      0.00
   -3    0   23     -1.77      0.00
   -1    0   23      2.21      0.00
    1    0   23     -2.87      0.00
    3    0   23      0.46      0.00
    5    0   23     -0.29      0.00
    7    0   23      0.22      0.00
    9    0   23      0.74      0.00
   11    0   23      0.32      0.00
   13    0   23     -0.65      0.00
   15    0   23     -1.05      0.00
   17    0   23      0.84      0.00
   19    0   23     -0.68      0.00
  -21    1   23     -1.25      0.00
  -20    1   23      1.27      0.00
  -19    1   23      0.88      0.00
  -18    1   23     -0.72      0.00
  -17    1   23     -0.58      0.00
  -16    1   23     -0.07      0.00
  -15    1   23      0.15      0.00
  -14    1   23     -0.18      0.00
  -13    1   23      0.11      0.00
  -12    1   23      0.74      0.00
  -11    1   23     -0.09      0.00
  -10    1   23     -0.47      0.00
   -9    1   23      0.53      0.00
   -8    1   23      0.89      0.00
   -7    1   23      0.24      0.00
   -6    1   23     -0.54      0.00
   -5    1   23      0.34      0.00
   -4    1   23     -0.61      0.00
   -3    1   23      0.36      0.00
   -2    1   23     -0.03      0.00
   -1    1   23     -0.45      0.00
    0    1   23     -0.43      0.00
    1    1   23     -0.24      0.00
    2    1   23     -0.94      0.00
    3    1   23     -1.09      0.00
    4    1   23      0.38      0.00
    5    1   23      0.41      0.00
    6    1   23     -0.53      0.00
    7    1   23     -0.02      0.00
    8    1   23      0.54      0.00
    9    1   23      0.53      0.00
   10    1   23      1.15      0.00
   11    1   23      0.07      0.00
   12    1   23     -2.03      0.00
   13    1   23      0.09      0.00
   14    1   23      1.01      0.00
   15    1   23      1.10      0.00
   16    1   23     -1.26      0.00
   17    1   23     -0.76      0.00
   18    1   23      0.90      0.00
   19    1   23      0.07      0.00
   20    1   23      0.08      0.00
  -21    2   23     -0.15      0.00
  -20    2   23      0.34      0.00
  -19    2   23     -0.48      0.00
  -18    2   23     -0.77      0.00
  -17    2   23      0.36      0.00
  -16    2   23      0.01      0.00
  -15    2   23     -0.59      0.00
  -14    2   23     -0.24      0.00
  -13    2   23      0.77      0.00
  -12    2   23     -0.05      0.00
  -11    2   23     -0.02      0.00
  -10    2   23      0.19      0.00
   -9    2   23      0.08      0.00
   -8    2   23      1.05      0.00
   -7    2   23      0.24      0.00
   -6    2   23      0.62      0.00
   -5    2   23      0.35      0.00
   -4    2   23      0.01      0.00
   -3    2   23     -0.53      0.00
   -2    2   23     -0.12      0.00
   -1    2   23      0.20      0.00
    0    2   23     -0.19      0.00
    1    2   23     -0.62      0.00
    2    2   23     -1.41      0.00
    3    2   23     -0.04      0.00
    4    2   23     -0.36      0.00
    5    2   23     -0.23      0.00
    6    2   23      0.34      0.00
    7    2   23      0.10      0.00
    8    2   23      0.31      0.00
    9    2   23      0.01      0.00
   10    2   23      0.49      0.00
   11    2   23     -0.16      0.00
   12    2   23     -0.44      0.00
   13    2   23     -0.92      0.00
   14    2   23      1.82      0.00
   15    2   23      0.07      0.00
   16    2   23     -0.95      0.00
   17    2   23      1.14      0.00
   18    2   23     -0.15      0.00
   19    2   23     -0.20      0.00
   20    2   23      0.16      0.00
  -20    3   23     -0.14      0.00
  -19    3   23      0.74      0.00
  -18    3   23     -0.65      0.00
  -17    3   23     -1.37      0.00
  -16    3   23      0.60      0.00
  -15    3   23      0.06      0.00
  -14    3   23     -0.71      0.00
  -13    3   23     -0.87      0.00
  -12    3   23      0.69      0.00
  -11    3   23      0.29      0.00
  -10    3   23     -0.71      0.00
   -9    3   23      0.54      0.00
   -8    3   23      0.61      0.00
   -7    3   23      0.77      0.00
   -6    3   23      0.46      0.00
   -5    3   23      0.12      0.00
   -4    3   23      0.25      0.00
   -3    3   23     -0.17      0.00
   -2    3   23     -0.13      0.00
   -1    3   23     -0.15      0.00
    0    3   23      0.72      0.00
    1    3   23     -0.76      0.00
    2    3   23     -0.56      0.00
    3    3   23     -0.64      0.00
    4    3   23     -0.30      0.00
    5    3   23      0.21      0.00
    6    3   23     -0.30      0.00
    7    3   23     -0.12      0.00
    8    3   23     -0.37      0.00
    9    3   23     -0.40      0.00
   10    3   23      0.45      0.00
   11    3   23      0.82      0.00
   12    3   23     -1.37      0.00
   13    3   23     -0.83      0.00
   14    3   23      0.23      0.00
   15    3   23      1.82      0.00
   16    3   23      1.43      0.00
   17    3   23     -1.23      0.00
   18    3   23      0.01      0.00
   19    3   23     -0.38      0.00
  -19    4   23     -0.42      0.00
  -18    4   23      0.70      0.00
  -17    4   23      0.27      0.00
  -16    4   23     -0.85      0.00
  -15    4   23     -0.53      0.00
  -14    4   23     -0.98      0.00
  -13    4   23      0.18      0.00
  -12    4   23      0.06      0.00
  -11    4   23     -0.69      0.00
  -10    4   23      0.11      0.00
   -9    4   23      0.46      0.00
   -8    4   23      0.05      0.00
   -7    4   23      0.13      0.00
   -6    4   23     -0.25      0.00
   -5    4   23      0.95      0.00
   -4    4   23      0.31      0.00
   -3    4   23     -0.78      0.00
   -2    4   23     -0.26      0.00
   -1    4   23      1.36      0.00
    0    4   23     -0.30      0.00
    1    4   23      0.46      0.00
    2    4   23      0.07      0.00
    3    4   23     -1.33      0.00
    4    4   23     -0.60      0.00
    5    4   23     -0.04      0.00
    6    4   23      0.95      0.00
    7    4   23     -0.18      0.00
    8    4   23     -1.70      0.00
    9    4   23     -1.09      0.00
   10    4   23     -0.52      0.00
   11    4   23      0.75      0.00
   12    4   23      0.40      0.00
   13    4   23     -1.65      0.00
   14    4   23      0.26      0.00
   15    4   23      1.88      0.00
   16    4   23      0.65      0.00
   17    4   23      0.94      0.00
   18    4   23     -1.03      0.00
  -18    5   23      0.32      0.00
  -17    5   23      0.38      0.00
  -16    5   23     -0.42      0.00
  -15    5   23     -1.36      0.00
  -14    5   23      0.19      0.00
  -13    5   23     -0.45      0.00
  -12    5   23     -0.27      0.00
  -11    5   23      0.79      0.00
  -10    5   23      0.15      0.00
   -9    5   23     -0.44      0.00
   -8    5   23      0.20      0.00
   -7    5   23     -1.37      0.00
   -6    5   23      0.37      0.00
   -5    5   23      0.89      0.00
   -4    5   23      0.12      0.00
   -3    5   23     -0.40      0.00
   -2    5   23      0.50      0.00
   -1    5   23      0.15      0.00
    0    5   23      0.20      0.00
    1    5   23     -0.21      0.00
    2    5   23      0.25      0.00
    3    5   23      0.78      0.00
    4    5   23     -0.95      0.00
    5    5   23     -0.69      0.00
    6    5   23      0.47      0.00
    7    5   23      0.57      0.00
    8    5   23     -1.68      0.00
    9    5   23     -1.84      0.00
   10    5   23      0.03      0.00
   11    5   23     -0.44      0.00
   12    5   23     -0.59      0.00
   13    5   23      0.73      0.00
   14    5   23      0.25      0.00
   15    5   23      0.46      0.00
   16    5   23      1.26      0.00
   17    5   23     -0.61      0.00
   18    5   23     -0.50      0.00
  -18    6   23      1.11      0.00
  -17    6   23      0.10      0.00
  -16    6   23     -0.40      0.00
  -15    6   23     -0.47      0.00
  -14    6   23     -1.21      0.00
  -13    6   23      0.96      0.00
  -12    6   23      1.02      0.00
  -11    6   23     -0.22      0.00
  -10    6   23     -0.07      0.00
   -9    6   23      0.32      0.00
   -8    6   23     -0.31      0.00
   -7    6   23      0.16      0.00
   -6    6   23     -0.71      0.00
   -5    6   23      0.96      0.00
   -4    6   23      0.24      0.00
   -3    6   23     -0.34      0.00
   -2    6   23      0.21      0.00
   -1    6   23      0.55      0.00
    0    6   23     -0.09      0.00
    1    6   23     -0.17      0.00
    2    6   23      0.70      0.00
    3    6   23     -0.03      0.00
    4    6   23     -0.57      0.00
    5    6   23     -0.11      0.00
    6    6   23      0.83      0.00
    7    6   23     -0.14      0.00
    8    6   23     -0.73      0.00
    9    6   23     -1.96      0.00
   10    6   23      0.00      0.00
   11    6   23     -0.21      0.00
   12    6   23     -0.84      0.00
   13    6   23      0.67      0.00
   14    6   23      1.45      0.00
   15    6   23     -0.21      0.00
   16    6   23     -1.57      0.00
  -16    7   23     -0.22      0.00
  -15    7   23      0.28      0.00
  -14    7   23     -0.31      0.00
  -13    7   23     -0.54      0.00
  -12    7   23      0.96      0.00
  -11    7   23      0.78      0.00
  -10    7   23      0.32      0.00
   -9    7   23      0.43      0.00
   -8    7   23      0.02      0.00
   -7    7   23     -0.15      0.00
   -6    7   23      1.00      0.00
   -5    7   23     -0.82      0.00
   -4    7   23      0.24      0.00
   -3    7   23      0.35      0.00
   -2    7   23      0.61      0.00
   -1    7   23      0.79      0.00
    0    7   23     -0.64      0.00
    1    7   23     -0.40      0.00
    2    7   23      0.60      0.00
    3    7   23      0.39      0.00
    4    7   23     -0.01      0.00
    5    7   23     -0.17      0.00
    6    7   23     -0.35      0.00
    7    7   23      0.15      0.00
    8    7   23     -0.83      0.00
    9    7   23      0.61      0.00
   10    7   23     -0.65      0.00
   11    7   23     -0.20      0.00
   12    7   23     -0.36      0.00
   13    7   23      0.21      0.00
   14    7   23      0.46      0.00
   15    7   23     -0.36      0.00
  -14    8   23     -0.18      0.00
  -13    8   23      0.00      0.00
  -12    8   23      0.00      0.00
  -11    8   23      0.64      0.00
  -10    8   23      1.04      0.00
   -9    8   23      0.92      0.00
   -8    8   23     -0.36      0.00
   -7    8   23      0.08      0.00
   -6    8   23     -0.03      0.00
   -5    8   23      0.45      0.00
   -4    8   23     -0.39      0.00
   -3    8   23      0.50      0.00
   -2    8   23      0.38      0.00
   -1    8   23      0.10      0.00
    0    8   23      0.71      0.00
    1    8   23      0.77      0.00
    2    8   23     -0.63      0.00
    3    8   23     -0.48      0.00
    4    8   23      0.19      0.00
    5    8   23      0.10      0.00
    6    8   23     -0.19      0.00
    7    8   23      0.35      0.00
    8    8   23      0.23      0.00
    9    8   23     -1.21      0.00
   10    8   23      0.66      0.00
   11    8   23     -0.51      0.00
   12    8   23      0.18      0.00
   13    8   23      0.26      0.00
  -11    9   23      0.60      0.00
  -10    9   23      0.47      0.00
   -9    9   23     -0.07      0.00
   -8    9   23      0.39      0.00
   -7    9   23     -0.35      0.00
   -6    9   23     -0.11      0.00
   -5    9   23      0.20      0.00
   -4    9   23      0.46      0.00
   -3    9   23     -0.26      0.00
   -2    9   23     -0.36      0.00
   -1    9   23      0.25      0.00
    0    9   23      1.33      0.00
    1    9   23     -0.25      0.00
    2    9   23     -0.17      0.00
    3    9   23     -0.42      0.00
    4    9   23     -0.14      0.00
    5    9   23      1.14      0.00
    6    9   23      0.50      0.00
    7    9   23     -1.53      0.00
    8    9   23     -0.18      0.00
    9    9   23      0.82      0.00
   10    9   23     -1.14      0.00
   11    9   23      0.73      0.00
   -8   10   23     -0.30      0.00
   -7   10   23     -0.23      0.00
   -6   10   23      0.98      0.00
   -5   10   23      0.07      0.00
   -4   10   23     -1.41      0.00
   -3   10   23     -0.28      0.00
   -2   10   23      0.66      0.00
   -1   10   23      0.11      0.00
    0   10   23     -1.08      0.00
    1   10   23      0.68      0.00
    2   10   23      0.14      0.00
    3   10   23     -0.48      0.00
    4   10   23      0.73      0.00
    5   10   23      0.30      0.00
    6   10   23     -0.42      0.00
    7   10   23     -0.23      0.00
  -20    0   24      1.88      0.00
  -18    0   24     -0.53      0.00
  -16    0   24     -0.53      0.00
  -14    0   24      0.09      0.00
  -12    0   24      0.33      0.00
  -10    0   24     -0.22      0.00
   -8    0   24      0.63      0.00
   -6    0   24     -0.26      0.00
   -4    0   24     -1.28      0.00
   -2    0   24      0.11      0.00
    0    0   24     -0.71      0.00
    2    0   24     -0.79      0.00
    4    0   24      0.08      0.00
    6    0   24     -0.68      0.00
    8    0   24      0.89      0.00
   10    0   24      1.39      0.00
   12    0   24     -2.45      0.00
   14    0   24      1.04      0.00
   16    0   24     -0.59      0.00
   18    0   24     -0.07      0.00
  -21    1   24      0.99      0.00
  -20    1   24     -0.14      0.00
  -19    1   24     -0.47      0.00
  -18    1   24     -0.16      0.00
  -17    1   24      0.52      0.00
  -16    1   24      0.42      0.00
  -15    1   24     -0.83      0.00
  -14    1   24     -0.32      0.00
  -13    1   24      0.50      0.00
  -12    1   24      0.28      0.00
  -11    1   24      0.45      0.00
  -10    1   24      0.23      0.00
   -9    1   24     -0.47      0.00
   -8    1   24      0.18      0.00
   -7    1   24      0.98      0.00
   -6    1   24      0.89      0.00
   -5    1   24     -0.66      0.00
   -4    1   24     -0.01      0.00
   -3    1   24     -1.36      0.00
   -2    1   24      0.00      0.00
   -1    1   24      1.13      0.00
    0    1   24     -0.19      0.00
    1    1   24     -2.02      0.00
    2    1   24     -0.98      0.00
    3    1   24      0.37      0.00
    4    1   24     -0.07      0.00
    5    1   24     -0.19      0.00
    6    1   24      0.45      0.00
    7    1   24      0.00      0.00
    8    1   24      0.04      0.00
    9    1   24      0.56      0.00
   10    1   24      0.23      0.00
   11    1   24     -0.07      0.00
   12    1   24      0.12      0.00
   13    1   24     -0.99      0.00
   14    1   24      0.82      0.00
   15    1   24     -0.52      0.00
   16    1   24      0.01      0.00
   17    1   24      1.24      0.00
   18    1   24     -0.57      0.00
   19    1   24     -0.61      0.00
  -20    2   24      0.73      0.00
  -19    2   24      0.70      0.00
  -18    2   24     -1.38      0.00
  -17    2   24     -1.05      0.00
  -16    2   24      0.92      0.00
  -15    2   24      0.27      0.00
  -14    2   24     -0.43      0.00
  -13    2   24     -0.21      0.00
  -12    2   24      0.74      0.00
  -11    2   24     -0.03      0.00
  -10    2   24     -0.45      0.00
   -9    2   24      0.75      0.00
   -8    2   24      0.57      0.00
   -7    2   24      1.08      0.00
   -6    2   24      0.25      0.00
   -5    2   24      0.24      0.00
   -4    2   24     -0.03      0.00
   -3    2   24      0.16      0.00
   -2    2   24     -0.74      0.00
   -1    2   24     -0.39      0.00
    0    2   24      0.20      0.00
    1    2   24     -0.59      0.00
    2    2   24     -0.76      0.00
    3    2   24     -1.38      0.00
    4    2   24      0.37      0.00
    5    2   24      1.07      0.00
    6    2   24     -0.47      0.00
    7    2   24     -0.18      0.00
    8    2   24     -0.05      0.00
    9    2   24      0.24      0.00
   10    2   24      0.63      0.00
   11    2   24      0.86      0.00
   12    2   24     -2.09      0.00
   13    2   24     -0.59      0.00
   14    2   24      0.98      0.00
   15    2   24      1.86      0.00
   16    2   24     -0.59      0.00
   17    2   24     -1.41      0.00
   18    2   24      1.73      0.00
   19    2   24     -0.02      0.00
  -20    3   24      0.71      0.00
  -19    3   24     -0.27      0.00
  -18    3   24     -0.67      0.00
  -17    3   24     -0.01      0.00
  -16    3   24     -0.89      0.00
  -15    3   24     -0.05      0.00
  -14    3   24      0.06      0.00
  -13    3   24      0.44      0.00
  -12    3   24     -0.54      0.00
  -11    3   24     -0.75      0.00
  -10    3   24      0.03      0.00
   -9    3   24      0.53      0.00
   -8    3   24      1.45      0.00
   -7    3   24     -0.02      0.00
   -6    3   24      0.19      0.00
   -5    3   24      0.99      0.00
   -4    3   24      0.07      0.00
   -3    3   24     -0.39      0.00
   -2    3   24     -0.35      0.00
   -1    3   24     -0.09      0.00
    0    3   24      0.15      0.00
    1    3   24      0.77      0.00
    2    3   24     -1.38      0.00
    3    3   24     -1.03      0.00
    4    3   24     -0.02      0.00
    5    3   24     -0.12      0.00
    6    3   24      0.83      0.00
    7    3   24      0.01      0.00
    8    3   24     -0.46      0.00
    9    3   24     -0.83      0.00
   10    3   24     -0.20      0.00
   11    3   24      0.41      0.00
   12    3   24      0.33      0.00
   13    3   24     -1.72      0.00
   14    3   24      0.82      0.00
   15    3   24      1.54      0.00
   16    3   24     -0.18      0.00
   17    3   24      1.04      0.00
   18    3   24     -0.60      0.00
  -19    4   24      1.14      0.00
  -18    4   24      0.00      0.00
  -17    4   24     -0.74      0.00
  -16    4   24      0.15      0.00
  -15    4   24     -0.90      0.00
  -14    4   24     -0.19      0.00
  -13    4   24     -0.52      0.00
  -12    4   24     -0.17      0.00
  -11    4   24      0.26      0.00
  -10    4   24     -0.22      0.00
   -9    4   24      0.04      0.00
   -8    4   24      0.01      0.00
   -7    4   24     -0.36      0.00
   -6    4   24      0.85      0.00
   -5    4   24      0.60      0.00
   -4    4   24     -0.01      0.00
   -3    4   24     -0.11      0.00
   -2    4   24      0.36      0.00
   -1    4   24     -0.23      0.00
    0    4   24      0.38      0.00
    1    4   24     -0.37      0.00
    2    4   24      0.16      0.00
    3    4   24      0.34      0.00
    4    4   24     -1.11      0.00
    5    4   24     -0.26      0.00
    6    4   24      0.13      0.00
    7    4   24      0.43      0.00
    8    4   24     -0.73      0.00
    9    4   24     -1.50      0.00
   10    4   24     -0.25      0.00
   11    4   24      0.02      0.00
   12    4   24     -0.62      0.00
   13    4   24     -0.04      0.00
   14    4   24      0.00      0.00
   15    4   24      1.34      0.00
   16    4   24      2.16      0.00
   17    4   24     -0.77      0.00
   18    4   24     -0.91      0.00
  -18    5   24      1.42      0.00
  -17    5   24      0.37      0.00
  -16    5   24     -0.50      0.00
  -15    5   24     -0.65      0.00
  -14    5   24     -1.84      0.00
  -13    5   24      0.82      0.00
  -12    5   24      1.06      0.00
  -11    5   24     -0.49      0.00
  -10    5   24     -0.23      0.00
   -9    5   24     -0.01      0.00
   -8    5   24     -0.76      0.00
   -7    5   24      0.26      0.00
   -6    5   24     -0.55      0.00
   -5    5   24      1.05      0.00
   -4    5   24      0.90      0.00
   -3    5   24     -0.82      0.00
   -2    5   24      0.03      0.00
   -1    5   24      1.09      0.00
    0    5   24     -0.81      0.00
    1    5   24     -0.05      0.00
    2    5   24      0.99      0.00
    3    5   24     -0.68      0.00
    4    5   24     -0.09      0.00
    5    5   24      0.09      0.00
    6    5   24      0.38      0.00
    7    5   24     -0.20      0.00
    8    5   24     -1.17      0.00
    9    5   24     -1.63      0.00
   10    5   24     -0.47      0.00
   11    5   24     -0.13      0.00
   12    5   24     -0.41      0.00
   13    5   24      0.05      0.00
   14    5   24      0.79      0.00
   15    5   24      0.64      0.00
   16    5   24      0.23      0.00
   17    5   24      0.91      0.00
  -17    6   24      0.34      0.00
  -16    6   24     -0.21      0.00
  -15    6   24     -0.67      0.00
  -14    6   24      0.30      0.00
  -13    6   24     -0.72      0.00
  -12    6   24      0.28      0.00
  -11    6   24      1.06      0.00
  -10    6   24      0.40      0.00
   -9    6   24     -0.27      0.00
   -8    6   24     -0.10      0.00
   -7    6   24     -0.81      0.00
   -6    6   24      0.62      0.00
   -5    6   24      0.23      0.00
   -4    6   24      0.67      0.00
   -3    6   24      0.43      0.00
   -2    6   24     -0.18      0.00
   -1    6   24      0.18      0.00
    0    6   24     -0.21      0.00
    1    6   24     -0.51      0.00
    2    6   24      0.26      0.00
    3    6   24      1.32      0.00
    4    6   24     -0.24      0.00
    5    6   24     -0.61      0.00
    6    6   24      0.18      0.00
    7    6   24      0.12      0.00
    8    6   24     -1.57      0.00
    9    6   24      0.04      0.00
   10    6   24     -0.79      0.00
   11    6   24     -0.58      0.00
   12    6   24     -0.01      0.00
   13    6   24      0.19      0.00
   14    6   24      0.31      0.00
   15    6   24      0.17      0.00
   16    6   24      0.51      0.00
  -15    7   24     -0.19      0.00
  -14    7   24     -0.77      0.00
  -13    7   24      0.70      0.00
  -12    7   24      0.57      0.00
  -11    7   24     -0.06      0.00
  -10    7   24      0.42      0.00
   -9    7   24      1.10      0.00
   -8    7   24      0.33      0.00
   -7    7   24     -0.21      0.00
   -6    7   24     -0.46      0.00
   -5    7   24      1.19      0.00
   -4    7   24      0.06      0.00
   -3    7   24     -0.39      0.00
   -2    7   24      0.40      0.00
   -1    7   24      0.55      0.00
    0    7   24      0.66      0.00
    1    7   24     -0.07      0.00
    2    7   24     -0.25      0.00
    3    7   24     -0.33      0.00
    4    7   24     -0.08      0.00
    5    7   24      0.21      0.00
    6    7   24      0.37      0.00
    7    7   24      0.00      0.00
    8    7   24     -0.06      0.00
    9    7   24     -2.15      0.00
   10    7   24      0.88      0.00
   11    7   24      0.21      0.00
   12    7   24     -0.52      0.00
   13    7   24      0.36      0.00
   14    7   24      0.38      0.00
  -14    8   24     -0.60      0.00
  -13    8   24     -0.60      0.00
  -12    8   24      1.06      0.00
  -11    8   24      0.68      0.00
  -10    8   24      0.53      0.00
   -9    8   24      0.58      0.00
   -8    8   24      0.50      0.00
   -7    8   24     -0.12      0.00
   -6    8   24      0.32      0.00
   -5    8   24     -0.25      0.00
   -4    8   24     -0.05      0.00
   -3    8   24      0.13      0.00
   -2    8   24      0.56      0.00
   -1    8   24      1.04      0.00
    0    8   24      0.58      0.00
    1    8   24     -0.33      0.00
    2    8   24     -0.12      0.00
    3    8   24     -0.34      0.00
    4    8   24     -0.23      0.00
    5    8   24      0.46      0.00
    6    8   24      0.38      0.00
    7    8   24     -0.59      0.00
    8    8   24     -0.66      0.00
    9    8   24      0.89      0.00
   10    8   24     -0.72      0.00
   11    8   24      0.29      0.00
   12    8   24     -0.30      0.00
  -11    9   24      0.89      0.00
  -10    9   24      0.73      0.00
   -9    9   24      1.02      0.00
   -8    9   24     -0.56      0.00
   -7    9   24     -0.33      0.00
   -6    9   24      0.56      0.00
   -5    9   24     -0.29      0.00
   -4    9   24     -0.34      0.00
   -3    9   24      0.32      0.00
   -2    9   24      0.40      0.00
   -1    9   24      0.48      0.00
    0    9   24      0.01      0.00
    1    9   24      1.06      0.00
    2    9   24     -0.44      0.00
    3    9   24     -0.99      0.00
    4    9   24      0.24      0.00
    5    9   24      0.77      0.00
    6    9   24     -0.10      0.00
    7    9   24     -0.09      0.00
    8    9   24     -0.32      0.00
    9    9   24     -0.42      0.00
   10    9   24      0.65      0.00
   -7   10   24      0.30      0.00
   -6   10   24     -0.43      0.00
   -5   10   24      0.23      0.00
   -4   10   24     -0.03      0.00
   -3   10   24     -0.30      0.00
   -2   10   24     -0.11      0.00
   -1   10   24     -0.16      0.00
    0   10   24      0.68      0.00
    1   10   24     -0.53      0.00
    2   10   24      0.23      0.00
    3   10   24      0.10      0.00
    4   10   24     -0.36      0.00
    5   10   24      0.94      0.00
  -19    0   25     -0.43      0.00
  -17    0   25      1.00      0.00
  -15    0   25     -1.35      0.00
  -13    0   25      0.47      0.00
  -11    0   25      0.62      0.00
   -9    0   25     -0.56      0.00
   -7    0   25      0.94      0.00
   -5    0   25     -0.88      0.00
   -3    0   25     -1.54      0.00
   -1    0   25      1.07      0.00
    1    0   25     -2.12      0.00
    3    0   25      0.32      0.00
    5    0   25     -0.37      0.00
    7    0   25      0.41      0.00
    9    0   25      0.37      0.00
   11    0   25      0.44      0.00
   13    0   25     -1.38      0.00
   15    0   25     -0.62      0.00
   17    0   25      2.01      0.00
   19    0   25     -1.71      0.00
  -20    1   25      1.33      0.00
  -19    1   25     -0.48      0.00
  -18    1   25     -0.76      0.00
  -17    1   25      0.34      0.00
  -16    1   25      0.13      0.00
  -15    1   25      0.08      0.00
  -14    1   25     -0.15      0.00
  -13    1   25      0.11      0.00
  -12    1   25      0.44      0.00
  -11    1   25      0.05      0.00
  -10    1   25      0.06      0.00
   -9    1   25      0.37      0.00
   -8    1   25      0.25      0.00
   -7    1   25      0.73      0.00
   -6    1   25      0.17      0.00
   -5    1   25      0.23      0.00
   -4    1   25     -0.61      0.00
   -3    1   25      0.39      0.00
   -2    1   25     -1.04      0.00
   -1    1   25     -0.48      0.00
    0    1   25     -0.14      0.00
    1    1   25     -0.53      0.00
    2    1   25     -0.53      0.00
    3    1   25     -0.59      0.00
    4    1   25     -0.28      0.00
    5    1   25      0.83      0.00
    6    1   25     -0.02      0.00
    7    1   25     -0.26      0.00
    8    1   25      0.39      0.00
    9    1   25      0.33      0.00
   10    1   25      0.80      0.00
   11    1   25      0.12      0.00
   12    1   25     -2.12      0.00
   13    1   25      0.51      0.00
   14    1   25      0.71      0.00
   15    1   25      0.56      0.00
   16    1   25     -0.46      0.00
   17    1   25     -0.45      0.00
   18    1   25      0.97      0.00
  -20    2   25      0.46      0.00
  -19    2   25     -0.05      0.00
  -18    2   25     -0.97      0.00
  -17    2   25     -0.17      0.00
  -16    2   25      0.07      0.00
  -15    2   25     -0.10      0.00
  -14    2   25      0.22      0.00
  -13    2   25      0.66      0.00
  -12    2   25     -0.42      0.00
  -11    2   25     -0.27      0.00
  -10    2   25      0.32      0.00
   -9    2   25      0.17      0.00
   -8    2   25      1.31      0.00
   -7    2   25      0.41      0.00
   -6    2   25      0.66      0.00
   -5    2   25      0.65      0.00
   -4    2   25      0.27      0.00
   -3    2   25     -1.43      0.00
   -2    2   25     -0.23      0.00
   -1    2   25      0.22      0.00
    0    2   25     -0.39      0.00
    1    2   25     -0.41      0.00
    2    2   25     -1.10      0.00
    3    2   25     -0.18      0.00
    4    2   25     -0.15      0.00
    5    2   25     -0.22      0.00
    6    2   25      0.99      0.00
    7    2   25      0.28      0.00
    8    2   25      0.04      0.00
    9    2   25     -0.44      0.00
   10    2   25     -0.04      0.00
   11    2   25     -0.11      0.00
   12    2   25      0.53      0.00
   13    2   25     -1.20      0.00
   14    2   25      1.22      0.00
   15    2   25      0.23      0.00
   16    2   25     -0.76      0.00
   17    2   25      1.25      0.00
   18    2   25     -0.15      0.00
  -19    3   25      0.97      0.00
  -18    3   25     -0.89      0.00
  -17    3   25     -1.46      0.00
  -16    3   25      0.80      0.00
  -15    3   25     -0.28      0.00
  -14    3   25     -0.17      0.00
  -13    3   25     -0.33      0.00
  -12    3   25      0.16      0.00
  -11    3   25     -0.12      0.00
  -10    3   25     -0.62      0.00
   -9    3   25      0.64      0.00
   -8    3   25      0.37      0.00
   -7    3   25      1.09      0.00
   -6    3   25      0.93      0.00
   -5    3   25     -0.16      0.00
   -4    3   25     -0.44      0.00
   -3    3   25      0.83      0.00
   -2    3   25      0.30      0.00
   -1    3   25     -1.21      0.00
    0    3   25     -0.15      0.00
    1    3   25      0.03      0.00
    2    3   25     -0.02      0.00
    3    3   25     -0.71      0.00
    4    3   25     -0.28      0.00
    5    3   25      0.38      0.00
    6    3   25     -0.50      0.00
    7    3   25      0.45      0.00
    8    3   25     -0.20      0.00
    9    3   25     -0.20      0.00
   10    3   25      0.06      0.00
   11    3   25      0.08      0.00
   12    3   25     -1.67      0.00
   13    3   25     -0.07      0.00
   14    3   25      0.97      0.00
   15    3   25      1.56      0.00
   16    3   25      0.57      0.00
   17    3   25     -1.24      0.00
   18    3   25      0.59      0.00
  -18    4   25      0.39      0.00
  -17    4   25      0.12      0.00
  -16    4   25     -0.80      0.00
  -15    4   25      0.12      0.00
  -14    4   25     -1.37      0.00
  -13    4   25      0.26      0.00
  -12    4   25      0.66      0.00
  -11    4   25     -0.76      0.00
  -10    4   25     -0.62      0.00
   -9    4   25     -0.07      0.00
   -8    4   25      0.47      0.00
   -7    4   25      0.43      0.00
   -6    4   25     -0.22      0.00
   -5    4   25      0.45      0.00
   -4    4   25      0.63      0.00
   -3    4   25      0.11      0.00
   -2    4   25     -0.12      0.00
   -1    4   25      0.49      0.00
    0    4   25     -0.36      0.00
    1    4   25      0.09      0.00
    2    4   25     -0.32      0.00
    3    4   25     -0.75      0.00
    4    4   25      0.74      0.00
    5    4   25      0.00      0.00
    6    4   25     -0.24      0.00
    7    4   25     -0.49      0.00
    8    4   25     -0.04      0.00
    9    4   25     -0.81      0.00
   10    4   25     -1.13      0.00
   11    4   25      0.07      0.00
   12    4   25      0.32      0.00
   13    4   25     -1.20      0.00
   14    4   25      0.29      0.00
   15    4   25      2.01      0.00
   16    4   25      0.95      0.00
   17    4   25      0.45      0.00
  -17    5   25      0.09      0.00
  -16    5   25      0.33      0.00
  -15    5   25     -0.98      0.00
  -14    5   25      0.31      0.00
  -13    5   25     -0.83      0.00
  -12    5   25     -0.45      0.00
  -11    5   25      0.87      0.00
  -10    5   25      0.54      0.00
   -9    5   25     -0.61      0.00
   -8    5   25     -0.66      0.00
   -7    5   25     -1.27      0.00
   -6    5   25      0.70      0.00
   -5    5   25      1.53      0.00
   -4    5   25      0.70      0.00
   -3    5   25     -0.45      0.00
   -2    5   25     -0.19      0.00
   -1    5   25      0.44      0.00
    0    5   25      0.31      0.00
    1    5   25     -0.89      0.00
    2    5   25     -0.35      0.00
    3    5   25      1.46      0.00
    4    5   25     -0.16      0.00
    5    5   25     -0.26      0.00
    6    5   25     -0.06      0.00
    7    5   25     -0.15      0.00
    8    5   25     -1.03      0.00
    9    5   25     -0.88      0.00
   10    5   25     -0.88      0.00
   11    5   25     -0.26      0.00
   12    5   25     -0.04      0.00
   13    5   25     -0.19      0.00
   14    5   25      0.01      0.00
   15    5   25      1.02      0.00
   16    5   25      1.54      0.00
  -16    6   25     -0.19      0.00
  -15    6   25     -0.17      0.00
  -14    6   25     -1.20      0.00
  -13    6   25      1.37      0.00
  -12    6   25      0.63      0.00
  -11    6   25     -0.82      0.00
  -10    6   25      0.16      0.00
   -9    6   25      0.91      0.00
   -8    6   25     -0.59      0.00
   -7    6   25     -0.48      0.00
   -6    6   25     -0.11      0.00
   -5    6   25      1.82      0.00
   -4    6   25      0.68      0.00
   -3    6   25     -1.05      0.00
   -2    6   25      0.18      0.00
   -1    6   25      0.57      0.00
    0    6   25     -0.08      0.00
    1    6   25     -0.03      0.00
    2    6   25      0.32      0.00
    3    6   25     -0.63      0.00
    4    6   25      0.31      0.00
    5    6   25      0.36      0.00
    6    6   25      0.46      0.00
    7    6   25     -0.12      0.00
    8    6   25     -1.13      0.00
    9    6   25     -2.17      0.00
   10    6   25      1.02      0.00
   11    6   25     -0.31      0.00
   12    6   25     -0.88      0.00
   13    6   25      0.92      0.00
   14    6   25      0.40      0.00
   15    6   25     -0.37      0.00
  -14    7   25      0.29      0.00
  -13    7   25     -0.46      0.00
  -12    7   25      0.60      0.00
  -11    7   25      0.60      0.00
  -10    7   25      0.36      0.00
   -9    7   25      0.35      0.00
   -8    7   25      0.40      0.00
   -7    7   25      0.21      0.00
   -6    7   25      0.59      0.00
   -5    7   25     -0.42      0.00
   -4    7   25      0.51      0.00
   -3    7   25      0.60      0.00
   -2    7   25     -0.30      0.00
   -1    7   25      0.81      0.00
    0    7   25      0.13      0.00
    1    7   25     -0.41      0.00
    2    7   25      0.50      0.00
    3    7   25      0.54      0.00
    4    7   25     -1.06      0.00
    5    7   25     -0.24      0.00
    6    7   25      0.71      0.00
    7    7   25     -0.07      0.00
    8    7   25     -1.18      0.00
    9    7   25      1.06      0.00
   10    7   25     -1.12      0.00
   11    7   25     -0.29      0.00
   12    7   25      0.10      0.00
   13    7   25      0.36      0.00
   14    7   25      0.68      0.00
  -13    8   25     -0.25      0.00
  -12    8   25      0.18      0.00
  -11    8   25      0.76      0.00
  -10    8   25      0.60      0.00
   -9    8   25      1.15      0.00
   -8    8   25      0.20      0.00
   -7    8   25     -0.23      0.00
   -6    8   25      0.14      0.00
   -5    8   25      0.46      0.00
   -4    8   25     -0.19      0.00
   -3    8   25     -0.45      0.00
   -2    8   25      0.72      0.00
   -1    8   25      1.07      0.00
    0    8   25      0.72      0.00
    1    8   25      0.50      0.00
    2    8   25     -0.52      0.00
    3    8   25     -1.02      0.00
    4    8   25     -0.14      0.00
    5    8   25      0.44      0.00
    6    8   25      0.14      0.00
    7    8   25      0.27      0.00
    8    8   25      0.06      0.00
    9    8   25     -1.46      0.00
   10    8   25      0.84      0.00
   11    8   25     -0.11      0.00
   -9    9   25      0.41      0.00
   -8    9   25      0.75      0.00
   -7    9   25     -0.11      0.00
   -6    9   25     -0.76      0.00
   -5    9   25      0.05      0.00
   -4    9   25     -0.11      0.00
   -3    9   25      0.60      0.00
   -2    9   25      0.30      0.00
   -1    9   25      0.14      0.00
    0    9   25      1.27      0.00
    1    9   25     -0.37      0.00
    2    9   25     -0.25      0.00
    3    9   25     -0.13      0.00
    4    9   25     -0.31      0.00
    5    9   25      0.47      0.00
    6    9   25      0.77      0.00
    7    9   25     -0.89      0.00
    8    9   25     -0.73      0.00
   -3   10   25      0.19      0.00
   -2   10   25      0.26      0.00
   -1   10   25      0.27      0.00
    0   10   25     -0.52      0.00
    1   10   25      0.92      0.00
    2   10   25     -0.27      0.00
  -18    0   26     -0.39      0.00
  -16    0   26      0.08      0.00
  -14    0   26     -0.22      0.00
  -12    0   26      0.17      0.00
  -10    0   26      0.51      0.00
   -8    0   26      0.28      0.00
   -6    0   26     -0.59      0.00
   -4    0   26     -0.17      0.00
   -2    0   26     -1.19      0.00
    2    0   26      0.06      0.00
    4    0   26     -0.88      0.00
    6    0   26      0.19      0.00
    8    0   26      1.13      0.00
   10    0   26      0.13      0.00
   12    0   26     -1.48      0.00
   14    0   26      0.52      0.00
   16    0   26     -0.52      0.00
   18    0   26      1.13      0.00
  -19    1   26     -0.17      0.00
  -18    1   26     -0.69      0.00
  -17    1   26      0.47      0.00
  -16    1   26      0.35      0.00
  -15    1   26     -0.61      0.00
  -14    1   26      0.44      0.00
  -13    1   26      0.25      0.00
  -12    1   26     -0.06      0.00
  -11    1   26      0.49      0.00
  -10    1   26      0.11      0.00
   -9    1   26      0.01      0.00
   -8    1   26      0.51      0.00
   -7    1   26      0.44      0.00
   -6    1   26      1.16      0.00
   -5    1   26     -0.18      0.00
   -4    1   26     -0.38      0.00
   -3    1   26     -1.40      0.00
   -2    1   26      0.46      0.00
   -1    1   26      0.22      0.00
    0    1   26     -0.99      0.00
    1    1   26     -1.48      0.00
    2    1   26     -0.26      0.00
    3    1   26      0.65      0.00
    4    1   26     -0.02      0.00
    5    1   26     -0.80      0.00
    6    1   26      0.80      0.00
    7    1   26      0.92      0.00
    8    1   26     -0.31      0.00
    9    1   26     -0.15      0.00
   10    1   26      0.06      0.00
   11    1   26      0.05      0.00
   12    1   26      0.49      0.00
   13    1   26     -1.02      0.00
   14    1   26      0.81      0.00
   15    1   26     -0.73      0.00
   16    1   26     -0.20      0.00
   17    1   26      2.12      0.00
   18    1   26     -0.57      0.00
  -19    2   26     -0.22      0.00
  -18    2   26     -0.78      0.00
  -17    2   26     -0.51      0.00
  -16    2   26      0.73      0.00
  -15    2   26      0.05      0.00
  -14    2   26     -0.48      0.00
  -13    2   26      0.24      0.00
  -12    2   26      0.60      0.00
  -11    2   26     -0.28      0.00
  -10    2   26     -0.15      0.00
   -9    2   26      0.63      0.00
   -8    2   26      0.12      0.00
   -7    2   26      1.87      0.00
   -6    2   26      0.92      0.00
   -5    2   26     -0.49      0.00
   -4    2   26     -0.48      0.00
   -3    2   26      1.19      0.00
   -2    2   26     -1.02      0.00
   -1    2   26     -1.11      0.00
    0    2   26     -0.07      0.00
    1    2   26     -0.89      0.00
    2    2   26      0.00      0.00
    3    2   26     -0.09      0.00
    4    2   26     -0.40      0.00
    5    2   26      0.63      0.00
    6    2   26      0.09      0.00
    7    2   26     -0.06      0.00
    8    2   26     -0.24      0.00
    9    2   26      0.68      0.00
   10    2   26      0.54      0.00
   11    2   26     -0.13      0.00
   12    2   26     -2.11      0.00
   13    2   26      0.76      0.00
   14    2   26      0.89      0.00
   15    2   26      0.97      0.00
   16    2   26     -0.25      0.00
   17    2   26     -1.19      0.00
  -18    3   26     -1.08      0.00
  -17    3   26     -0.14      0.00
  -16    3   26     -0.32      0.00
  -15    3   26      0.34      0.00
  -14    3   26     -0.39      0.00
  -13    3   26      0.25      0.00
  -12    3   26     -0.37      0.00
  -11    3   26     -0.55      0.00
  -10    3   26     -0.09      0.00
   -9    3   26     -0.18      0.00
   -8    3   26      1.76      0.00
   -7    3   26      0.51      0.00
   -6    3   26     -0.07      0.00
   -5    3   26      0.92      0.00
   -4    3   26      0.50      0.00
   -3    3   26     -1.13      0.00
   -2    3   26      0.11      0.00
   -1    3   26      0.78      0.00
    0    3   26     -0.55      0.00
    1    3   26     -0.26      0.00
    2    3   26     -1.11      0.00
    3    3   26     -0.51      0.00
    4    3   26      0.97      0.00
    5    3   26     -0.04      0.00
    6    3   26     -0.18      0.00
    7    3   26     -0.18      0.00
    8    3   26      0.63      0.00
    9    3   26     -0.90      0.00
   10    3   26     -0.45      0.00
   11    3   26      0.44      0.00
   12    3   26      0.29      0.00
   13    3   26     -1.83      0.00
   14    3   26      1.01      0.00
   15    3   26      1.99      0.00
   16    3   26     -0.41      0.00
   17    3   26      0.13      0.00
  -17    4   26     -1.01      0.00
  -16    4   26      0.61      0.00
  -15    4   26     -0.49      0.00
  -14    4   26      0.61      0.00
  -13    4   26     -0.99      0.00
  -12    4   26     -0.89      0.00
  -11    4   26      0.35      0.00
  -10    4   26      0.07      0.00
   -9    4   26      0.07      0.00
   -8    4   26     -0.60      0.00
   -7    4   26     -0.49      0.00
   -6    4   26      1.12      0.00
   -5    4   26      1.13      0.00
   -4    4   26     -0.25      0.00
   -3    4   26      0.06      0.00
   -2    4   26      0.67      0.00
   -1    4   26     -0.41      0.00
    0    4   26      0.45      0.00
    1    4   26     -0.17      0.00
    2    4   26     -1.11      0.00
    3    4   26      0.27      0.00
    4    4   26      0.27      0.00
    5    4   26      0.31      0.00
    6    4   26     -0.56      0.00
    7    4   26     -0.09      0.00
    8    4   26     -0.44      0.00
    9    4   26     -0.41      0.00
   10    4   26     -0.69      0.00
   11    4   26     -0.34      0.00
   12    4   26     -0.46      0.00
   13    4   26     -0.13      0.00
   14    4   26      0.43      0.00
   15    4   26      1.32      0.00
   16    4   26      1.32      0.00
   17    4   26     -0.48      0.00
  -16    5   26     -0.82      0.00
  -15    5   26      0.34      0.00
  -14    5   26     -1.31      0.00
  -13    5   26      1.25      0.00
  -12    5   26      0.68      0.00
  -11    5   26     -1.41      0.00
  -10    5   26     -0.39      0.00
   -9    5   26      0.45      0.00
   -8    5   26     -0.84      0.00
   -7    5   26     -0.15      0.00
   -6    5   26      0.17      0.00
   -5    5   26      0.82      0.00
   -4    5   26      1.11      0.00
   -3    5   26      0.15      0.00
   -2    5   26     -0.37      0.00
   -1    5   26      0.25      0.00
    0    5   26     -0.19      0.00
    1    5   26      0.18      0.00
    2    5   26      0.29      0.00
    3    5   26     -1.24      0.00
    4    5   26      0.86      0.00
    5    5   26      0.73      0.00
    6    5   26     -0.26      0.00
    7    5   26     -0.61      0.00
    8    5   26     -0.49      0.00
    9    5   26     -1.21      0.00
   10    5   26     -0.60      0.00
   11    5   26     -0.69      0.00
   12    5   26      0.05      0.00
   13    5   26      0.55      0.00
   14    5   26     -0.01      0.00
   15    5   26      0.33      0.00
  -15    6   26     -0.69      0.00
  -14    6   26      0.74      0.00
  -13    6   26     -0.60      0.00
  -12    6   26      0.32      0.00
  -11    6   26      0.86      0.00
  -10    6   26      0.08      0.00
   -9    6   26     -0.71      0.00
   -8    6   26      0.01      0.00
   -7    6   26     -0.31      0.00
   -6    6   26      0.32      0.00
   -5    6   26      0.97      0.00
   -4    6   26      1.50      0.00
   -3    6   26      0.10      0.00
   -2    6   26     -1.19      0.00
   -1    6   26      0.26      0.00
    0    6   26      0.28      0.00
    1    6   26     -0.34      0.00
    2    6   26      0.29      0.00
    3    6   26      1.20      0.00
    4    6   26     -0.79      0.00
    5    6   26     -0.33      0.00
    6    6   26      0.15      0.00
    7    6   26     -0.18      0.00
    8    6   26     -0.72      0.00
    9    6   26      0.42      0.00
   10    6   26     -1.51      0.00
   11    6   26     -0.64      0.00
   12    6   26      0.08      0.00
   13    6   26      0.50      0.00
   14    6   26      0.55      0.00
  -14    7   26     -1.04      0.00
  -13    7   26      0.93      0.00
  -12    7   26      0.62      0.00
  -11    7   26     -0.28      0.00
  -10    7   26      0.32      0.00
   -9    7   26      1.07      0.00
   -8    7   26     -0.04      0.00
   -7    7   26     -0.14      0.00
   -6    7   26      0.45      0.00
   -5    7   26      1.38      0.00
   -4    7   26      0.01      0.00
   -3    7   26     -0.92      0.00
   -2    7   26      0.65      0.00
   -1    7   26      0.52      0.00
    0    7   26      0.47      0.00
    1    7   26      0.26      0.00
    2    7   26      0.03      0.00
    3    7   26     -0.51      0.00
    4    7   26     -0.13      0.00
    5    7   26     -0.34      0.00
    6    7   26      0.40      0.00
    7    7   26      0.34      0.00
    8    7   26     -0.39      0.00
    9    7   26     -1.72      0.00
   10    7   26      1.54      0.00
   11    7   26     -0.39      0.00
   12    7   26     -0.76      0.00
   13    7   26      0.61      0.00
  -12    8   26      0.64      0.00
  -11    8   26      0.00      0.00
  -10    8   26      0.42      0.00
   -9    8   26      0.85      0.00
   -8    8   26      1.01      0.00
   -7    8   26      0.06      0.00
   -6    8   26     -0.30      0.00
   -5    8   26     -0.21      0.00
   -4    8   26      0.12      0.00
   -3    8   26      0.60      0.00
   -2    8   26     -0.03      0.00
   -1    8   26      1.13      0.00
    0    8   26      0.91      0.00
    1    8   26     -0.61      0.00
    2    8   26      0.23      0.00
    3    8   26      0.35      0.00
    4    8   26     -1.28      0.00
    5    8   26     -0.29      0.00
    6    8   26      1.15      0.00
    7    8   26     -0.10      0.00
    8    8   26     -1.08      0.00
    9    8   26      0.79      0.00
   10    8   26     -0.29      0.00
   -8    9   26      0.55      0.00
   -7    9   26     -0.41      0.00
   -6    9   26     -0.13      0.00
   -5    9   26     -0.39      0.00
   -4    9   26      0.20      0.00
   -3    9   26     -0.39      0.00
   -2    9   26      0.74      0.00
   -1    9   26      1.28      0.00
    0    9   26      0.24      0.00
    1    9   26      0.66      0.00
    2    9   26     -0.82      0.00
    3    9   26     -1.02      0.00
    4    9   26      0.33      0.00
    5    9   26      0.91      0.00
    6    9   26      0.05      0.00
  -17    0   27      0.05      0.00
  -15    0   27     -0.18      0.00
  -13    0   27     -0.35      0.00
  -11    0   27      1.10      0.00
   -9    0   27     -0.17      0.00
   -7    0   27      0.63      0.00
   -5    0   27     -1.12      0.00
   -3    0   27     -0.61      0.00
    3    0   27      1.39      0.00
    5    0   27     -1.25      0.00
    7    0   27      1.44      0.00
    9    0   27     -0.17      0.00
   11    0   27      0.40      0.00
   13    0   27     -1.35      0.00
   15    0   27     -0.17      0.00
   17    0   27      1.65      0.00
  -18    1   27     -0.25      0.00
  -17    1   27      0.46      0.00
  -16    1   27      0.25      0.00
  -15    1   27     -0.23      0.00
  -14    1   27     -0.35      0.00
  -13    1   27      0.67      0.00
  -12    1   27      0.32      0.00
  -11    1   27      0.03      0.00
  -10    1   27      0.52      0.00
   -9    1   27     -0.01      0.00
   -8    1   27      0.27      0.00
   -7    1   27      1.24      0.00
   -6    1   27     -0.13      0.00
   -5    1   27      0.19      0.00
   -4    1   27     -0.21      0.00
   -3    1   27      0.49      0.00
   -2    1   27     -1.20      0.00
   -1    1   27     -0.84      0.00
    0    1   27     -0.64      0.00
    1    1   27     -0.63      0.00
    2    1   27      0.08      0.00
    3    1   27      0.15      0.00
    4    1   27     -0.56      0.00
    5    1   27      0.74      0.00
    6    1   27      0.41      0.00
    7    1   27     -0.36      0.00
    8    1   27      0.42      0.00
    9    1   27      0.30      0.00
   10    1   27      0.34      0.00
   11    1   27     -0.01      0.00
   12    1   27     -1.56      0.00
   13    1   27      0.87      0.00
   14    1   27      0.47      0.00
   15    1   27      0.17      0.00
   16    1   27     -0.40      0.00
   17    1   27     -0.11      0.00
  -18    2   27     -1.17      0.00
  -17    2   27      0.28      0.00
  -16    2   27      0.12      0.00
  -15    2   27      0.11      0.00
  -14    2   27      0.42      0.00
  -13    2   27     -0.16      0.00
  -12    2   27     -0.33      0.00
  -11    2   27      0.18      0.00
  -10    2   27      0.27      0.00
   -9    2   27      0.27      0.00
   -8    2   27      1.05      0.00
   -7    2   27      0.12      0.00
   -6    2   27      1.49      0.00
   -5    2   27      1.04      0.00
   -4    2   27     -0.28      0.00
   -3    2   27     -2.02      0.00
   -2    2   27      0.24      0.00
   -1    2   27      0.78      0.00
    0    2   27     -0.77      0.00
    1    2   27     -1.31      0.00
    2    2   27     -1.10      0.00
    3    2   27      0.65      0.00
    4    2   27      0.80      0.00
    5    2   27     -0.60      0.00
    6    2   27      0.63      0.00
    7    2   27      0.60      0.00
    8    2   27     -0.17      0.00
    9    2   27     -1.02      0.00
   10    2   27      0.17      0.00
   11    2   27      0.66      0.00
   12    2   27      0.76      0.00
   13    2   27     -1.43      0.00
   14    2   27      0.94      0.00
   15    2   27      0.09      0.00
   16    2   27     -0.52      0.00
   17    2   27      1.46      0.00
  -18    3   27     -1.06      0.00
  -17    3   27     -1.38      0.00
  -16    3   27      1.00      0.00
  -15    3   27     -0.08      0.00
  -14    3   27      0.13      0.00
  -13    3   27     -0.35      0.00
  -12    3   27     -0.75      0.00
  -11    3   27     -0.41      0.00
  -10    3   27      0.33      0.00
   -9    3   27      0.83      0.00
   -8    3   27     -0.57      0.00
   -7    3   27      1.05      0.00
   -6    3   27      1.09      0.00
   -5    3   27      0.27      0.00
   -4    3   27      0.03      0.00
   -3    3   27      0.50      0.00
   -2    3   27     -0.66      0.00
   -1    3   27     -0.50      0.00
    0    3   27      0.75      0.00
    1    3   27     -0.61      0.00
    2    3   27     -0.78      0.00
    3    3   27     -0.08      0.00
    4    3   27     -0.19      0.00
    5    3   27      0.46      0.00
    6    3   27     -0.11      0.00
    7    3   27      0.18      0.00
    8    3   27     -0.57      0.00
    9    3   27      0.37      0.00
   10    3   27     -0.15      0.00
   11    3   27     -0.31      0.00
   12    3   27     -1.04      0.00
   13    3   27      0.67      0.00
   14    3   27      0.87      0.00
   15    3   27      0.83      0.00
   16    3   27      0.17      0.00
   17    3   27     -0.87      0.00
  -17    4   27     -0.57      0.00
  -16    4   27     -1.18      0.00
  -15    4   27      0.53      0.00
  -14    4   27     -0.54      0.00
  -13    4   27      0.73      0.00
  -12    4   27     -0.18      0.00
  -11    4   27     -1.27      0.00
  -10    4   27     -0.65      0.00
   -9    4   27     -0.21      0.00
   -8    4   27      1.01      0.00
   -7    4   27      0.23      0.00
   -6    4   27     -0.49      0.00
   -5    4   27      0.27      0.00
   -4    4   27      1.04      0.00
   -3    4   27      0.83      0.00
   -2    4   27      0.04      0.00
   -1    4   27     -0.39      0.00
    0    4   27     -0.45      0.00
    1    4   27      0.99      0.00
    2    4   27     -0.26      0.00
    3    4   27     -1.83      0.00
    4    4   27      1.18      0.00
    5    4   27      0.42      0.00
    6    4   27     -0.82      0.00
    7    4   27     -0.35      0.00
    8    4   27      0.70      0.00
    9    4   27     -0.84      0.00
   10    4   27     -1.18      0.00
   11    4   27     -0.57      0.00
   12    4   27      0.45      0.00
   13    4   27     -0.16      0.00
   14    4   27      0.33      0.00
   15    4   27      1.55      0.00
  -16    5   27      0.03      0.00
  -15    5   27     -0.91      0.00
  -14    5   27      0.63      0.00
  -13    5   27     -0.89      0.00
  -12    5   27      0.21      0.00
  -11    5   27      0.77      0.00
  -10    5   27     -0.52      0.00
   -9    5   27     -1.05      0.00
   -8    5   27     -0.36      0.00
   -7    5   27     -0.42      0.00
   -6    5   27      0.28      0.00
   -5    5   27      1.34      0.00
   -4    5   27      1.15      0.00
   -3    5   27      0.17      0.00
   -2    5   27     -0.23      0.00
   -1    5   27     -0.30      0.00
    0    5   27      0.37      0.00
    1    5   27     -0.26      0.00
    2    5   27     -0.64      0.00
    3    5   27      1.29      0.00
    4    5   27      0.01      0.00
    5    5   27      0.03      0.00
    6    5   27     -0.95      0.00
    7    5   27     -0.73      0.00
    8    5   27      0.54      0.00
    9    5   27      0.27      0.00
   10    5   27     -2.04      0.00
   11    5   27     -0.99      0.00
   12    5   27      0.25      0.00
   13    5   27      0.37      0.00
   14    5   27      0.41      0.00
  -14    6   27     -1.38      0.00
  -13    6   27      1.71      0.00
  -12    6   27      0.56      0.00
  -11    6   27     -1.09      0.00
  -10    6   27      0.21      0.00
   -9    6   27      0.62      0.00
   -8    6   27     -1.15      0.00
   -7    6   27     -0.13      0.00
   -6    6   27      0.91      0.00
   -5    6   27      1.28      0.00
   -4    6   27      0.71      0.00
   -3    6   27     -0.34      0.00
   -2    6   27      0.05      0.00
   -1    6   27      0.08      0.00
    0    6   27     -0.22      0.00
    1    6   27      0.20      0.00
    2    6   27      0.54      0.00
    3    6   27     -0.77      0.00
    4    6   27      0.75      0.00
    5    6   27      0.23      0.00
    6    6   27     -0.37      0.00
    7    6   27     -0.62      0.00
    8    6   27     -0.51      0.00
    9    6   27     -0.85      0.00
   10    6   27      1.06      0.00
   11    6   27     -1.02      0.00
   12    6   27     -0.98      0.00
   13    6   27      0.70      0.00
  -13    7   27     -0.58      0.00
  -12    7   27      0.46      0.00
  -11    7   27      0.36      0.00
  -10    7   27      0.05      0.00
   -9    7   27      0.47      0.00
   -8    7   27      0.64      0.00
   -7    7   27     -0.18      0.00
   -6    7   27      0.46      0.00
   -5    7   27      0.52      0.00
   -4    7   27      0.72      0.00
   -3    7   27      0.41      0.00
   -2    7   27     -0.95      0.00
   -1    7   27      0.67      0.00
    0    7   27      0.68      0.00
    1    7   27     -0.23      0.00
    2    7   27      0.39      0.00
    3    7   27      0.79      0.00
    4    7   27     -1.41      0.00
    5    7   27     -0.49      0.00
    6    7   27      0.74      0.00
    7    7   27     -0.05      0.00
    8    7   27     -1.23      0.00
    9    7   27      1.13      0.00
   10    7   27     -0.29      0.00
   11    7   27     -0.23      0.00
   12    7   27     -0.71      0.00
  -10    8   27      0.21      0.00
   -9    8   27      0.87      0.00
   -8    8   27      0.23      0.00
   -7    8   27      0.34      0.00
   -6    8   27      0.47      0.00
   -5    8   27      0.22      0.00
   -4    8   27     -0.38      0.00
   -3    8   27     -1.04      0.00
   -2    8   27      1.18      0.00
   -1    8   27      1.51      0.00
    0    8   27      0.69      0.00
    1    8   27      0.02      0.00
    2    8   27     -0.49      0.00
    3    8   27     -0.47      0.00
    4    8   27     -0.16      0.00
    5    8   27     -0.30      0.00
    6    8   27      0.40      0.00
    7    8   27      0.59      0.00
    8    8   27     -0.27      0.00
   -5    9   27     -0.31      0.00
   -4    9   27     -0.30      0.00
   -3    9   27      0.78      0.00
   -2    9   27      0.01      0.00
   -1    9   27      0.75      0.00
    0    9   27      1.30      0.00
    1    9   27     -0.60      0.00
    2    9   27      0.03      0.00
    3    9   27      0.13      0.00
    4    9   27     -0.77      0.00
  -16    0   28     -0.37      0.00
  -14    0   28     -0.20      0.00
  -12    0   28      0.22      0.00
  -10    0   28      1.10      0.00
   -8    0   28      0.10      0.00
   -6    0   28     -0.89      0.00
   -4    0   28      0.57      0.00
    4    0   28     -0.28      0.00
    6    0   28      0.51      0.00
    8    0   28      0.94      0.00
   10    0   28     -0.25      0.00
   12    0   28     -0.51      0.00
   14    0   28     -0.12      0.00
   16    0   28     -0.04      0.00
  -17    1   28      0.10      0.00
  -16    1   28      0.29      0.00
  -15    1   28      0.11      0.00
  -14    1   28      0.59      0.00
  -13    1   28     -0.72      0.00
  -12    1   28     -0.11      0.00
  -11    1   28      1.27      0.00
  -10    1   28      0.42      0.00
   -9    1   28      0.05      0.00
   -8    1   28      0.14      0.00
   -7    1   28      0.27      0.00
   -6    1   28      1.45      0.00
   -5    1   28     -0.11      0.00
   -4    1   28     -0.25      0.00
   -3    1   28     -1.18      0.00
   -2    1   28      0.30      0.00
   -1    1   28      0.35      0.00
    1    1   28     -2.09      0.00
    2    1   28      0.09      0.00
    3    1   28      1.31      0.00
    4    1   28      0.38      0.00
    5    1   28     -0.98      0.00
    6    1   28      0.53      0.00
    7    1   28      1.44      0.00
    8    1   28     -0.22      0.00
    9    1   28     -0.96      0.00
   10    1   28     -0.42      0.00
   11    1   28      0.98      0.00
   12    1   28      1.26      0.00
   13    1   28     -1.35      0.00
   14    1   28      0.29      0.00
   15    1   28     -0.34      0.00
   16    1   28     -0.31      0.00
   17    1   28      1.73      0.00
  -18    2   28     -0.78      0.00
  -17    2   28     -0.11      0.00
  -16    2   28      0.60      0.00
  -15    2   28     -0.15      0.00
  -14    2   28     -0.08      0.00
  -13    2   28      0.38      0.00
  -12    2   28     -0.38      0.00
  -11    2   28     -0.12      0.00
  -10    2   28      0.54      0.00
   -9    2   28      0.63      0.00
   -8    2   28      0.07      0.00
   -7    2   28      1.27      0.00
   -6    2   28      0.57      0.00
   -5    2   28      0.64      0.00
   -4    2   28      0.02      0.00
   -3    2   28      0.77      0.00
   -2    2   28     -1.41      0.00
   -1    2   28     -1.53      0.00
    0    2   28      0.32      0.00
    1    2   28     -0.41      0.00
    2    2   28     -0.48      0.00
    3    2   28      0.27      0.00
    4    2   28     -0.32      0.00
    5    2   28      0.37      0.00
    6    2   28      0.59      0.00
    7    2   28      0.12      0.00
    8    2   28     -0.72      0.00
    9    2   28      0.59      0.00
   10    2   28      0.30      0.00
   11    2   28     -0.55      0.00
   12    2   28     -0.89      0.00
   13    2   28      1.95      0.00
   14    2   28      0.36      0.00
   15    2   28     -0.44      0.00
   16    2   28     -0.33      0.00
  -17    3   28     -0.14      0.00
  -16    3   28     -0.60      0.00
  -15    3   28      0.46      0.00
  -14    3   28     -0.26      0.00
  -13    3   28      0.15      0.00
  -12    3   28     -0.32      0.00
  -11    3   28     -1.01      0.00
  -10    3   28     -0.25      0.00
   -9    3   28      0.21      0.00
   -8    3   28      1.64      0.00
   -7    3   28      0.26      0.00
   -6    3   28      0.19      0.00
   -5    3   28      0.36      0.00
   -4    3   28      0.86      0.00
   -3    3   28      0.04      0.00
   -2    3   28     -0.25      0.00
   -1    3   28     -0.13      0.00
    0    3   28     -0.31      0.00
    1    3   28     -0.03      0.00
    2    3   28     -0.78      0.00
    3    3   28     -0.42      0.00
    4    3   28      0.92      0.00
    5    3   28     -0.54      0.00
    6    3   28     -0.36      0.00
    7    3   28      0.28      0.00
    8    3   28      0.77      0.00
    9    3   28     -1.27      0.00
   10    3   28     -0.31      0.00
   11    3   28      0.43      0.00
   12    3   28      0.35      0.00
   13    3   28     -0.90      0.00
   14    3   28      1.08      0.00
   15    3   28      1.43      0.00
   16    3   28     -0.51      0.00
  -16    4   28      0.93      0.00
  -15    4   28     -1.01      0.00
  -14    4   28      0.20      0.00
  -13    4   28     -0.61      0.00
  -12    4   28     -0.60      0.00
  -11    4   28      0.11      0.00
  -10    4   28     -0.10      0.00
   -9    4   28     -0.48      0.00
   -8    4   28     -0.72      0.00
   -7    4   28      0.59      0.00
   -6    4   28      0.22      0.00
   -5    4   28      0.78      0.00
   -4    4   28      0.80      0.00
   -3    4   28     -0.05      0.00
   -2    4   28      0.53      0.00
   -1    4   28      0.27      0.00
    0    4   28      0.00      0.00
    1    4   28     -0.61      0.00
    2    4   28     -0.69      0.00
    3    4   28      0.66      0.00
    4    4   28      0.16      0.00
    5    4   28      0.30      0.00
    6    4   28     -1.48      0.00
    7    4   28     -0.54      0.00
    8    4   28      0.72      0.00
    9    4   28      0.42      0.00
   10    4   28     -1.32      0.00
   11    4   28     -0.74      0.00
   12    4   28     -0.50      0.00
   13    4   28      0.28      0.00
   14    4   28      1.29      0.00
  -15    5   28      0.43      0.00
  -14    5   28     -0.71      0.00
  -13    5   28      1.13      0.00
  -12    5   28     -0.26      0.00
  -11    5   28     -1.05      0.00
  -10    5   28     -0.10      0.00
   -9    5   28     -0.10      0.00
   -8    5   28     -0.82      0.00
   -7    5   28     -0.18      0.00
   -6    5   28      0.91      0.00
   -5    5   28      0.25      0.00
   -4    5   28      0.39      0.00
   -3    5   28      1.44      0.00
   -2    5   28      0.34      0.00
   -1    5   28     -0.77      0.00
    0    5   28     -0.37      0.00
    1    5   28      0.93      0.00
    2    5   28     -0.06      0.00
    3    5   28     -1.74      0.00
    4    5   28      1.76      0.00
    5    5   28      0.84      0.00
    6    5   28     -0.97      0.00
    7    5   28     -1.51      0.00
    8    5   28     -0.36      0.00
    9    5   28      0.48      0.00
   10    5   28     -0.09      0.00
   11    5   28     -1.81      0.00
   12    5   28     -0.22      0.00
   13    5   28      0.76      0.00
  -14    6   28      0.70      0.00
  -13    6   28     -1.11      0.00
  -12    6   28      0.58      0.00
  -11    6   28      0.62      0.00
  -10    6   28     -0.41      0.00
   -9    6   28     -0.48      0.00
   -8    6   28     -0.01      0.00
   -7    6   28     -0.22      0.00
   -6    6   28      0.44      0.00
   -5    6   28      1.18      0.00
   -4    6   28      1.33      0.00
   -3    6   28      0.17      0.00
   -2    6   28     -1.17      0.00
   -1    6   28      0.08      0.00
    0    6   28      0.86      0.00
    1    6   28     -0.22      0.00
    2    6   28     -0.24      0.00
    3    6   28      1.06      0.00
    4    6   28     -0.62      0.00
    5    6   28      0.35      0.00
    6    6   28     -0.42      0.00
    7    6   28     -1.10      0.00
    8    6   28     -0.13      0.00
    9    6   28      1.05      0.00
   10    6   28     -1.19      0.00
   11    6   28     -0.77      0.00
   12    6   28     -0.20      0.00
  -11    7   28     -0.37      0.00
  -10    7   28      0.37      0.00
   -9    7   28      0.26      0.00
   -8    7   28     -0.32      0.00
   -7    7   28      0.92      0.00
   -6    7   28      0.76      0.00
   -5    7   28      0.73      0.00
   -4    7   28      0.12      0.00
   -3    7   28     -0.86      0.00
   -2    7   28      0.66      0.00
   -1    7   28      0.49      0.00
    0    7   28      0.18      0.00
    1    7   28      0.57      0.00
    2    7   28      0.43      0.00
    3    7   28     -0.85      0.00
    4    7   28     -0.05      0.00
    5    7   28     -0.42      0.00
    6    7   28      0.12      0.00
    7    7   28      0.27      0.00
    8    7   28     -0.18      0.00
    9    7   28     -1.20      0.00
   10    7   28      1.42      0.00
   11    7   28     -0.29      0.00
   -9    8   28      0.62      0.00
   -8    8   28      0.78      0.00
   -7    8   28     -0.16      0.00
   -6    8   28      0.47      0.00
   -5    8   28      0.19      0.00
   -4    8   28     -0.20      0.00
   -3    8   28      0.48      0.00
   -2    8   28     -0.67      0.00
   -1    8   28      0.98      0.00
    0    8   28      1.34      0.00
    1    8   28     -0.20      0.00
    2    8   28      0.25      0.00
    3    8   28      0.53      0.00
    4    8   28     -1.67      0.00
    5    8   28     -1.00      0.00
    6    8   28      1.26      0.00
    7    8   28      0.93      0.00
   -2    9   28      0.80      0.00
   -1    9   28      1.42      0.00
    0    9   28      0.68      0.00
  -17    0   29      0.21      0.00
  -15    0   29      0.31      0.00
  -13    0   29     -1.25      0.00
  -11    0   29      2.04      0.00
   -9    0   29     -0.03      0.00
   -7    0   29      0.34      0.00
   -5    0   29     -1.36      0.00
   -3    0   29      0.67      0.00
    5    0   29     -1.61      0.00
    7    0   29      2.29      0.00
    9    0   29     -1.01      0.00
   11    0   29      0.88      0.00
   13    0   29     -0.81      0.00
   15    0   29     -0.29      0.00
  -17    1   29      0.12      0.00
  -16    1   29     -0.09      0.00
  -15    1   29      0.00      0.00
  -14    1   29     -0.16      0.00
  -13    1   29      0.68      0.00
  -12    1   29     -0.07      0.00
  -11    1   29      0.13      0.00
  -10    1   29      1.10      0.00
   -9    1   29     -0.04      0.00
   -8    1   29      0.38      0.00
   -7    1   29      1.15      0.00
   -6    1   29     -0.91      0.00
   -5    1   29      0.23      0.00
   -4    1   29      1.07      0.00
   -3    1   29      0.86      0.00
   -2    1   29     -1.88      0.00
    3    1   29      0.64      0.00
    4    1   29     -0.17      0.00
    5    1   29      0.32      0.00
    6    1   29      0.60      0.00
    7    1   29     -0.27      0.00
    8    1   29      0.38      0.00
    9    1   29      0.43      0.00
   10    1   29     -0.26      0.00
   11    1   29     -0.58      0.00
   12    1   29     -0.08      0.00
   13    1   29      1.61      0.00
   14    1   29     -0.14      0.00
   15    1   29     -0.29      0.00
   16    1   29     -0.26      0.00
  -16    2   29     -0.01      0.00
  -15    2   29      0.02      0.00
  -14    2   29      0.43      0.00
  -13    2   29     -0.36      0.00
  -12    2   29     -0.20      0.00
  -11    2   29      0.14      0.00
  -10    2   29      0.27      0.00
   -9    2   29      0.29      0.00
   -8    2   29      0.91      0.00
   -7    2   29      0.33      0.00
   -6    2   29      1.47      0.00
   -5    2   29      0.42      0.00
   -4    2   29     -0.15      0.00
   -3    2   29     -0.71      0.00
   -2    2   29      0.84      0.00
   -1    2   29     -0.06      0.00
    0    2   29     -2.16      0.00
    1    2   29     -1.02      0.00
    2    2   29      0.28      0.00
    3    2   29      0.49      0.00
    4    2   29      0.79      0.00
    5    2   29     -0.53      0.00
    6    2   29     -0.08      0.00
    7    2   29      0.57      0.00
    8    2   29      0.13      0.00
    9    2   29     -1.33      0.00
   10    2   29      0.23      0.00
   11    2   29      1.25      0.00
   12    2   29      0.52      0.00
   13    2   29     -1.15      0.00
   14    2   29      1.31      0.00
   15    2   29      0.26      0.00
   16    2   29     -0.96      0.00
  -16    3   29      1.04      0.00
  -15    3   29     -0.51      0.00
  -14    3   29     -0.15      0.00
  -13    3   29     -0.66      0.00
  -12    3   29     -0.90      0.00
  -11    3   29      0.22      0.00
  -10    3   29      0.34      0.00
   -9    3   29      0.24      0.00
   -8    3   29     -0.73      0.00
   -7    3   29      1.06      0.00
   -6    3   29      0.99      0.00
   -5    3   29      0.78      0.00
   -4    3   29      0.11      0.00
   -3    3   29      0.21      0.00
   -2    3   29     -0.20      0.00
   -1    3   29     -0.14      0.00
    0    3   29      0.61      0.00
    1    3   29     -0.98      0.00
    2    3   29     -1.30      0.00
    3    3   29      0.76      0.00
    4    3   29      0.38      0.00
    5    3   29      0.02      0.00
    6    3   29     -0.67      0.00
    7    3   29     -0.35      0.00
    8    3   29     -0.57      0.00
    9    3   29      1.06      0.00
   10    3   29     -0.17      0.00
   11    3   29     -0.67      0.00
   12    3   29     -0.41      0.00
   13    3   29      1.17      0.00
   14    3   29      0.89      0.00
  -15    4   29      0.80      0.00
  -14    4   29     -0.50      0.00
  -13    4   29      0.33      0.00
  -12    4   29     -0.98      0.00
  -11    4   29     -1.30      0.00
  -10    4   29      0.26      0.00
   -9    4   29     -0.12      0.00
   -8    4   29      0.14      0.00
   -7    4   29     -0.10      0.00
   -6    4   29      0.43      0.00
   -5    4   29     -0.12      0.00
   -4    4   29      0.86      0.00
   -3    4   29      1.51      0.00
   -2    4   29     -0.42      0.00
   -1    4   29     -0.28      0.00
    0    4   29      0.60      0.00
    1    4   29      0.53      0.00
    2    4   29     -0.94      0.00
    3    4   29     -1.61      0.00
    4    4   29      1.51      0.00
    5    4   29      0.40      0.00
    6    4   29     -0.71      0.00
    7    4   29     -1.05      0.00
    8    4   29     -0.06      0.00
    9    4   29     -0.25      0.00
   10    4   29     -0.19      0.00
   11    4   29     -0.67      0.00
   12    4   29      0.10      0.00
   13    4   29      0.05      0.00
  -14    5   29      0.64      0.00
  -13    5   29     -0.82      0.00
  -12    5   29      0.05      0.00
  -11    5   29      0.18      0.00
  -10    5   29     -0.53      0.00
   -9    5   29     -0.86      0.00
   -8    5   29     -0.34      0.00
   -7    5   29      0.23      0.00
   -6    5   29     -0.25      0.00
   -5    5   29      1.22      0.00
   -4    5   29      1.22      0.00
   -3    5   29     -0.26      0.00
   -2    5   29      0.44      0.00
   -1    5   29      0.02      0.00
    0    5   29     -0.04      0.00
    1    5   29      0.33      0.00
    2    5   29     -0.28      0.00
    3    5   29      0.22      0.00
    4    5   29     -0.26      0.00
    5    5   29      1.02      0.00
    6    5   29     -1.35      0.00
    7    5   29     -1.10      0.00
    8    5   29      0.72      0.00
    9    5   29      0.12      0.00
   10    5   29     -1.52      0.00
   11    5   29     -0.76      0.00
   12    5   29     -0.08      0.00
  -13    6   29      1.54      0.00
  -12    6   29     -0.06      0.00
  -11    6   29     -0.85      0.00
  -10    6   29      0.00      0.00
   -9    6   29     -0.10      0.00
   -8    6   29     -0.66      0.00
   -7    6   29      0.66      0.00
   -6    6   29      1.00      0.00
   -5    6   29      0.09      0.00
   -4    6   29      0.57      0.00
   -3    6   29      0.93      0.00
   -2    6   29     -0.17      0.00
   -1    6   29     -0.82      0.00
    0    6   29      0.07      0.00
    1    6   29      1.25      0.00
    2    6   29      0.47      0.00
    3    6   29     -1.43      0.00
    4    6   29      0.71      0.00
    5    6   29      0.30      0.00
    6    6   29     -0.22      0.00
    7    6   29     -1.18      0.00
    8    6   29     -0.35      0.00
    9    6   29      0.32      0.00
   10    6   29      0.47      0.00
   11    6   29     -1.32      0.00
  -10    7   29     -0.29      0.00
   -9    7   29      0.46      0.00
   -8    7   29      0.22      0.00
   -7    7   29     -0.46      0.00
   -6    7   29      1.15      0.00
   -5    7   29      0.88      0.00
   -4    7   29      0.40      0.00
   -3    7   29      0.24      0.00
   -2    7   29     -1.16      0.00
   -1    7   29      0.36      0.00
    0    7   29      1.04      0.00
    1    7   29      0.08      0.00
    2    7   29      0.50      0.00
    3    7   29      0.87      0.00
    4    7   29     -1.70      0.00
    5    7   29     -0.59      0.00
    6    7   29      0.43      0.00
    7    7   29      0.11      0.00
    8    7   29     -0.61      0.00
    9    7   29      0.91      0.00
   -7    8   29      0.58      0.00
   -6    8   29      0.51      0.00
   -5    8   29      0.56      0.00
   -4    8   29     -0.38      0.00
   -3    8   29     -1.04      0.00
   -2    8   29      1.25      0.00
   -1    8   29      0.81      0.00
    0    8   29      0.29      0.00
    1    8   29      0.29      0.00
    2    8   29      0.08      0.00
    3    8   29     -0.01      0.00
    4    8   29     -0.12      0.00
    5    8   29     -1.18      0.00
  -16    0   30     -0.23      0.00
  -14    0   30     -0.13      0.00
  -12    0   30      0.23      0.00
  -10    0   30      1.14      0.00
   -8    0   30      0.73      0.00
   -6    0   30     -1.70      0.00
   -4    0   30      1.37      0.00
    4    0   30      0.56      0.00
    6    0   30      0.07      0.00
    8    0   30      0.91      0.00
   10    0   30     -0.03      0.00
   12    0   30     -0.31      0.00
   14    0   30      0.48      0.00
  -16    1   30     -0.21      0.00
  -15    1   30      0.17      0.00
  -14    1   30      0.66      0.00
  -13    1   30     -0.92      0.00
  -12    1   30      0.14      0.00
  -11    1   30      1.44      0.00
  -10    1   30      0.47      0.00
   -9    1   30      0.02      0.00
   -8    1   30     -0.30      0.00
   -7    1   30      0.88      0.00
   -6    1   30      1.91      0.00
   -5    1   30     -1.52      0.00
   -4    1   30     -0.75      0.00
   -3    1   30      1.27      0.00
    4    1   30      0.78      0.00
    5    1   30     -0.94      0.00
    6    1   30     -0.12      0.00
    7    1   30      1.24      0.00
    8    1   30     -0.09      0.00
    9    1   30     -0.87      0.00
   10    1   30     -0.19      0.00
   11    1   30      1.20      0.00
   12    1   30      0.87      0.00
   13    1   30     -0.95      0.00
   14    1   30      0.42      0.00
   15    1   30      0.10      0.00
  -15    2   30     -0.19      0.00
  -14    2   30     -0.10      0.00
  -13    2   30      0.05      0.00
  -12    2   30     -0.87      0.00
  -11    2   30      0.79      0.00
  -10    2   30      0.94      0.00
   -9    2   30     -0.37      0.00
   -8    2   30     -0.09      0.00
   -7    2   30      1.46      0.00
   -6    2   30      0.36      0.00
   -5    2   30      1.15      0.00
   -4    2   30      0.49      0.00
   -3    2   30     -0.07      0.00
   -2    2   30     -0.88      0.00
   -1    2   30     -0.56      0.00
    0    2   30      0.14      0.00
    1    2   30     -1.17      0.00
    2    2   30     -0.97      0.00
    3    2   30      0.84      0.00
    4    2   30      0.24      0.00
    5    2   30      0.44      0.00
    6    2   30      0.18      0.00
    7    2   30     -0.69      0.00
    8    2   30     -0.81      0.00
    9    2   30      1.00      0.00
   10    2   30      0.00      0.00
   11    2   30     -0.59      0.00
   12    2   30      0.61      0.00
   13    2   30      1.84      0.00
   14    2   30     -0.45      0.00
   15    2   30     -0.49      0.00
  -15    3   30      0.48      0.00
  -14    3   30     -0.01      0.00
  -13    3   30     -0.40      0.00
  -12    3   30     -1.02      0.00
  -11    3   30     -0.96      0.00
  -10    3   30      0.62      0.00
   -9    3   30      0.40      0.00
   -8    3   30      0.52      0.00
   -7    3   30     -0.47      0.00
   -6    3   30      1.14      0.00
   -5    3   30      0.96      0.00
   -4    3   30      0.27      0.00
   -3    3   30      0.29      0.00
   -2    3   30      0.18      0.00
   -1    3   30     -0.33      0.00
    0    3   30     -0.28      0.00
    1    3   30      0.38      0.00
    2    3   30     -0.68      0.00
    3    3   30     -1.20      0.00
    4    3   30      0.83      0.00
    5    3   30      0.02      0.00
    6    3   30     -0.02      0.00
    7    3   30     -0.30      0.00
    8    3   30     -0.51      0.00
    9    3   30     -1.38      0.00
   10    3   30      0.87      0.00
   11    3   30      0.74      0.00
   12    3   30     -0.06      0.00
   13    3   30     -0.15      0.00
  -14    4   30     -0.17      0.00
  -13    4   30     -0.69      0.00
  -12    4   30     -0.37      0.00
  -11    4   30     -0.36      0.00
  -10    4   30     -0.37      0.00
   -9    4   30     -0.01      0.00
   -8    4   30     -0.82      0.00
   -7    4   30      0.55      0.00
   -6    4   30      0.01      0.00
   -5    4   30      0.77      0.00
   -4    4   30      1.25      0.00
   -3    4   30      0.04      0.00
   -2    4   30      0.17      0.00
   -1    4   30      0.00      0.00
    0    4   30      0.52      0.00
    1    4   30      0.28      0.00
    2    4   30     -0.68      0.00
    3    4   30     -0.06      0.00
    4    4   30     -0.44      0.00
    5    4   30      0.54      0.00
    6    4   30     -1.17      0.00
    7    4   30     -0.45      0.00
    8    4   30      0.32      0.00
    9    4   30     -0.17      0.00
   10    4   30     -1.28      0.00
   11    4   30     -0.16      0.00
   12    4   30      0.05      0.00
  -13    5   30      1.41      0.00
  -12    5   30     -0.89      0.00
  -11    5   30     -1.20      0.00
  -10    5   30      0.13      0.00
   -9    5   30     -0.36      0.00
   -8    5   30     -0.36      0.00
   -7    5   30      0.17      0.00
   -6    5   30      0.52      0.00
   -5    5   30     -0.38      0.00
   -4    5   30      0.98      0.00
   -3    5   30      1.75      0.00
   -2    5   30     -0.59      0.00
   -1    5   30     -0.50      0.00
    0    5   30      0.26      0.00
    1    5   30      0.95      0.00
    2    5   30      0.29      0.00
    3    5   30     -1.55      0.00
    4    5   30      0.93      0.00
    5    5   30      0.34      0.00
    6    5   30     -0.33      0.00
    7    5   30     -1.60      0.00
    8    5   30     -0.49      0.00
    9    5   30      0.75      0.00
   10    5   30     -0.24      0.00
   11    5   30     -1.49      0.00
  -11    6   30      0.36      0.00
  -10    6   30     -0.44      0.00
   -9    6   30     -0.24      0.00
   -8    6   30     -0.29      0.00
   -7    6   30     -0.09      0.00
   -6    6   30      0.99      0.00
   -5    6   30      1.02      0.00
   -4    6   30      0.04      0.00
   -3    6   30      0.26      0.00
   -2    6   30      0.43      0.00
   -1    6   30     -0.57      0.00
    0    6   30      0.00      0.00
    1    6   30      0.55      0.00
    2    6   30      0.39      0.00
    3    6   30      0.76      0.00
    4    6   30     -0.84      0.00
    5    6   30      0.22      0.00
    6    6   30     -0.74      0.00
    7    6   30     -0.76      0.00
    8    6   30     -0.13      0.00
    9    6   30      0.98      0.00
   -9    7   30     -0.21      0.00
   -8    7   30     -0.46      0.00
   -7    7   30      1.35      0.00
   -6    7   30      0.45      0.00
   -5    7   30     -0.06      0.00
   -4    7   30      0.47      0.00
   -3    7   30      0.18      0.00
   -2    7   30      0.07      0.00
   -1    7   30     -0.16      0.00
    0    7   30      0.32      0.00
    1    7   30      0.76      0.00
    2    7   30      0.42      0.00
    3    7   30     -0.57      0.00
    4    7   30      0.28      0.00
    5    7   30     -0.58      0.00
    6    7   30     -0.34      0.00
    7    7   30     -0.27      0.00
    8    7   30      0.42      0.00
   -4    8   30     -0.12      0.00
   -3    8   30      0.11      0.00
   -2    8   30     -0.61      0.00
   -1    8   30      0.98      0.00
    0    8   30      0.86      0.00
    1    8   30     -0.08      0.00
  -15    0   31      0.10      0.00
  -13    0   31     -0.91      0.00
  -11    0   31      2.14      0.00
   -9    0   31     -0.45      0.00
   -7    0   31      1.38      0.00
   -5    0   31     -2.53      0.00
    5    0   31     -1.07      0.00
    7    0   31      1.69      0.00
    9    0   31     -0.97      0.00
   11    0   31      1.56      0.00
   13    0   31     -0.98      0.00
  -15    1   31     -0.07      0.00
  -14    1   31     -0.08      0.00
  -13    1   31      0.29      0.00
  -12    1   31     -0.04      0.00
  -11    1   31      0.95      0.00
  -10    1   31      0.98      0.00
   -9    1   31     -0.60      0.00
   -8    1   31      0.48      0.00
   -7    1   31      0.90      0.00
   -6    1   31     -0.61      0.00
   -5    1   31      0.82      0.00
   -4    1   31      0.79      0.00
    5    1   31      0.21      0.00
    6    1   31      0.01      0.00
    7    1   31     -0.20      0.00
    8    1   31      0.11      0.00
    9    1   31      0.21      0.00
   10    1   31      0.02      0.00
   11    1   31     -0.48      0.00
   12    1   31      0.64      0.00
   13    1   31      1.57      0.00
   14    1   31     -0.37      0.00
  -15    2   31      0.04      0.00
  -14    2   31      0.37      0.00
  -13    2   31     -0.24      0.00
  -12    2   31     -0.26      0.00
  -11    2   31     -0.53      0.00
  -10    2   31      1.05      0.00
   -9    2   31      0.75      0.00
   -8    2   31     -0.50      0.00
   -7    2   31      0.19      0.00
   -6    2   31      2.22      0.00
   -5    2   31     -0.01      0.00
   -4    2   31     -0.24      0.00
   -3    2   31      0.96      0.00
   -2    2   31      0.60      0.00
    2    2   31      0.70      0.00
    3    2   31     -0.45      0.00
    4    2   31      0.04      0.00
    5    2   31      0.02      0.00
    6    2   31      0.31      0.00
    7    2   31     -0.08      0.00
    8    2   31     -0.45      0.00
    9    2   31     -1.15      0.00
   10    2   31      0.51      0.00
   11    2   31      1.25      0.00
   12    2   31      0.40      0.00
   13    2   31     -0.22      0.00
  -15    3   31     -0.73      0.00
  -14    3   31     -0.24      0.00
  -13    3   31     -0.45      0.00
  -12    3   31     -1.04      0.00
  -11    3   31      0.36      0.00
  -10    3   31      0.06      0.00
   -9    3   31     -0.08      0.00
   -8    3   31     -0.41      0.00
   -7    3   31      0.66      0.00
   -6    3   31      0.32      0.00
   -5    3   31      1.59      0.00
   -4    3   31      0.93      0.00
   -3    3   31     -0.44      0.00
   -2    3   31      0.27      0.00
   -1    3   31     -0.06      0.00
    0    3   31     -0.35      0.00
    1    3   31     -0.05      0.00
    2    3   31     -0.27      0.00
    3    3   31     -0.13      0.00
    4    3   31     -0.54      0.00
    5    3   31      0.33      0.00
    6    3   31     -0.46      0.00
    7    3   31     -0.56      0.00
    8    3   31     -0.85      0.00
    9    3   31      0.68      0.00
   10    3   31     -0.33      0.00
   11    3   31     -0.36      0.00
   12    3   31      0.36      0.00
  -13    4   31     -0.09      0.00
  -12    4   31     -1.33      0.00
  -11    4   31     -0.92      0.00
  -10    4   31      0.58      0.00
   -9    4   31     -0.29      0.00
   -8    4   31     -0.15      0.00
   -7    4   31     -0.52      0.00
   -6    4   31      0.79      0.00
   -5    4   31      0.40      0.00
   -4    4   31      0.60      0.00
   -3    4   31      1.43      0.00
   -2    4   31     -0.44      0.00
   -1    4   31     -0.19      0.00
    0    4   31      0.80      0.00
    1    4   31      0.38      0.00
    2    4   31     -0.54      0.00
    3    4   31     -0.94      0.00
    4    4   31      0.77      0.00
    5    4   31     -0.43      0.00
    6    4   31     -0.04      0.00
    7    4   31     -1.14      0.00
    8    4   31     -0.90      0.00
    9    4   31     -0.02      0.00
   10    4   31      0.45      0.00
   11    4   31     -0.78      0.00
  -12    5   31      0.38      0.00
  -11    5   31     -0.30      0.00
  -10    5   31     -0.37      0.00
   -9    5   31     -0.22      0.00
   -8    5   31     -0.93      0.00
   -7    5   31      0.57      0.00
   -6    5   31      0.40      0.00
   -5    5   31      0.38      0.00
   -4    5   31      0.53      0.00
   -3    5   31      0.25      0.00
   -2    5   31      0.86      0.00
   -1    5   31     -0.29      0.00
    0    5   31     -0.03      0.00
    1    5   31      0.51      0.00
    2    5   31      0.14      0.00
    3    5   31      0.35      0.00
    4    5   31     -0.61      0.00
    5    5   31      0.63      0.00
    6    5   31     -1.31      0.00
    7    5   31     -0.55      0.00
    8    5   31      0.19      0.00
    9    5   31     -0.45      0.00
   10    5   31     -0.65      0.00
  -10    6   31      0.28      0.00
   -9    6   31     -0.23      0.00
   -8    6   31      0.09      0.00
   -7    6   31      0.83      0.00
   -6    6   31      0.07      0.00
   -5    6   31     -0.23      0.00
   -4    6   31      0.97      0.00
   -3    6   31      0.67      0.00
   -2    6   31     -0.62      0.00
   -1    6   31      0.10      0.00
    0    6   31      0.20      0.00
    1    6   31      0.78      0.00
    2    6   31      0.43      0.00
    3    6   31     -1.13      0.00
    4    6   31      0.83      0.00
    5    6   31      0.26      0.00
    6    6   31     -0.37      0.00
    7    6   31     -1.41      0.00
    8    6   31     -0.04      0.00
   -7    7   31     -0.45      0.00
   -6    7   31      1.44      0.00
   -5    7   31      0.33      0.00
   -4    7   31     -0.55      0.00
   -3    7   31      0.56      0.00
   -2    7   31      0.05      0.00
   -1    7   31     -0.40      0.00
    0    7   31      0.64      0.00
    1    7   31      0.63      0.00
    2    7   31      0.21      0.00
    3    7   31      0.48      0.00
    4    7   31     -1.09      0.00
    5    7   31     -0.24      0.00
  -14    0   32     -0.38      0.00
  -12    0   32      0.67      0.00
  -10    0   32      0.81      0.00
   -8    0   32      0.74      0.00
   -6    0   32     -1.04      0.00
    6    0   32     -0.37      0.00
    8    0   32      0.77      0.00
   10    0   32      0.12      0.00
   12    0   32      0.28      0.00
  -14    1   32      0.39      0.00
  -13    1   32     -0.21      0.00
  -12    1   32      0.16      0.00
  -11    1   32      0.78      0.00
  -10    1   32      0.91      0.00
   -9    1   32      0.30      0.00
   -8    1   32     -0.89      0.00
   -7    1   32      0.93      0.00
   -6    1   32      1.92      0.00
   -5    1   32     -1.68      0.00
    6    1   32     -0.15      0.00
    7    1   32      0.81      0.00
    8    1   32     -0.02      0.00
    9    1   32     -0.75      0.00
   10    1   32      0.10      0.00
   11    1   32      1.28      0.00
   12    1   32      0.01      0.00
   13    1   32     -0.35      0.00
  -14    2   32     -0.11      0.00
  -13    2   32     -0.09      0.00
  -12    2   32     -0.55      0.00
  -11    2   32      1.24      0.00
  -10    2   32      0.18      0.00
   -9    2   32     -0.65      0.00
   -8    2   32      0.23      0.00
   -7    2   32      0.93      0.00
   -6    2   32      0.36      0.00
   -5    2   32      1.36      0.00
   -4    2   32      0.55      0.00
   -3    2   32      0.02      0.00
    4    2   32      0.11      0.00
    5    2   32      0.07      0.00
    6    2   32     -0.42      0.00
    7    2   32     -0.81      0.00
    8    2   32     -0.65      0.00
    9    2   32      1.24      0.00
   10    2   32     -0.05      0.00
   11    2   32     -0.89      0.00
   12    2   32      1.05      0.00
  -13    3   32     -0.40      0.00
  -12    3   32     -1.03      0.00
  -11    3   32     -1.02      0.00
  -10    3   32      1.28      0.00
   -9    3   32      0.03      0.00
   -8    3   32     -0.57      0.00
   -7    3   32     -0.35      0.00
   -6    3   32      1.41      0.00
   -5    3   32      1.21      0.00
   -4    3   32      0.29      0.00
   -3    3   32      0.30      0.00
   -2    3   32      0.43      0.00
   -1    3   32      0.56      0.00
    0    3   32     -0.88      0.00
    1    3   32     -0.77      0.00
    2    3   32      0.59      0.00
    3    3   32     -0.42      0.00
    4    3   32     -0.41      0.00
    5    3   32     -0.27      0.00
    6    3   32      0.42      0.00
    7    3   32     -1.01      0.00
    8    3   32     -1.14      0.00
    9    3   32     -0.83      0.00
   10    3   32      1.40      0.00
   11    3   32      0.46      0.00
  -12    4   32     -0.45      0.00
  -11    4   32     -0.19      0.00
  -10    4   32     -0.36      0.00
   -9    4   32      0.24      0.00
   -8    4   32     -1.08      0.00
   -7    4   32     -0.01      0.00
   -6    4   32      0.60      0.00
   -5    4   32      1.26      0.00
   -4    4   32      0.59      0.00
   -3    4   32     -0.31      0.00
   -2    4   32      0.96      0.00
   -1    4   32     -0.06      0.00
    0    4   32      0.01      0.00
    1    4   32      0.95      0.00
    2    4   32     -0.28      0.00
    3    4   32     -0.63      0.00
    4    4   32     -0.68      0.00
    5    4   32      0.59      0.00
    6    4   32     -0.72      0.00
    7    4   32     -0.22      0.00
    8    4   32     -1.02      0.00
    9    4   32     -0.85      0.00
   10    4   32     -0.16      0.00
  -10    5   32      0.23      0.00
   -9    5   32     -0.16      0.00
   -8    5   32      0.16      0.00
   -7    5   32     -0.12      0.00
   -6    5   32      0.11      0.00
   -5    5   32      0.11      0.00
   -4    5   32      1.20      0.00
   -3    5   32      0.82      0.00
   -2    5   32     -1.48      0.00
   -1    5   32      0.53      0.00
    0    5   32      1.41      0.00
    1    5   32      0.36      0.00
    2    5   32     -0.34      0.00
    3    5   32     -0.88      0.00
    4    5   32      0.78      0.00
    5    5   32     -0.03      0.00
    6    5   32      0.12      0.00
    7    5   32     -1.44      0.00
    8    5   32     -0.61      0.00
    9    5   32      0.06      0.00
   -8    6   32     -0.08      0.00
   -7    6   32      0.43      0.00
   -6    6   32      0.85      0.00
   -5    6   32     -0.03      0.00
   -4    6   32     -0.28      0.00
   -3    6   32      0.55      0.00
   -2    6   32      0.67      0.00
   -1    6   32     -0.90      0.00
    0    6   32      0.22      0.00
    1    6   32      0.94      0.00
    2    6   32      0.51      0.00
    3    6   32      0.32      0.00
    4    6   32     -1.05      0.00
    5    6   32      0.18      0.00
    6    6   32     -0.32      0.00
    7    6   32     -0.03      0.00
   -6    7   32      0.07      0.00
   -5    7   32     -0.16      0.00
   -4    7   32      0.33      0.00
   -3    7   32      0.39      0.00
   -2    7   32     -0.28      0.00
   -1    7   32     -0.17      0.00
    0    7   32      0.35      0.00
    1    7   32      0.94      0.00
  -13    0   33     -0.16      0.00
  -11    0   33      1.27      0.00
   -9    0   33      0.10      0.00
   -7    0   33      1.24      0.00
    7    0   33      0.72      0.00
    9    0   33     -0.13      0.00
   11    0   33      1.23      0.00
  -13    1   33      0.02      0.00
  -12    1   33      0.44      0.00
  -11    1   33      1.34      0.00
  -10    1   33      0.21      0.00
   -9    1   33     -0.86      0.00
   -8    1   33      0.89      0.00
   -7    1   33      0.74      0.00
   -6    1   33     -0.30      0.00
    7    1   33     -0.25      0.00
    8    1   33      0.48      0.00
    9    1   33      0.26      0.00
   10    1   33      0.27      0.00
   11    1   33     -0.16      0.00
   12    1   33      0.48      0.00
  -13    2   33     -0.02      0.00
  -12    2   33     -0.14      0.00
  -11    2   33     -0.74      0.00
  -10    2   33      1.45      0.00
   -9    2   33      0.54      0.00
   -8    2   33     -1.35      0.00
   -7    2   33      0.12      0.00
   -6    2   33      2.46      0.00
   -5    2   33      0.38      0.00
   -4    2   33     -0.76      0.00
    5    2   33     -0.31      0.00
    6    2   33      0.33      0.00
    7    2   33     -0.44      0.00
    8    2   33     -0.84      0.00
    9    2   33     -0.87      0.00
   10    2   33      1.10      0.00
   11    2   33      1.13      0.00
  -12    3   33     -0.62      0.00
  -11    3   33      0.16      0.00
  -10    3   33     -0.47      0.00
   -9    3   33      0.38      0.00
   -8    3   33     -0.65      0.00
   -7    3   33     -0.32      0.00
   -6    3   33      0.88      0.00
   -5    3   33      1.95      0.00
   -4    3   33      0.85      0.00
   -3    3   33     -0.62      0.00
   -2    3   33      0.59      0.00
   -1    3   33      0.10      0.00
    1    3   33      0.36      0.00
    2    3   33     -0.30      0.00
    3    3   33     -0.68      0.00
    4    3   33     -0.90      0.00
    5    3   33      0.41      0.00
    6    3   33     -0.07      0.00
    7    3   33     -0.71      0.00
    8    3   33     -1.61      0.00
    9    3   33      0.30      0.00
   10    3   33      0.04      0.00
  -11    4   33     -0.83      0.00
  -10    4   33      0.86      0.00
   -9    4   33     -0.59      0.00
   -8    4   33     -0.01      0.00
   -7    4   33     -0.69      0.00
   -6    4   33     -0.04      0.00
   -5    4   33      1.80      0.00
   -4    4   33      1.38      0.00
   -3    4   33     -0.52      0.00
   -2    4   33     -0.91      0.00
   -1    4   33      1.45      0.00
    0    4   33      0.72      0.00
    1    4   33     -0.40      0.00
    2    4   33      0.33      0.00
    3    4   33     -0.62      0.00
    4    4   33     -0.36      0.00
    5    4   33     -0.52      0.00
    6    4   33      0.57      0.00
    7    4   33     -0.94      0.00
    8    4   33     -1.15      0.00
    9    4   33     -0.74      0.00
   -9    5   33      0.26      0.00
   -8    5   33     -0.82      0.00
   -7    5   33      0.45      0.00
   -6    5   33      0.84      0.00
   -5    5   33     -0.07      0.00
   -4    5   33      0.12      0.00
   -3    5   33      0.81      0.00
   -2    5   33      0.46      0.00
   -1    5   33     -1.33      0.00
    0    5   33      0.69      0.00
    1    5   33      1.58      0.00
    2    5   33      0.05      0.00
    3    5   33     -0.10      0.00
    4    5   33     -0.87      0.00
    5    5   33      0.11      0.00
    6    5   33     -0.45      0.00
    7    5   33      0.33      0.00
   -6    6   33     -0.04      0.00
   -5    6   33     -0.39      0.00
   -4    6   33      0.79      0.00
   -3    6   33      0.44      0.00
   -2    6   33     -1.15      0.00
   -1    6   33      0.63      0.00
    0    6   33      0.66      0.00
    1    6   33      0.27      0.00
    2    6   33      0.22      0.00
    3    6   33     -0.36      0.00
    4    6   33      0.69      0.00
    5    6   33     -0.19      0.00
    6    6   33     -0.49      0.00
  -12    0   34      0.93      0.00
  -10    0   34     -0.03      0.00
   -8    0   34      1.31      0.00
    8    0   34      0.66      0.00
   10    0   34      0.52      0.00
  -12    1   34      0.24      0.00
  -11    1   34      0.19      0.00
  -10    1   34      1.13      0.00
   -9    1   34      0.48      0.00
   -8    1   34     -1.27      0.00
   -7    1   34      0.70      0.00
   -6    1   34      1.84      0.00
    7    1   34      0.15      0.00
    8    1   34     -0.23      0.00
    9    1   34     -0.57      0.00
   10    1   34      0.22      0.00
   11    1   34      1.59      0.00
  -12    2   34     -0.20      0.00
  -11    2   34      0.95      0.00
  -10    2   34     -0.40      0.00
   -9    2   34     -0.08      0.00
   -8    2   34      0.17      0.00
   -7    2   34     -0.30      0.00
   -6    2   34      0.77      0.00
   -5    2   34      2.00      0.00
    7    2   34     -0.42      0.00
    8    2   34     -0.35      0.00
    9    2   34      0.61      0.00
   10    2   34      0.00      0.00
  -10    3   34      1.09      0.00
   -9    3   34     -0.44      0.00
   -8    3   34     -0.54      0.00
   -7    3   34     -0.44      0.00
   -6    3   34      0.53      0.00
   -5    3   34      1.99      0.00
   -4    3   34      1.05      0.00
   -3    3   34     -0.18      0.00
    3    3   34     -0.01      0.00
    4    3   34     -1.37      0.00
    5    3   34     -0.90      0.00
    6    3   34      0.45      0.00
    7    3   34     -0.81      0.00
    8    3   34     -0.73      0.00
    9    3   34     -0.64      0.00
  -10    4   34     -0.69      0.00
   -9    4   34      0.53      0.00
   -8    4   34     -1.06      0.00
   -7    4   34     -0.37      0.00
   -6    4   34      0.79      0.00
   -5    4   34      0.98      0.00
   -4    4   34      1.04      0.00
   -3    4   34      0.00      0.00
   -2    4   34      0.15      0.00
   -1    4   34     -0.19      0.00
    0    4   34      0.35      0.00
    1    4   34      0.88      0.00
    2    4   34      0.12      0.00
    3    4   34     -0.23      0.00
    4    4   34     -1.21      0.00
    5    4   34     -0.08      0.00
    6    4   34     -0.12      0.00
    7    4   34      0.08      0.00
    8    4   34     -1.50      0.00
   -7    5   34     -0.10      0.00
   -6    5   34     -0.12      0.00
   -5    5   34      0.94      0.00
   -4    5   34      0.76      0.00
   -3    5   34     -0.39      0.00
   -2    5   34     -0.84      0.00
   -1    5   34      1.10      0.00
    0    5   34      0.68      0.00
    1    5   34      0.15      0.00
    2    5   34      0.09      0.00
    3    5   34     -0.37      0.00
    4    5   34      0.71      0.00
    5    5   34     -0.38      0.00
    6    5   34     -0.25      0.00
   -2    6   34      0.20      0.00
   -1    6   34     -1.35      0.00
    0    6   34      0.91      0.00
    1    6   34      1.07      0.00
  -11    0   35      0.52      0.00
   -9    0   35      0.45      0.00
    9    0   35     -0.12      0.00
  -11    1   35      1.16      0.00
  -10    1   35     -0.27      0.00
   -9    1   35     -0.38      0.00
   -8    1   35      1.08      0.00
   -7    1   35     -0.06      0.00
    8    1   35      0.88      0.00
    9    1   35      0.40      0.00
  -10    2   35      1.26      0.00
   -9    2   35      0.02      0.00
   -8    2   35     -0.98      0.00
   -7    2   35     -0.04      0.00
    8    2   35      0.05      0.00
    9    2   35     -0.70      0.00
   -9    3   35      0.97      0.00
   -8    3   35     -0.81      0.00
   -7    3   35     -1.20      0.00
   -6    3   35      1.27      0.00
   -5    3   35      1.67      0.00
   -4    3   35      0.68      0.00
    5    3   35     -0.36      0.00
    6    3   35     -0.51      0.00
    7    3   35     -0.50      0.00
    8    3   35     -1.42      0.00
   -7    4   35     -0.40      0.00
   -6    4   35     -0.70      0.00
   -5    4   35      2.02      0.00
   -4    4   35      1.63      0.00
   -3    4   35     -1.04      0.00
   -2    4   35     -0.89      0.00
   -1    4   35      1.92      0.00
    1    4   35     -0.95      0.00
    2    4   35      0.50      0.00
    3    4   35     -0.09      0.00
    4    4   35     -0.37      0.00
    5    4   35     -0.50      0.00
    6    4   35      0.08      0.00
   -4    5   35      0.80      0.00
   -3    5   35      0.25      0.00
   -2    5   35     -0.64      0.00
   -1    5   35     -0.61      0.00
    0    5   35      1.36      0.00
    1    5   35      1.04      0.00
    2    5   35     -0.23      0.00
    3    5   35     -0.13      0.00
  -10    0   36     -0.14      0.00
   -9    1   36      0.27      0.00
   -8    1   36     -0.64      0.00
   -9    2   36      0.76      0.00
   -8    2   36     -0.09      0.00
   -7    2   36     -1.05      0.00
   -7    3   36     -0.55      0.00
   -6    3   36     -0.52      0.00
   -5    3   36      2.48      0.00
   -4    4   36      1.36      0.00
   -3    4   36      0.29      0.00
   -2    4   36     -0.82      0.00
    3    4   36      0.03      0.00
   26    0    0     -0.41      0.00
   26    1    0     -0.53      0.00
   26    2    0     -1.12      0.00
   21    8    0      1.32      0.00
   20    9    0      1.30      0.00
   18   10    0      1.51      0.00
   12   12    0      0.11      0.00
    7   13    0      0.50      0.00
    8   13    0      0.61      0.00
   -1    0    1     45.59      0.00
    1    0    1     67.83      0.00
  -26    1    1     -1.58      0.00
   26    1    1      0.19      0.00
  -26    2    1      1.13      0.00
   26    2    1     -0.51      0.00
   22    7    1      0.94      0.00
   21    8    1     -0.47      0.00
  -20    9    1      0.30      0.00
   20    9    1      0.11      0.00
  -18   10    1      0.15      0.00
   18   10    1      0.25      0.00
  -12   12    1     -0.18      0.00
   12   12    1     -0.52      0.00
   -8   13    1      0.81      0.00
    7   13    1     -0.18      0.00
    8   13    1      1.22      0.00
  -26    0    2     -1.86      0.00
    0    0    2    123.12      0.00
   26    0    2      0.29      0.00
  -26    1    2      1.64      0.00
   -1    1    2     25.59      0.00
   26    1    2     -0.41      0.00
  -26    2    2     -2.21      0.00
   26    2    2      0.09      0.00
   22    7    2      0.71      0.00
   21    8    2      0.90      0.00
  -20    9    2     -1.03      0.00
  -18   10    2      1.08      0.00
   18   10    2      1.12      0.00
  -12   12    2      0.37      0.00
   12   12    2      0.06      0.00
   -8   13    2     -1.06      0.00
    7   13    2     -0.03      0.00
    8   13    2     -0.09      0.00
  -26    1    3     -2.39      0.00
   26    1    3      0.72      0.00
  -26    2    3      0.84      0.00
   26    2    3      0.60      0.00
   22    7    3      1.84      0.00
   21    8    3     -0.19      0.00
  -20    9    3      0.42      0.00
  -18   10    3      0.38      0.00
   12   12    3     -0.85      0.00
   -8   13    3     -0.40      0.00
   -6   13    3     -0.42      0.00
    7   13    3     -0.45      0.00
  -26    0    4     -2.97      0.00
    0    0    4     60.45      0.00
    2    0    4     -9.29      0.00
   26    0    4      1.24      0.00
  -26    1    4      0.84      0.00
    1    1    4     42.36      0.00
   26    1    4      0.26      0.00
  -26    2    4     -1.71      0.00
   26    2    4      0.35      0.00
   22    7    4      0.71      0.00
   21    8    4     -0.05      0.00
  -18   10    4     -0.57      0.00
  -15   11    4     -0.51      0.00
  -12   12    4      0.24      0.00
   12   12    4      0.30      0.00
   -6   13    4     -0.43      0.00
    6   13    4      1.04      0.00
    7   13    4      0.25      0.00
  -26    1    5     -2.10      0.00
   26    1    5      1.01      0.00
  -26    2    5      0.26      0.00
   26    2    5      1.07      0.00
   25    4    5      0.14      0.00
  -21    8    5     -0.58      0.00
   21    8    5      0.06      0.00
  -15   11    5     -0.25      0.00
   15   11    5     -0.74      0.00
  -12   12    5     -0.84      0.00
   12   12    5     -0.55      0.00
   -7   13    5     -0.61      0.00
   -6   13    5     -1.52      0.00
    6   13    5     -0.45      0.00
    7   13    5     -0.49      0.00
  -26    0    6     -0.92      0.00
   26    0    6      1.53      0.00
  -26    1    6      0.13      0.00
   26    1    6      0.51      0.00
  -26    2    6     -1.21      0.00
   24    5    6     -0.81      0.00
   23    6    6      0.79      0.00
  -21    8    6      1.26      0.00
   21    8    6     -0.96      0.00
   19    9    6     -0.61      0.00
   17   10    6      0.18      0.00
  -15   11    6     -0.56      0.00
   15   11    6     -0.98      0.00
  -12   12    6      0.12      0.00
   -7   13    6     -1.14      0.00
   -6   13    6     -1.95      0.00
    5   13    6     -0.57      0.00
    6   13    6      1.39      0.00
    7   13    6     -0.46      0.00
  -26    1    7     -0.69      0.00
  -26    2    7     -1.23      0.00
   25    3    7      0.76      0.00
  -25    4    7     -1.84      0.00
   24    5    7     -1.35      0.00
   23    6    7      1.29      0.00
   22    7    7      1.85      0.00
  -21    8    7     -0.61      0.00
   19    9    7      0.14      0.00
   17   10    7      1.49      0.00
  -15   11    7      0.16      0.00
   11   12    7     -0.17      0.00
   -6   13    7     -1.56      0.00
    5   13    7      1.44      0.00
    6   13    7      0.09      0.00
  -26    0    8     -0.31      0.00
  -26    1    8      0.04      0.00
   25    3    8      0.61      0.00
  -25    4    8      0.01      0.00
  -24    5    8     -0.30      0.00
   23    6    8      1.35      0.00
  -22    7    8     -0.78      0.00
   22    7    8      0.16      0.00
  -21    8    8      0.83      0.00
   20    8    8      0.86      0.00
  -19    9    8      0.11      0.00
   19    9    8      0.46      0.00
  -17   10    8      0.13      0.00
   17   10    8     -0.71      0.00
  -15   11    8     -0.60      0.00
  -14   11    8      0.43      0.00
   14   11    8     -0.18      0.00
  -11   12    8     -0.90      0.00
   11   12    8      0.64      0.00
   -6   13    8     -2.47      0.00
   -5   13    8     -1.59      0.00
   -4   13    8     -0.57      0.00
    4   13    8      0.92      0.00
    5   13    8     -1.86      0.00
    6   13    8      0.35      0.00
  -26    1    9      0.54      0.00
   25    2    9      0.73      0.00
   25    3    9     -0.40      0.00
   24    4    9      0.32      0.00
  -24    5    9     -0.32      0.00
  -22    7    9      0.11      0.00
  -19    9    9     -0.51      0.00
  -17   10    9      0.58      0.00
  -14   11    9     -1.36      0.00
   14   11    9      1.39      0.00
  -11   12    9      0.17      0.00
   -5   13    9     -2.80      0.00
   -4   13    9     -0.60      0.00
   -1   13    9     -0.29      0.00
    3   13    9     -1.04      0.00
    4   13    9     -1.49      0.00
    5   13    9      1.20      0.00
   25    2   10      0.29      0.00
   24    4   10      0.10      0.00
  -24    5   10     -0.77      0.00
  -23    6   10      0.50      0.00
  -22    7   10     -0.15      0.00
   20    8   10      1.25      0.00
  -19    9   10      0.40      0.00
  -17   10   10      0.40      0.00
  -14   11   10     -0.08      0.00
   13   11   10      0.61      0.00
   14   11   10     -0.16      0.00
   10   12   10     -0.07      0.00
   -4   13   10     -0.62      0.00
   -3   13   10      0.82      0.00
    1   13   10      1.04      0.00
    2   13   10     -1.06      0.00
    3   13   10      0.37      0.00
    4   13   10      0.62      0.00
   25    1   11      0.40      0.00
  -25    3   11      0.23      0.00
   24    3   11      1.12      0.00
  -24    4   11     -0.55      0.00
   24    4   11      1.09      0.00
   23    5   11      1.51      0.00
   21    7   11     -0.37      0.00
  -20    8   11      0.23      0.00
   18    9   11      0.22      0.00
  -16   10   11     -0.67      0.00
   16   10   11      0.36      0.00
  -14   11   11     -0.20      0.00
   13   11   11     -0.52      0.00
   10   12   11      0.06      0.00
   -3   13   11      0.48      0.00
   -2   13   11      0.27      0.00
   -1   13   11     -0.66      0.00
    0   13   11     -0.48      0.00
    1   13   11     -0.60      0.00
    2   13   11      1.10      0.00
    3   13   11     -0.56      0.00
  -25    1   12      0.59      0.00
  -25    2   12      1.10      0.00
   24    3   12      1.27      0.00
  -24    4   12      0.79      0.00
   23    5   12     -1.58      0.00
   22    6   12      0.20      0.00
   21    7   12      0.17      0.00
  -20    8   12     -0.99      0.00
  -18    9   12     -0.34      0.00
   18    9   12     -2.52      0.00
  -16   10   12     -1.12      0.00
  -13   11   12     -0.65      0.00
   13   11   12     -0.33      0.00
  -10   12   12      0.33      0.00
    9   12   12      0.32      0.00
    0   13   12     -0.95      0.00
  -25    0   13      1.13      0.00
  -25    1   13      0.54      0.00
  -25    2   13     -0.45      0.00
   24    2   13      1.49      0.00
  -24    3   13     -0.02      0.00
   24    3   13      1.71      0.00
  -24    4   13     -0.98      0.00
   23    4   13     -1.52      0.00
  -23    5   13      0.06      0.00
   22    5   13     -1.85      0.00
  -22    6   13      0.94      0.00
  -21    7   13      0.51      0.00
   19    8   13      0.48      0.00
  -18    9   13      0.98      0.00
   17    9   13      0.68      0.00
  -16   10   13     -0.02      0.00
  -15   10   13     -0.22      0.00
  -13   11   13      0.51      0.00
   12   11   13     -0.39      0.00
   -9   12   13     -0.38      0.00
  -25    1   14     -0.10      0.00
   24    2   14      0.86      0.00
  -24    3   14     -0.47      0.00
   23    4   14      1.36      0.00
  -23    5   14      0.09      0.00
   22    5   14      0.40      0.00
  -22    6   14      0.03      0.00
  -21    7   14     -0.40      0.00
   20    7   14     -0.79      0.00
   19    8   14     -1.51      0.00
  -17    9   14     -1.56      0.00
   17    9   14      1.11      0.00
  -15   10   14      0.97      0.00
   15   10   14     -0.76      0.00
   11   11   14      0.69      0.00
   12   11   14     -0.43      0.00
   -8   12   14     -0.31      0.00
   -7   12   14     -1.17      0.00
    8   12   14     -0.18      0.00
   24    1   15     -0.44      0.00
  -24    2   15     -0.25      0.00
  -24    3   15      0.09      0.00
   23    3   15      0.97      0.00
   22    5   15     -1.39      0.00
   20    7   15     -0.39      0.00
  -19    8   15      0.66      0.00
  -17    9   15      0.14      0.00
   16    9   15      1.22      0.00
  -15   10   15      0.45      0.00
  -12   11   15     -1.05      0.00
   11   11   15     -0.64      0.00
   -7   12   15     -0.12      0.00
    7   12   15      0.15      0.00
  -24    2   16     -0.76      0.00
   23    3   16     -1.42      0.00
  -23    4   16     -0.66      0.00
   22    4   16     -2.66      0.00
  -22    5   16      0.16      0.00
  -21    6   16      1.04      0.00
  -20    7   16     -0.11      0.00
   18    8   16     -0.79      0.00
  -17    9   16     -0.81      0.00
   16    9   16     -0.58      0.00
  -14   10   16      0.35      0.00
   14   10   16     -1.30      0.00
  -11   11   16     -0.25      0.00
   10   11   16     -0.43      0.00
   11   11   16      0.38      0.00
   -6   12   16     -0.33      0.00
    3   12   16     -0.26      0.00
    4   12   16     -0.15      0.00
    6   12   16      0.49      0.00
   23    0   17     -0.82      0.00
  -24    1   17     -0.91      0.00
   23    2   17     -1.30      0.00
   22    4   17     -0.51      0.00
  -22    5   17     -0.05      0.00
  -21    6   17     -0.10      0.00
   20    6   17      0.79      0.00
  -20    7   17      0.45      0.00
   19    7   17      0.12      0.00
  -18    8   17     -0.16      0.00
   17    8   17     -0.48      0.00
   15    9   17      1.89      0.00
  -14   10   17      1.32      0.00
  -11   11   17     -1.03      0.00
  -10   11   17     -0.37      0.00
    9   11   17     -0.97      0.00
   10   11   17     -0.03      0.00
   -5   12   17     -0.13      0.00
   -4   12   17     -0.22      0.00
   -3   12   17     -0.92      0.00
    1   12   17     -1.96      0.00
    2   12   17     -0.46      0.00
    3   12   17     -1.14      0.00
    4   12   17      0.67      0.00
   23    1   18     -1.15      0.00
  -23    3   18     -0.46      0.00
  -22    4   18      0.12      0.00
   21    5   18     -0.97      0.00
  -20    6   18      0.43      0.00
   20    6   18     -0.32      0.00
  -19    7   18      0.34      0.00
  -18    8   18      0.18      0.00
   17    8   18      0.02      0.00
  -16    9   18      1.70      0.00
   15    9   18      0.45      0.00
  -10   11   18     -1.06      0.00
   -9   11   18      0.14      0.00
    8   11   18     -0.69      0.00
    9   11   18     -0.22      0.00
   -3   12   18      0.04      0.00
   -2   12   18      0.13      0.00
   -1   12   18     -1.48      0.00
    0   12   18     -1.76      0.00
    1   12   18      0.60      0.00
    2   12   18     -0.73      0.00
  -23    2   19     -0.60      0.00
   22    2   19      0.49      0.00
   22    3   19     -1.54      0.00
  -22    4   19      0.96      0.00
  -20    6   19      0.27      0.00
  -19    7   19     -0.13      0.00
   16    8   19      0.01      0.00
   14    9   19     -1.65      0.00
  -13   10   19      0.54      0.00
   12   10   19      0.97      0.00
   -9   11   19     -0.75      0.00
   -8   11   19      0.82      0.00
    7   11   19     -0.01      0.00
    8   11   19     -1.26      0.00
   22    0   20     -1.73      0.00
  -23    1   20     -0.17      0.00
   22    1   20      0.08      0.00
   22    2   20     -1.18      0.00
  -22    3   20      0.82      0.00
  -21    5   20      0.08      0.00
   20    5   20     -0.35      0.00
  -20    6   20      0.17      0.00
   19    6   20      0.36      0.00
  -18    7   20      0.06      0.00
  -17    8   20      0.42      0.00
   16    8   20      0.26      0.00
  -15    9   20     -0.67      0.00
   13    9   20     -1.75      0.00
   14    9   20      0.84      0.00
  -12   10   20      0.30      0.00
   11   10   20      2.02      0.00
   -8   11   20     -0.22      0.00
    6   11   20      0.37      0.00
    7   11   20     -0.98      0.00
  -22    2   21      0.02      0.00
  -22    3   21      0.08      0.00
   21    3   21     -0.02      0.00
  -21    4   21     -0.23      0.00
  -20    5   21     -0.55      0.00
  -19    6   21     -0.14      0.00
  -18    7   21     -0.01      0.00
   17    7   21      0.25      0.00
   15    8   21     -0.46      0.00
  -14    9   21     -0.57      0.00
   12    9   21     -0.59      0.00
   13    9   21     -0.27      0.00
  -11   10   21     -0.25      0.00
   10   10   21      0.09      0.00
   -6   11   21     -0.78      0.00
   -5   11   21     -0.47      0.00
   -4   11   21      0.73      0.00
    5   11   21      1.50      0.00
  -22    0   22     -0.72      0.00
  -22    1   22     -0.49      0.00
  -22    2   22     -0.43      0.00
   21    2   22     -0.13      0.00
  -20    5   22     -0.60      0.00
   19    5   22     -1.51      0.00
  -19    6   22      0.64      0.00
  -18    6   22      0.19      0.00
   18    6   22     -0.11      0.00
  -10   10   22      0.10      0.00
    9   10   22     -0.03      0.00
   -5   11   22      0.15      0.00
   -4   11   22     -1.72      0.00
    0   11   22     -0.24      0.00
    1   11   22     -0.42      0.00
    3   11   22     -0.29      0.00
    4   11   22      1.00      0.00
  -21    3   23     -0.39      0.00
   20    3   23     -0.38      0.00
  -20    4   23     -0.26      0.00
   19    4   23     -1.60      0.00
  -19    5   23      1.09      0.00
   17    6   23      0.32      0.00
  -17    7   23      0.09      0.00
   16    7   23     -0.31      0.00
  -15    8   23     -0.12      0.00
   14    8   23      0.24      0.00
  -12    9   23      1.27      0.00
   -9   10   23      0.55      0.00
    8   10   23     -0.05      0.00
   20    0   24      0.27      0.00
   20    1   24      0.69      0.00
  -21    2   24     -0.94      0.00
   19    3   24     -0.83      0.00
  -16    7   24      0.34      0.00
   15    7   24     -0.17      0.00
   13    8   24      0.51      0.00
   -8   10   24      0.18      0.00
    6   10   24      0.24      0.00
    7   10   24     -1.36      0.00
   19    1   25      0.00      0.00
   19    2   25     -0.23      0.00
  -19    4   25     -0.23      0.00
   18    4   25     -1.25      0.00
  -18    5   25     -0.14      0.00
   17    5   25     -0.49      0.00
  -17    6   25     -0.24      0.00
   16    6   25     -0.38      0.00
  -15    7   25     -0.08      0.00
   12    8   25      0.10      0.00
  -10    9   25      0.48      0.00
    9    9   25      0.69      0.00
   -6   10   25      0.04      0.00
   -5   10   25     -0.76      0.00
   -4   10   25      0.07      0.00
    3   10   25     -0.75      0.00
    4   10   25      0.34      0.00
    5   10   25      0.79      0.00
  -20    0   26      1.21      0.00
    0    0   26     -0.66      0.00
  -20    1   26      0.37      0.00
   19    1   26     -1.21      0.00
   18    2   26      1.24      0.00
  -19    3   26     -0.16      0.00
   18    3   26     -0.17      0.00
  -18    4   26     -0.78      0.00
  -17    5   26     -0.61      0.00
   16    5   26      0.80      0.00
  -16    6   26     -0.39      0.00
   15    6   26     -0.51      0.00
   11    8   26      0.44      0.00
   -9    9   26      1.02      0.00
    7    9   26     -0.20      0.00
    8    9   26     -0.42      0.00
   -3   10   26      0.84      0.00
   -2   10   26      0.27      0.00
   -1   10   26     -0.26      0.00
    0   10   26      0.76      0.00
    1   10   26     -0.44      0.00
    2   10   26      0.18      0.00
  -19    0   27      0.53      0.00
   -1    0   27      0.11      0.00
    1    0   27     -2.23      0.00
  -19    1   27     -0.55      0.00
   18    1   27      1.22      0.00
  -19    2   27     -0.58      0.00
   18    2   27     -0.28      0.00
   16    4   27      0.44      0.00
   15    5   27      0.49      0.00
  -15    6   27     -0.09      0.00
   14    6   27      0.33      0.00
  -11    8   27      0.34      0.00
    9    8   27     -1.27      0.00
   10    8   27      1.11      0.00
   -8    9   27      0.76      0.00
   -7    9   27      0.44      0.00
   -6    9   27     -0.67      0.00
    5    9   27     -0.27      0.00
    6    9   27      1.02      0.00
  -18    0   28      0.85      0.00
   -2    0   28     -1.68      0.00
    0    0   28     -0.22      0.00
    2    0   28     -0.48      0.00
  -18    1   28     -0.53      0.00
    0    1   28     -1.33      0.00
   17    2   28     -0.01      0.00
  -18    3   28     -0.65      0.00
  -17    4   28     -0.43      0.00
   15    4   28      1.06      0.00
   16    4   28      0.14      0.00
  -16    5   28     -0.75      0.00
   14    5   28      0.16      0.00
   13    6   28      0.59      0.00
  -12    7   28      0.23      0.00
  -10    8   28     -0.08      0.00
    8    8   28     -0.99      0.00
    9    8   28      0.08      0.00
   -6    9   28      0.09      0.00
   -5    9   28      0.05      0.00
   -4    9   28      0.04      0.00
   -3    9   28     -0.96      0.00
    1    9   28     -0.04      0.00
    2    9   28     -0.78      0.00
    3    9   28      0.13      0.00
    4    9   28      0.04      0.00
   -1    0   29     -0.74      0.00
    1    0   29     -1.92      0.00
    3    0   29      1.70      0.00
  -18    1   29      0.38      0.00
   -1    1   29     -1.56      0.00
    0    1   29      0.05      0.00
    1    1   29     -0.35      0.00
    2    1   29     -0.54      0.00
  -17    2   29      0.19      0.00
  -17    3   29     -0.15      0.00
   15    3   29      0.16      0.00
  -16    4   29     -0.59      0.00
   14    4   29      0.42      0.00
   15    4   29      1.43      0.00
  -15    5   29     -0.49      0.00
   13    5   29      0.65      0.00
   14    5   29      0.37      0.00
   12    6   29     -0.45      0.00
  -11    7   29      0.25      0.00
   10    7   29     -0.07      0.00
   -8    8   29     -0.30      0.00
    6    8   29      0.05      0.00
    7    8   29      1.05      0.00
   -2    9   29     -0.52      0.00
   -1    9   29      0.95      0.00
    0    9   29      1.19      0.00
    1    9   29     -0.40      0.00
   -2    0   30     -1.50      0.00
    0    0   30      0.13      0.00
    2    0   30     -1.08      0.00
   16    0   30     -0.47      0.00
  -17    1   30      0.10      0.00
   -2    1   30      0.89      0.00
   -1    1   30     -1.06      0.00
    0    1   30     -1.98      0.00
    1    1   30     -1.42      0.00
    2    1   30      0.42      0.00
    3    1   30      1.22      0.00
   16    1   30     -0.22      0.00
  -16    2   30      0.44      0.00
  -16    3   30     -0.29      0.00
   14    3   30      1.01      0.00
   15    3   30      0.75      0.00
  -15    4   30     -0.61      0.00
   13    4   30      0.40      0.00
   14    4   30      0.99      0.00
  -14    5   30     -0.27      0.00
   12    5   30     -0.20      0.00
   13    5   30      0.38      0.00
  -12    6   30      0.58      0.00
   10    6   30     -0.25      0.00
   11    6   30     -1.13      0.00
  -10    7   30      0.69      0.00
    9    7   30     -0.17      0.00
   -6    8   30      0.84      0.00
   -5    8   30      0.29      0.00
    2    8   30      0.31      0.00
    3    8   30      0.47      0.00
    4    8   30     -1.04      0.00
    5    8   30     -0.70      0.00
   -3    0   31      2.37      0.00
   -1    0   31     -1.58      0.00
    1    0   31     -0.80      0.00
    3    0   31      0.95      0.00
   15    0   31      0.41      0.00
  -16    1   31     -0.14      0.00
   -3    1   31      0.13      0.00
   -2    1   31     -0.97      0.00
   -1    1   31     -1.06      0.00
    0    1   31      0.39      0.00
    1    1   31     -0.40      0.00
    2    1   31     -1.42      0.00
    3    1   31      0.55      0.00
    4    1   31      0.72      0.00
   15    1   31     -0.55      0.00
  -16    2   31     -0.24      0.00
   -1    2   31     -1.06      0.00
    0    2   31     -1.92      0.00
    1    2   31     -0.13      0.00
   14    2   31      1.05      0.00
   13    3   31      1.10      0.00
   14    3   31      0.74      0.00
  -14    4   31     -0.18      0.00
   12    4   31     -0.29      0.00
   13    4   31      0.46      0.00
  -13    5   31     -0.81      0.00
   11    5   31     -0.28      0.00
  -11    6   31     -0.65      0.00
    9    6   31      0.39      0.00
   10    6   31      0.05      0.00
   -8    7   31      0.23      0.00
    6    7   31      0.06      0.00
    7    7   31      0.03      0.00
   -3    8   31     -0.19      0.00
   -2    8   31      0.36      0.00
   -1    8   31      0.02      0.00
    0    8   31      0.62      0.00
    1    8   31      0.54      0.00
    2    8   31      0.17      0.00
   -4    0   32      0.97      0.00
   -2    0   32     -0.95      0.00
    0    0   32      0.67      0.00
    2    0   32     -1.14      0.00
    4    0   32      0.60      0.00
   14    0   32      0.46      0.00
  -15    1   32     -0.25      0.00
   -4    1   32     -0.68      0.00
   -3    1   32      2.56      0.00
   -2    1   32      0.80      0.00
   -1    1   32     -2.27      0.00
    0    1   32     -1.97      0.00
    1    1   32      0.57      0.00
    2    1   32      0.85      0.00
    3    1   32     -0.18      0.00
    4    1   32      0.14      0.00
    5    1   32     -0.59      0.00
   14    1   32      1.10      0.00
  -15    2   32     -0.34      0.00
   -2    2   32      0.29      0.00
   -1    2   32     -0.84      0.00
    0    2   32     -0.59      0.00
    1    2   32     -0.50      0.00
    2    2   32     -0.58      0.00
    3    2   32      0.50      0.00
   13    2   32      1.58      0.00
  -14    3   32     -0.19      0.00
   12    3   32     -0.54      0.00
   13    3   32      0.43      0.00
  -13    4   32     -0.85      0.00
   11    4   32      0.51      0.00
   12    4   32     -0.07      0.00
  -12    5   32     -1.08      0.00
  -11    5   32     -0.95      0.00
   10    5   32     -0.47      0.00
  -10    6   32     -0.45      0.00
   -9    6   32      0.36      0.00
    8    6   32     -0.54      0.00
    2    7   32      0.36      0.00
    3    7   32     -0.73      0.00
    4    7   32      0.23      0.00
    5    7   32     -0.33      0.00
   -5    0   33     -2.29      0.00
   -3    0   33      3.02      0.00
   -1    0   33     -2.53      0.00
    1    0   33      1.17      0.00
    3    0   33      0.00      0.00
    5    0   33     -0.96      0.00
   13    0   33     -0.64      0.00
  -14    1   33     -0.30      0.00
   -5    1   33      0.82      0.00
   -4    1   33      0.34      0.00
   -3    1   33     -0.23      0.00
   -2    1   33      0.37      0.00
   -1    1   33     -0.49      0.00
    0    1   33     -0.37      0.00
    1    1   33     -0.50      0.00
    2    1   33     -0.52      0.00
    3    1   33      0.44      0.00
    4    1   33      0.60      0.00
    5    1   33     -0.10      0.00
    6    1   33     -1.10      0.00
   13    1   33      0.61      0.00
  -14    2   33      0.09      0.00
   -3    2   33      1.26      0.00
   -2    2   33      1.11      0.00
   -1    2   33     -0.74      0.00
    0    2   33     -1.94      0.00
    1    2   33     -0.15      0.00
    2    2   33      0.97      0.00
    3    2   33     -0.43      0.00
    4    2   33     -0.59      0.00
   12    2   33     -0.28      0.00
  -13    3   33     -0.30      0.00
    0    3   33     -0.28      0.00
   11    3   33      0.15      0.00
  -12    4   33     -1.42      0.00
   10    4   33      0.48      0.00
  -10    5   33     -0.49      0.00
    8    5   33     -0.79      0.00
    9    5   33     -0.85      0.00
   -8    6   33      0.39      0.00
   -7    6   33      0.88      0.00
   -3    7   33      0.58      0.00
   -2    7   33      0.83      0.00
   -1    7   33     -0.79      0.00
    0    7   33     -0.13      0.00
    1    7   33      0.75      0.00
   -6    0   34     -0.53      0.00
   -4    0   34      0.11      0.00
   -2    0   34      0.33      0.00
    0    0   34      0.00      0.00
    2    0   34     -0.17      0.00
    4    0   34      0.52      0.00
    6    0   34     -1.30      0.00
  -13    1   34      0.21      0.00
   -5    1   34     -0.77      0.00
   -4    1   34     -0.69      0.00
   -3    1   34      1.81      0.00
   -2    1   34      0.48      0.00
   -1    1   34     -1.46      0.00
    0    1   34     -1.23      0.00
    1    1   34      0.90      0.00
    2    1   34      0.74      0.00
    3    1   34     -0.37      0.00
    4    1   34     -0.60      0.00
    5    1   34     -0.70      0.00
    6    1   34      0.18      0.00
   -4    2   34      0.38      0.00
   -3    2   34     -0.61      0.00
   -2    2   34      0.96      0.00
   -1    2   34     -0.54      0.00
    0    2   34     -0.72      0.00
    1    2   34      0.42      0.00
    2    2   34     -0.33      0.00
    3    2   34     -0.59      0.00
    4    2   34     -0.05      0.00
    5    2   34     -0.10      0.00
    6    2   34     -1.05      0.00
   11    2   34     -0.40      0.00
  -12    3   34     -0.55      0.00
  -11    3   34     -0.85      0.00
   -2    3   34     -0.14      0.00
   -1    3   34      1.11      0.00
    0    3   34     -0.54      0.00
    1    3   34     -1.08      0.00
    2    3   34      1.14      0.00
   10    3   34      0.77      0.00
    9    4   34     -0.77      0.00
   -8    5   34      0.36      0.00
    7    5   34     -0.81      0.00
   -5    6   34     -0.75      0.00
   -4    6   34     -0.12      0.00
   -3    6   34      0.97      0.00
    2    6   34     -0.10      0.00
    3    6   34      0.17      0.00
    4    6   34     -0.43      0.00
   -7    0   35      0.79      0.00
   -5    0   35     -0.85      0.00
   -3    0   35      1.39      0.00
   -1    0   35     -1.44      0.00
    1    0   35      1.54      0.00
    3    0   35     -0.28      0.00
    5    0   35     -0.91      0.00
    7    0   35      0.16      0.00
   -6    1   35     -0.08      0.00
   -5    1   35      1.12      0.00
   -4    1   35      0.34      0.00
   -3    1   35     -0.51      0.00
   -2    1   35      0.47      0.00
   -1    1   35     -0.35      0.00
    0    1   35     -0.29      0.00
    1    1   35     -0.01      0.00
    2    1   35      0.16      0.00
    3    1   35      0.05      0.00
    4    1   35      0.21      0.00
    5    1   35     -0.51      0.00
    6    1   35     -1.73      0.00
    7    1   35     -0.11      0.00
   10    1   35     -0.14      0.00
  -11    2   35     -0.46      0.00
   -6    2   35      1.07      0.00
   -5    2   35      1.30      0.00
   -4    2   35      0.22      0.00
   -3    2   35      0.38      0.00
   -2    2   35      0.49      0.00
   -1    2   35      0.25      0.00
    0    2   35     -1.53      0.00
    1    2   35     -0.48      0.00
    2    2   35      1.44      0.00
    3    2   35      0.02      0.00
    4    2   35     -1.32      0.00
    5    2   35     -1.09      0.00
    6    2   35     -0.24      0.00
    7    2   35     -0.30      0.00
  -10    3   35     -0.83      0.00
   -3    3   35     -0.02      0.00
   -2    3   35      0.83      0.00
   -1    3   35     -0.32      0.00
    0    3   35     -0.28      0.00
    1    3   35      0.69      0.00
    2    3   35     -0.37      0.00
    3    3   35     -0.47      0.00
    4    3   35     -0.62      0.00
   -8    4   35      0.21      0.00
    0    4   35      0.57      0.00
    7    4   35     -0.94      0.00
   -6    5   35      0.46      0.00
   -5    5   35     -0.02      0.00
    4    5   35     -0.64      0.00
    5    5   35      0.30      0.00
   -8    0   36      1.50      0.00
   -6    0   36     -0.61      0.00
   -4    0   36      0.35      0.00
   -2    0   36      0.23      0.00
    0    0   36     -0.20      0.00
    2    0   36      0.62      0.00
    4    0   36      0.31      0.00
    6    0   36     -1.94      0.00
    8    0   36      1.09      0.00
  -10    1   36      0.91      0.00
   -7    1   36      0.57      0.00
   -6    1   36      0.63      0.00
   -5    1   36      0.05      0.00
   -4    1   36      0.04      0.00
   -3    1   36      0.71      0.00
   -2    1   36      0.11      0.00
   -1    1   36     -0.42      0.00
    0    1   36     -0.82      0.00
    1    1   36      0.46      0.00
    2    1   36      0.66      0.00
    3    1   36      0.17      0.00
    4    1   36     -0.73      0.00
    5    1   36     -1.08      0.00
    6    1   36     -0.03      0.00
    7    1   36     -0.24      0.00
    8    1   36     -0.28      0.00
   -6    2   36      0.87      0.00
   -5    2   36      1.62      0.00
   -4    2   36      0.53      0.00
   -3    2   36     -0.47      0.00
   -2    2   36      0.78      0.00
   -1    2   36     -0.11      0.00
    0    2   36     -0.36      0.00
    1    2   36      0.19      0.00
    2    2   36     -0.31      0.00
    3    2   36     -0.42      0.00
    4    2   36      0.00      0.00
    5    2   36     -0.44      0.00
    6    2   36     -1.52      0.00
    7    2   36     -0.52      0.00
    8    2   36      0.04      0.00
   -8    3   36      0.02      0.00
   -4    3   36      1.28      0.00
   -3    3   36     -0.85      0.00
   -2    3   36     -0.09      0.00
   -1    3   36      1.54      0.00
    0    3   36     -0.30      0.00
    1    3   36     -0.94      0.00
    2    3   36      0.86      0.00
    3    3   36     -0.31      0.00
    4    3   36     -0.97      0.00
    5    3   36     -0.72      0.00
    6    3   36     -0.41      0.00
    7    3   36     -0.64      0.00
   -6    4   36      0.71      0.00
   -5    4   36      0.53      0.00
   -1    4   36     -0.12      0.00
    0    4   36      1.25      0.00
    1    4   36      0.60      0.00
    2    4   36     -0.44      0.00
    4    4   36     -0.95      0.00
    5    4   36     -0.24      0.00
   -1    5   36      0.65      0.00
   -7    0   37      0.69      0.00
   -5    0   37     -0.51      0.00
   -3    0   37      0.52      0.00
   -1    0   37     -0.31      0.00
    1    0   37      0.67      0.00
    3    0   37      0.01      0.00
    5    0   37     -0.46      0.00
   -8    1   37      0.83      0.00
   -7    1   37     -0.27      0.00
   -6    1   37     -0.01      0.00
   -5    1   37      0.68      0.00
   -4    1   37      0.36      0.00
   -3    1   37     -0.36      0.00
   -2    1   37      0.25      0.00
   -1    1   37     -0.04      0.00
    0    1   37      0.02      0.00
    1    1   37     -0.09      0.00
    2    1   37      0.08      0.00
    3    1   37     -0.10      0.00
    4    1   37      0.19      0.00
    5    1   37     -0.42      0.00
    6    1   37     -1.51      0.00
   -7    2   37      0.16      0.00
   -6    2   37     -0.33      0.00
   -5    2   37      1.47      0.00
   -4    2   37      0.96      0.00
   -3    2   37     -0.30      0.00
   -2    2   37     -0.27      0.00
   -1    2   37      0.88      0.00
    0    2   37     -0.39      0.00
    1    2   37     -0.57      0.00
    2    2   37      0.68      0.00
    3    2   37     -0.01      0.00
    4    2   37     -1.06      0.00
    5    2   37     -1.06      0.00
   -5    3   37      1.18      0.00
   -4    3   37      1.12      0.00
   -3    3   37      0.00      0.00
   -2    3   37      0.15      0.00
   -1    3   37     -0.01      0.00
    0    3   37      0.09      0.00
    1    3   37      0.54      0.00
    2    3   37     -0.24      0.00
    3    3   37     -0.32      0.00
    4    3   37     -0.63      0.00
    0    0    0      0.00      0.00
# SQUEEZE RESULTS (Version = 140518)
# Note: Data are Listed for all Voids in the P1 Unit Cell
# i.e. Centre of Gravity, Solvent Accessible Volume,
# Recovered number of Electrons in the Void and
# Details about the Squeezed Material
loop_
  _platon_squeeze_void_nr
  _platon_squeeze_void_average_x
  _platon_squeeze_void_average_y
  _platon_squeeze_void_average_z
  _platon_squeeze_void_volume
  _platon_squeeze_void_count_electrons
  _platon_squeeze_void_content
   1  0.000  0.000  0.000       261        74 ' '
   2  0.802  0.200  0.313         9         1 ' '
   3  0.500  0.500  0.500       260        74 ' '
   4  0.302  0.299  0.813         9         1 ' '
   5  0.698  0.700  0.186         9         1 ' '
   6  0.198  0.799  0.686         9         0 ' '
# Missing Reflections Below sin(th)/lambda = 0.25
loop_
  _platon_missing_refln_index_h
  _platon_missing_refln_index_k
  _platon_missing_refln_index_l
  _platon_missing_refln_theta
   -1    0    1     1.319
    1    0    1     1.358
    0    0    2     1.519
   -1    1    2     2.833
    0    0    4     3.038
    2    0    4     3.812
    1    1    4     3.908
_platon_squeeze_void_probe_radius                  1.20
_platon_squeeze_details
)
TITL x         P 21/n       R = 0.05
CELL   18.4777    9.4892   26.8332     90.00     91.81     90.00
SPGR P21/n
# Solvent Accessible Volume =       548
# Electrons Found in S.A.V. =       150
# Note: Atoms in Void are Labelled as Cxxx and Qxxx for all Others
C101 0.776 0.528 0.468 !       3.66 eA-3
Q102 0.663 0.530 0.560 !       2.64 eA-3
C103 0.546 0.557 0.486 !       2.12 eA-3
C104 0.652 0.368 0.463 !       1.52 eA-3
C105 0.873 0.962 0.045 !       1.43 eA-3
Q106 0.356 0.936 0.051 !       1.33 eA-3
C107 0.346 0.559 0.484 !       1.27 eA-3
C108 0.344 0.600 0.518 !       1.14 eA-3
C109 0.905 0.038 0.031 !       1.09 eA-3
Q110 0.920 0.154 0.303 !       0.96 eA-3
C111 0.382 0.598 0.491 !       0.80 eA-3
Q112 0.877 0.721 0.003 !       0.78 eA-3
Q113 0.027 0.061 0.989 !       0.78 eA-3
C114 0.799 0.941 0.041 !       0.78 eA-3
Q115 0.080 0.845 0.018 !       0.71 eA-3
Q116 0.427 0.219 0.396 !       0.69 eA-3
C117 0.387 0.535 0.483 !       0.67 eA-3
Q118 0.105 0.406 0.413 !       0.66 eA-3
C119 0.754 0.159 0.969 !       0.64 eA-3
Q120 0.444 0.316 0.431 !       0.63 eA-3
Q121 0.389 0.688 0.289 !       0.62 eA-3
Q122 0.468 0.780 0.739 !       0.59 eA-3
Q123 0.177 0.529 0.562 !       0.59 eA-3
C124 0.205 0.883 0.015 !       0.59 eA-3
Q125 0.689 0.219 0.358 !       0.58 eA-3
Q126 0.030 1.002 0.055 !       0.58 eA-3
Q127 0.804 0.941 0.983 !       0.57 eA-3
Q128 0.294 0.844 0.049 !       0.56 eA-3
Q129 0.371 0.342 0.478 !       0.56 eA-3
C130 0.797 0.911 0.092 !       0.55 eA-3
Q131 0.780 0.372 0.439 !       0.55 eA-3
Q132 0.719 0.563 0.108 !       0.55 eA-3
C133 0.206 0.032 0.994 !       0.54 eA-3
Q134 0.064 0.723 0.257 !       0.54 eA-3
Q135 0.847 0.491 0.937 !       0.53 eA-3
Q136 0.142 0.819 0.344 !       0.53 eA-3
Q137 0.069 0.594 0.244 !       0.51 eA-3
Q138 0.591 0.031 0.139 !       0.51 eA-3
C139 0.195 0.121 0.985 !       0.51 eA-3
Q140 0.760 0.181 0.008 !       0.51 eA-3
Q141 0.813 0.847 0.483 !       0.51 eA-3
Q142 0.643 0.904 0.366 !       0.51 eA-3
Q143 0.267 0.473 0.288 !       0.51 eA-3
Q144 0.078 0.965 0.060 !       0.51 eA-3
Q145 0.762 0.415 0.685 !       0.50 eA-3
Q146 0.253 0.125 0.563 !       0.50 eA-3
Q147 0.905 0.031 0.085 !       0.50 eA-3
)
;
_shelx_fab_checksum              70987
_platon_squeeze_void_probe_radius 1.20
_olex2_submission_special_instructions 'No special instructions were received'
loop_
_space_group_symop_operation_xyz
'x, y, z'
'-x+1/2, y+1/2, -z+1/2'
'-x, -y, -z'
'x-1/2, -y-1/2, z-1/2'
loop_
_atom_site_label
_atom_site_type_symbol
_atom_site_fract_x
_atom_site_fract_y
_atom_site_fract_z
_atom_site_U_iso_or_equiv
_atom_site_adp_type
_atom_site_occupancy
_atom_site_site_symmetry_order
_atom_site_calc_flag
_atom_site_refinement_flags_posn
_atom_site_refinement_flags_adp
_atom_site_refinement_flags_occupancy
_atom_site_disorder_assembly
_atom_site_disorder_group
Cd1 Cd 0.10431(2) 0.93873(2) 0.51591(2) 0.03041(5) Uani 1 1 d . . . . .
Cd2 Cd 0.48178(2) 0.33039(2) 0.32506(2) 0.03233(5) Uani 1 1 d . . . . .
Cl1 Cl 0.06923(5) 0.22701(9) 0.65179(3) 0.0592(2) Uani 1 1 d . . . . .
Cl2 Cl 0.03935(6) 0.86887(9) 0.69518(3) 0.0662(2) Uani 1 1 d . . . . .
Cl3 Cl 0.10910(5) 1.40795(9) 0.42065(4) 0.0683(3) Uani 1 1 d . . . . .
Cl4 Cl 0.35172(5) 0.00255(12) 0.44181(3) 0.0681(2) Uani 1 1 d . . . . .
O1 O 0.05878(13) 0.8560(3) 0.58761(8) 0.0607(6) Uani 1 1 d . . . . .
O2 O 0.12989(12) 0.6934(2) 0.55839(8) 0.0548(6) Uani 1 1 d . . . . .
O3 O 0.11087(12) 1.1738(2) 0.49154(11) 0.0649(7) Uani 1 1 d . . . . .
O4 O 0.00848(11) 1.12528(19) 0.52655(7) 0.0400(4) Uani 1 1 d . . . . .
N1 N 0.14983(12) 0.8528(2) 0.44211(8) 0.0354(5) Uani 1 1 d . . . . .
N2 N 0.36902(12) 0.4239(2) 0.31396(8) 0.0350(5) Uani 1 1 d . . . . .
N3 N 0.27031(11) 0.5572(2) 0.30783(8) 0.0347(5) Uani 1 1 d . . . . .
N4 N 0.55452(12) 0.5170(2) 0.33447(9) 0.0386(5) Uani 1 1 d . . . . .
N5 N 0.59057(13) 0.7368(2) 0.34872(10) 0.0452(6) Uani 1 1 d . . . . .
N6 N 0.77937(14) 1.0121(3) 0.44644(10) 0.0484(6) Uani 1 1 d . . . . .
C1 C 0.08871(16) 0.7393(3) 0.59066(11) 0.0452(7) Uani 1 1 d . . . . .
C2 C 0.07192(15) 0.6453(3) 0.63449(10) 0.0389(6) Uani 1 1 d . . . . .
C3 C 0.04653(16) 0.6916(3) 0.67986(11) 0.0403(6) Uani 1 1 d . . . . .
C4 C 0.02702(16) 0.5958(3) 0.71622(11) 0.0430(7) Uani 1 1 d . . . . .
H4 H 0.009986 0.629024 0.746277 0.052 Uiso 1 1 calc R . . . .
C5 C 0.03241(15) 0.4519(3) 0.70863(10) 0.0383(6) Uani 1 1 d . . . . .
C6 C 0.0099(2) 0.3525(3) 0.74895(11) 0.0486(8) Uani 1 1 d D . . . .
C7 C 0.05989(15) 0.4054(3) 0.66405(10) 0.0392(6) Uani 1 1 d . . . . .
C8 C 0.08027(15) 0.5013(3) 0.62797(10) 0.0411(6) Uani 1 1 d . . . . .
H8 H 0.099998 0.468118 0.598748 0.049 Uiso 1 1 calc R . . . .
C9 C 0.05056(15) 1.2094(3) 0.50642(10) 0.0373(6) Uani 1 1 d . . . . .
C10 C 0.02638(13) 1.3608(2) 0.50183(9) 0.0300(5) Uani 1 1 d . . . . .
C11 C 0.05002(14) 1.4553(3) 0.46651(10) 0.0346(6) Uani 1 1 d . . . . .
C12 C -0.02390(15) 1.4083(3) 0.53478(10) 0.0364(6) Uani 1 1 d . . . . .
H12 H -0.040794 1.346432 0.558663 0.044 Uiso 1 1 calc R . . . .
C13 C 0.11630(15) 0.8824(3) 0.39793(10) 0.0373(6) Uani 1 1 d . . . . .
H13 H 0.077185 0.944136 0.397405 0.045 Uiso 1 1 calc R . . . .
C14 C 0.13761(14) 0.8250(3) 0.35361(10) 0.0359(6) Uani 1 1 d . . . . .
H14 H 0.112792 0.847276 0.323959 0.043 Uiso 1 1 calc R . . . .
C15 C 0.19629(13) 0.7338(3) 0.35339(9) 0.0320(5) Uani 1 1 d . . . . .
C16 C 0.22980(14) 0.7011(3) 0.39881(10) 0.0374(6) Uani 1 1 d . . . . .
H16 H 0.268506 0.638486 0.400506 0.045 Uiso 1 1 calc R . . . .
C17 C 0.20488(14) 0.7629(3) 0.44143(10) 0.0372(6) Uani 1 1 d . . . . .
H17 H 0.228078 0.740314 0.471641 0.045 Uiso 1 1 calc R . . . .
C18 C 0.22187(15) 0.6789(3) 0.30379(10) 0.0411(6) Uani 1 1 d . . . . .
H18A H 0.179856 0.653185 0.283187 0.049 Uiso 1 1 calc R . . . .
H18B H 0.246710 0.754407 0.286951 0.049 Uiso 1 1 calc R . . . .
C19 C 0.34407(14) 0.5533(3) 0.30711(9) 0.0339(5) Uani 1 1 d . . . . .
C20 C 0.24666(15) 0.4200(3) 0.31491(9) 0.0377(6) Uani 1 1 d . . . . .
C21 C 0.30872(15) 0.3376(3) 0.31917(9) 0.0360(6) Uani 1 1 d . . . . .
C22 C 0.30393(17) 0.1939(3) 0.32738(11) 0.0468(7) Uani 1 1 d . . . . .
H22 H 0.345055 0.137748 0.330606 0.056 Uiso 1 1 calc R . . . .
C23 C 0.2356(2) 0.1381(4) 0.33054(13) 0.0598(9) Uani 1 1 d . . . . .
H23 H 0.230794 0.041831 0.335991 0.072 Uiso 1 1 calc R . . . .
C24 C 0.17321(19) 0.2205(4) 0.32588(13) 0.0604(9) Uani 1 1 d . . . . .
H24 H 0.128103 0.178181 0.328490 0.072 Uiso 1 1 calc R . . . .
C25 C 0.17722(17) 0.3630(4) 0.31750(11) 0.0518(8) Uani 1 1 d . . . . .
H25 H 0.135927 0.418502 0.313761 0.062 Uiso 1 1 calc R . . . .
C26 C 0.38985(15) 0.6793(3) 0.29866(11) 0.0418(6) Uani 1 1 d . . . . .
H26A H 0.362912 0.744423 0.277288 0.050 Uiso 1 1 calc R . . . .
H26B H 0.432375 0.650145 0.281042 0.050 Uiso 1 1 calc R . . . .
C27 C 0.41441(16) 0.7567(3) 0.34596(12) 0.0481(7) Uani 1 1 d . . . . .
H27A H 0.372280 0.779374 0.365085 0.058 Uiso 1 1 calc R . . . .
H27B H 0.437197 0.844688 0.336819 0.058 Uiso 1 1 calc R . . . .
C28 C 0.46762(16) 0.6714(3) 0.37876(11) 0.0454(7) Uani 1 1 d . . . . .
H28A H 0.478055 0.723322 0.409282 0.055 Uiso 1 1 calc R . . . .
H28B H 0.444860 0.583237 0.387753 0.055 Uiso 1 1 calc R . . . .
C29 C 0.53716(15) 0.6399(3) 0.35418(10) 0.0370(6) Uani 1 1 d . . . . .
C30 C 0.64674(16) 0.6706(3) 0.32482(12) 0.0465(7) Uani 1 1 d . . . . .
C31 C 0.62442(15) 0.5332(3) 0.31633(11) 0.0438(7) Uani 1 1 d . . . . .
C32 C 0.66973(18) 0.4370(4) 0.29455(14) 0.0618(9) Uani 1 1 d . . . . .
H32 H 0.655435 0.344245 0.288905 0.074 Uiso 1 1 calc R . . . .
C33 C 0.7377(2) 0.4849(5) 0.28141(16) 0.0792(12) Uani 1 1 d . . . . .
H33 H 0.769817 0.422573 0.267003 0.095 Uiso 1 1 calc R . . . .
C34 C 0.7585(2) 0.6231(5) 0.28935(16) 0.0739(11) Uani 1 1 d . . . . .
H34 H 0.803884 0.651959 0.279403 0.089 Uiso 1 1 calc R . . . .
C35 C 0.71450(18) 0.7184(4) 0.31128(14) 0.0641(10) Uani 1 1 d . . . . .
H35 H 0.729081 0.811014 0.316918 0.077 Uiso 1 1 calc R . . . .
C36 C 0.58862(18) 0.8853(3) 0.36264(15) 0.0597(9) Uani 1 1 d . . . . .
H36A H 0.545693 0.902990 0.381573 0.072 Uiso 1 1 calc R . . . .
H36B H 0.585325 0.942384 0.332658 0.072 Uiso 1 1 calc R . . . .
C37 C 0.65474(16) 0.9288(3) 0.39332(13) 0.0499(8) Uani 1 1 d . . . . .
C38 C 0.68525(19) 0.8452(3) 0.42980(14) 0.0601(9) Uani 1 1 d . . . . .
H38 H 0.664359 0.759139 0.437551 0.072 Uiso 1 1 calc R . . . .
C39 C 0.74725(19) 0.8899(4) 0.45498(13) 0.0565(9) Uani 1 1 d . . . . .
H39 H 0.767693 0.831027 0.479304 0.068 Uiso 1 1 calc R . . . .
C40 C 0.68602(19) 1.0577(4) 0.38501(15) 0.0652(10) Uani 1 1 d . . . . .
H40 H 0.666100 1.119111 0.361295 0.078 Uiso 1 1 calc R . . . .
C41 C 0.74762(19) 1.0944(4) 0.41255(15) 0.0682(11) Uani 1 1 d . . . . .
H41 H 0.767980 1.182420 0.406910 0.082 Uiso 1 1 calc R . . . .
C42 C 0.4826(2) 0.1901(4) 0.41497(13) 0.0571(9) Uani 1 1 d D . . . .
C43 C 0.48975(18) 0.0940(3) 0.45973(11) 0.0460(7) Uani 1 1 d . . . . .
C44 C 0.43559(17) 0.0014(3) 0.47320(11) 0.0463(7) Uani 1 1 d . . . . .
C45 C 0.44554(19) -0.0910(3) 0.51261(11) 0.0513(8) Uani 1 1 d . . . . .
H45 H 0.408332 -0.151974 0.520721 0.062 Uiso 1 1 calc R . . . .
O5 O 0.4706(3) 0.1383(4) 0.37496(14) 0.0761(14) Uani 0.736(7) 1 d D U P A 1
O6 O 0.4944(5) 0.3157(4) 0.42100(18) 0.122(2) Uani 0.736(7) 1 d D U P A 1
O7 O 0.05984(19) 0.3167(6) 0.78043(17) 0.0689(14) Uani 0.736(7) 1 d D U P A 1
O8 O -0.0502(2) 0.3067(7) 0.75155(19) 0.0898(19) Uani 0.736(7) 1 d D U P A 1
O5B O 0.5213(9) 0.1719(15) 0.3797(5) 0.098(4) Uani 0.264(7) 1 d D U P A 2
O6B O 0.4376(8) 0.2866(15) 0.4134(6) 0.104(4) Uani 0.264(7) 1 d D U P A 2
O7B O 0.0395(7) 0.2449(10) 0.7599(5) 0.069(3) Uani 0.264(7) 1 d D U P A 2
O8B O -0.0525(5) 0.3801(13) 0.7626(6) 0.073(4) Uani 0.264(7) 1 d D U P A 2
loop_
_atom_site_aniso_label
_atom_site_aniso_U_11
_atom_site_aniso_U_22
_atom_site_aniso_U_33
_atom_site_aniso_U_23
_atom_site_aniso_U_13
_atom_site_aniso_U_12
Cd1 0.03666(10) 0.02322(9) 0.03153(9) 0.00330(7) 0.00369(7) 0.00096(7)
Cd2 0.04033(11) 0.02511(9) 0.03166(10) -0.00377(7) 0.00278(7) -0.00027(8)
Cl1 0.0811(6) 0.0369(4) 0.0600(5) 0.0002(3) 0.0100(4) -0.0084(4)
Cl2 0.1008(7) 0.0349(4) 0.0639(5) 0.0063(4) 0.0159(5) -0.0055(4)
Cl3 0.0798(6) 0.0460(5) 0.0818(6) -0.0009(4) 0.0464(5) 0.0082(4)
Cl4 0.0646(6) 0.0841(7) 0.0552(5) 0.0073(5) -0.0057(4) -0.0095(5)
O1 0.0721(16) 0.0576(15) 0.0522(13) 0.0305(11) 0.0018(11) -0.0021(12)
O2 0.0662(15) 0.0598(14) 0.0388(11) 0.0072(10) 0.0056(10) -0.0257(12)
O3 0.0468(13) 0.0386(13) 0.110(2) 0.0112(12) 0.0110(13) 0.0179(10)
O4 0.0565(12) 0.0197(9) 0.0436(11) 0.0008(8) -0.0053(9) -0.0009(8)
N1 0.0403(12) 0.0318(12) 0.0343(11) 0.0010(9) 0.0044(9) 0.0014(10)
N2 0.0365(12) 0.0307(12) 0.0380(12) -0.0038(9) 0.0047(9) -0.0024(9)
N3 0.0325(11) 0.0388(12) 0.0330(11) -0.0052(9) 0.0023(8) 0.0008(10)
N4 0.0401(13) 0.0301(12) 0.0454(13) -0.0044(10) -0.0021(10) -0.0061(10)
N5 0.0422(13) 0.0294(12) 0.0634(16) -0.0058(11) -0.0081(11) -0.0065(10)
N6 0.0503(15) 0.0381(14) 0.0559(15) 0.0050(12) -0.0147(12) -0.0150(12)
C1 0.0472(17) 0.0501(19) 0.0376(15) 0.0166(13) -0.0085(12) -0.0227(14)
C2 0.0394(15) 0.0427(16) 0.0341(14) 0.0114(11) -0.0042(11) -0.0117(12)
C3 0.0431(15) 0.0344(15) 0.0430(15) 0.0090(12) -0.0017(11) -0.0060(12)
C4 0.0506(17) 0.0416(16) 0.0373(15) 0.0083(12) 0.0071(12) -0.0030(13)
C5 0.0409(15) 0.0371(15) 0.0371(14) 0.0101(11) 0.0024(11) -0.0059(12)
C6 0.070(2) 0.0410(18) 0.0356(15) 0.0068(12) 0.0105(14) -0.0114(16)
C7 0.0433(15) 0.0355(15) 0.0387(14) 0.0081(11) -0.0005(11) -0.0068(12)
C8 0.0469(16) 0.0447(16) 0.0318(14) 0.0044(12) 0.0028(11) -0.0114(13)
C9 0.0442(16) 0.0249(13) 0.0423(15) -0.0041(11) -0.0095(12) 0.0045(12)
C10 0.0302(13) 0.0204(12) 0.0392(13) -0.0023(9) -0.0041(10) -0.0002(9)
C11 0.0341(13) 0.0261(13) 0.0442(15) -0.0065(11) 0.0091(11) -0.0019(10)
C12 0.0437(15) 0.0214(12) 0.0443(15) 0.0034(10) 0.0076(11) -0.0051(11)
C13 0.0370(14) 0.0338(14) 0.0414(15) 0.0050(11) 0.0054(11) 0.0067(11)
C14 0.0354(14) 0.0392(15) 0.0330(13) 0.0053(11) 0.0002(10) -0.0001(11)
C15 0.0312(13) 0.0328(13) 0.0322(13) 0.0000(10) 0.0034(10) -0.0023(10)
C16 0.0321(14) 0.0423(16) 0.0377(14) -0.0008(11) -0.0004(10) 0.0073(12)
C17 0.0363(14) 0.0420(16) 0.0331(13) 0.0017(11) -0.0030(10) 0.0026(12)
C18 0.0388(15) 0.0500(17) 0.0344(14) -0.0019(12) -0.0005(11) 0.0092(13)
C19 0.0366(14) 0.0368(14) 0.0283(12) -0.0040(10) 0.0020(10) -0.0002(11)
C20 0.0415(15) 0.0460(17) 0.0256(12) -0.0063(11) 0.0034(10) -0.0054(12)
C21 0.0404(15) 0.0366(14) 0.0312(13) -0.0056(10) 0.0051(10) -0.0076(12)
C22 0.0513(18) 0.0383(17) 0.0508(17) -0.0012(13) 0.0027(13) -0.0062(14)
C23 0.070(2) 0.049(2) 0.061(2) 0.0000(16) 0.0064(17) -0.0245(18)
C24 0.050(2) 0.072(2) 0.059(2) -0.0050(18) 0.0070(15) -0.0259(18)
C25 0.0380(16) 0.070(2) 0.0471(17) -0.0070(16) 0.0022(13) -0.0084(15)
C26 0.0376(15) 0.0368(15) 0.0512(17) 0.0074(12) 0.0027(12) -0.0005(12)
C27 0.0378(16) 0.0319(15) 0.075(2) -0.0148(14) 0.0053(14) -0.0033(12)
C28 0.0520(18) 0.0421(17) 0.0422(16) -0.0154(13) 0.0018(13) -0.0064(14)
C29 0.0382(14) 0.0316(14) 0.0408(14) -0.0030(11) -0.0079(11) -0.0029(11)
C30 0.0398(16) 0.0420(17) 0.0572(18) 0.0015(14) -0.0060(13) -0.0083(13)
C31 0.0377(15) 0.0449(17) 0.0484(17) -0.0037(13) -0.0034(12) -0.0018(13)
C32 0.050(2) 0.054(2) 0.082(3) -0.0152(18) 0.0061(17) 0.0001(17)
C33 0.048(2) 0.089(3) 0.101(3) -0.024(3) 0.013(2) 0.006(2)
C34 0.044(2) 0.084(3) 0.094(3) -0.003(2) 0.0077(19) -0.011(2)
C35 0.0463(19) 0.062(2) 0.084(3) 0.002(2) 0.0004(17) -0.0146(18)
C36 0.054(2) 0.0315(16) 0.092(3) -0.0116(16) -0.0262(18) -0.0043(14)
C37 0.0433(17) 0.0334(16) 0.072(2) -0.0092(14) -0.0151(15) -0.0059(13)
C38 0.064(2) 0.0404(18) 0.075(2) 0.0082(16) -0.0161(18) -0.0198(16)
C39 0.062(2) 0.0473(19) 0.060(2) 0.0117(16) -0.0156(16) -0.0125(16)
C40 0.061(2) 0.0399(18) 0.092(3) 0.0142(17) -0.0348(19) -0.0134(16)
C41 0.062(2) 0.0424(19) 0.098(3) 0.0202(19) -0.032(2) -0.0215(17)
C42 0.071(2) 0.053(2) 0.048(2) 0.0175(16) 0.0055(16) -0.0029(18)
C43 0.0595(19) 0.0425(17) 0.0361(15) 0.0058(12) 0.0029(13) -0.0018(14)
C44 0.0544(19) 0.0451(17) 0.0393(15) 0.0005(13) -0.0010(13) -0.0020(15)
C45 0.064(2) 0.0455(18) 0.0446(17) 0.0068(13) 0.0051(14) -0.0144(15)
O5 0.118(4) 0.070(3) 0.041(2) 0.0174(17) 0.002(2) 0.009(3)
O6 0.218(7) 0.061(3) 0.086(3) 0.032(2) -0.026(4) -0.043(3)
O7 0.062(2) 0.074(3) 0.072(3) 0.046(2) 0.0131(18) 0.012(2)
O8 0.087(3) 0.122(4) 0.059(3) 0.045(3) -0.021(2) -0.076(3)
O5B 0.160(10) 0.070(7) 0.066(6) 0.033(5) 0.027(7) 0.039(8)
O6B 0.113(8) 0.092(8) 0.108(8) 0.069(6) 0.028(7) 0.031(7)
O7B 0.101(7) 0.041(6) 0.066(6) 0.027(5) 0.027(5) 0.011(5)
O8B 0.057(6) 0.077(7) 0.085(8) 0.048(6) 0.011(5) -0.034(5)
loop_
_atom_type_symbol
_atom_type_description
_atom_type_scat_dispersion_real
_atom_type_scat_dispersion_imag
_atom_type_scat_source
C C 0.0033 0.0016 'International Tables Vol C Tables 4.2.6.8 and 6.1.1.4'
H H 0.0000 0.0000 'International Tables Vol C Tables 4.2.6.8 and 6.1.1.4'
Cd Cd -0.8075 1.2024 'International Tables Vol C Tables 4.2.6.8 and 6.1.1.4'
Cl Cl 0.1484 0.1585 'International Tables Vol C Tables 4.2.6.8 and 6.1.1.4'
N N 0.0061 0.0033 'International Tables Vol C Tables 4.2.6.8 and 6.1.1.4'
O O 0.0106 0.0060 'International Tables Vol C Tables 4.2.6.8 and 6.1.1.4'
loop_
_geom_angle_atom_site_label_1
_geom_angle_atom_site_label_2
_geom_angle_atom_site_label_3
_geom_angle
_geom_angle_site_symmetry_1
_geom_angle_site_symmetry_3
_geom_angle_publ_flag
O1 Cd1 O2 52.49(8) . . ?
O1 Cd1 O3 126.49(9) . . ?
O1 Cd1 O4 82.31(8) . . ?
O1 Cd1 O4 88.60(8) . 3_576 ?
O1 Cd1 N1 139.18(9) . . ?
O1 Cd1 N6 93.54(9) . 3_676 ?
O1 Cd1 C9 104.97(9) . . ?
O2 Cd1 C9 157.31(8) . . ?
O3 Cd1 O2 163.73(8) . . ?
O3 Cd1 O4 53.38(7) . . ?
O3 Cd1 O4 99.20(8) . 3_576 ?
O3 Cd1 N6 82.96(9) . 3_676 ?
O3 Cd1 C9 26.54(8) . . ?
O4 Cd1 O2 133.53(7) . . ?
O4 Cd1 O2 97.02(6) 3_576 . ?
O4 Cd1 O4 68.47(7) 3_576 . ?
O4 Cd1 C9 26.84(7) . . ?
O4 Cd1 C9 83.59(7) 3_576 . ?
N1 Cd1 O2 89.64(7) . . ?
N1 Cd1 O3 94.20(8) . . ?
N1 Cd1 O4 80.81(7) . 3_576 ?
N1 Cd1 O4 128.04(7) . . ?
N1 Cd1 N6 94.81(9) . 3_676 ?
N1 Cd1 C9 112.74(8) . . ?
N6 Cd1 O2 80.96(8) 3_676 . ?
N6 Cd1 O4 116.05(8) 3_676 . ?
N6 Cd1 O4 175.22(8) 3_676 3_576 ?
N6 Cd1 C9 99.97(9) 3_676 . ?
N2 Cd2 C6 110.09(9) . 4_665 ?
N2 Cd2 O5 106.83(16) . . ?
N2 Cd2 O6 101.8(2) . . ?
N2 Cd2 O7 137.37(11) . 4_665 ?
N2 Cd2 O8 84.49(10) . 4_665 ?
N2 Cd2 O6B 82.4(3) . . ?
N2 Cd2 O8B 90.7(3) . 4_665 ?
N4 Cd2 N2 104.55(8) . . ?
N4 Cd2 C6 117.30(10) . 4_665 ?
N4 Cd2 O5 129.38(13) . . ?
N4 Cd2 O6 83.96(13) . . ?
N4 Cd2 O7 98.68(12) . 4_665 ?
N4 Cd2 O8 130.47(18) . 4_665 ?
N4 Cd2 O5B 106.2(6) . . ?
N4 Cd2 O6B 103.4(5) . . ?
N4 Cd2 O8B 142.5(2) . 4_665 ?
O5 Cd2 C6 87.36(12) . 4_665 ?
O5 Cd2 O6 51.45(12) . . ?
O5 Cd2 O7 83.87(17) . 4_665 ?
O5 Cd2 O8 91.41(19) . 4_665 ?
O5 Cd2 O8B 75.3(4) . 4_665 ?
O6 Cd2 C6 134.04(15) . 4_665 ?
O6 Cd2 O8B 126.7(4) . 4_665 ?
O7 Cd2 C6 27.71(11) 4_665 4_665 ?
O7 Cd2 O6 115.9(2) 4_665 . ?
O7 Cd2 O8 53.56(11) 4_665 4_665 ?
O7 Cd2 O8B 51.4(2) 4_665 4_665 ?
O8 Cd2 C6 25.85(10) 4_665 4_665 ?
O8 Cd2 O6 142.7(2) 4_665 . ?
O8 Cd2 O8B 16.2(3) 4_665 4_665 ?
O5B Cd2 N2 129.4(3) . . ?
O5B Cd2 O6B 52.0(2) . . ?
O5B Cd2 O8B 88.5(5) . 4_665 ?
O6B Cd2 O8B 112.5(6) . 4_665 ?
O7B Cd2 N2 119.2(4) 4_665 . ?
O7B Cd2 N4 92.41(19) 4_665 . ?
O7B Cd2 O5B 98.5(5) 4_665 . ?
O7B Cd2 O6B 149.3(4) 4_665 . ?
O7B Cd2 O8B 50.8(2) 4_665 4_665 ?
C1 O1 Cd1 100.9(2) . . ?
C1 O2 Cd1 83.48(18) . . ?
C9 O3 Cd1 96.61(18) . . ?
Cd1 O4 Cd1 111.53(7) 3_576 . ?
C9 O4 Cd1 119.69(17) . 3_576 ?
C9 O4 Cd1 87.17(16) . . ?
C13 N1 Cd1 120.46(17) . . ?
C17 N1 Cd1 122.35(17) . . ?
C17 N1 C13 116.9(2) . . ?
C19 N2 Cd2 133.92(18) . . ?
C19 N2 C21 106.4(2) . . ?
C21 N2 Cd2 119.34(17) . . ?
C19 N3 C18 129.0(2) . . ?
C19 N3 C20 107.2(2) . . ?
C20 N3 C18 123.8(2) . . ?
C29 N4 Cd2 126.25(19) . . ?
C29 N4 C31 106.2(2) . . ?
C31 N4 Cd2 127.24(18) . . ?
C29 N5 C30 107.4(2) . . ?
C29 N5 C36 127.0(3) . . ?
C30 N5 C36 125.5(3) . . ?
C39 N6 Cd1 119.9(2) . 3_676 ?
C39 N6 C41 116.4(3) . . ?
C41 N6 Cd1 123.2(2) . 3_676 ?
O1 C1 C2 118.4(3) . . ?
O2 C1 O1 123.1(3) . . ?
O2 C1 C2 118.5(3) . . ?
C3 C2 C1 125.2(3) . . ?
C8 C2 C1 117.1(3) . . ?
C8 C2 C3 117.6(2) . . ?
C2 C3 Cl2 122.9(2) . . ?
C2 C3 C4 120.7(3) . . ?
C4 C3 Cl2 116.3(2) . . ?
C3 C4 H4 119.3 . . ?
C5 C4 C3 121.4(3) . . ?
C5 C4 H4 119.3 . . ?
C4 C5 C6 119.3(3) . . ?
C7 C5 C4 118.1(2) . . ?
C7 C5 C6 122.6(3) . . ?
C5 C6 Cd2 174.8(2) . 4_566 ?
O7 C6 Cd2 59.3(2) . 4_566 ?
O7 C6 C5 115.6(3) . . ?
O8 C6 Cd2 61.9(3) . 4_566 ?
O8 C6 C5 123.2(4) . . ?
O8 C6 O7 121.1(4) . . ?
O7B C6 C5 125.4(6) . . ?
O8B C6 C5 111.0(6) . . ?
O8B C6 O7B 122.0(7) . . ?
C5 C7 Cl1 121.0(2) . . ?
C5 C7 C8 120.5(3) . . ?
C8 C7 Cl1 118.4(2) . . ?
C2 C8 C7 121.6(3) . . ?
C2 C8 H8 119.2 . . ?
C7 C8 H8 119.2 . . ?
O3 C9 Cd1 56.85(15) . . ?
O3 C9 O4 122.8(3) . . ?
O3 C9 C10 119.9(3) . . ?
O4 C9 Cd1 65.99(14) . . ?
O4 C9 C10 117.2(2) . . ?
C10 C9 Cd1 176.11(19) . . ?
C11 C10 C9 125.0(2) . . ?
C11 C10 C12 117.4(2) . . ?
C12 C10 C9 117.6(2) . . ?
C10 C11 Cl3 122.54(19) . . ?
C12 C11 Cl3 117.0(2) 3_586 . ?
C12 C11 C10 120.4(2) 3_586 . ?
C10 C12 H12 118.9 . . ?
C11 C12 C10 122.2(2) 3_586 . ?
C11 C12 H12 118.9 3_586 . ?
N1 C13 H13 118.6 . . ?
N1 C13 C14 122.7(2) . . ?
C14 C13 H13 118.6 . . ?
C13 C14 H14 120.2 . . ?
C13 C14 C15 119.7(2) . . ?
C15 C14 H14 120.2 . . ?
C14 C15 C18 118.9(2) . . ?
C16 C15 C14 117.6(2) . . ?
C16 C15 C18 123.5(2) . . ?
C15 C16 H16 120.5 . . ?
C15 C16 C17 118.9(2) . . ?
C17 C16 H16 120.5 . . ?
N1 C17 C16 124.1(2) . . ?
N1 C17 H17 117.9 . . ?
C16 C17 H17 117.9 . . ?
N3 C18 C15 114.4(2) . . ?
N3 C18 H18A 108.7 . . ?
N3 C18 H18B 108.7 . . ?
C15 C18 H18A 108.7 . . ?
C15 C18 H18B 108.7 . . ?
H18A C18 H18B 107.6 . . ?
N2 C19 N3 111.5(2) . . ?
N2 C19 C26 124.8(2) . . ?
N3 C19 C26 123.7(2) . . ?
N3 C20 C21 106.0(2) . . ?
N3 C20 C25 131.6(3) . . ?
C25 C20 C21 122.4(3) . . ?
N2 C21 C20 108.8(2) . . ?
N2 C21 C22 130.5(3) . . ?
C22 C21 C20 120.7(3) . . ?
C21 C22 H22 121.5 . . ?
C23 C22 C21 116.9(3) . . ?
C23 C22 H22 121.5 . . ?
C22 C23 H23 118.8 . . ?
C22 C23 C24 122.4(3) . . ?
C24 C23 H23 118.8 . . ?
C23 C24 H24 119.4 . . ?
C25 C24 C23 121.2(3) . . ?
C25 C24 H24 119.4 . . ?
C20 C25 H25 121.8 . . ?
C24 C25 C20 116.4(3) . . ?
C24 C25 H25 121.8 . . ?
C19 C26 H26A 108.6 . . ?
C19 C26 H26B 108.6 . . ?
C19 C26 C27 114.6(2) . . ?
H26A C26 H26B 107.6 . . ?
C27 C26 H26A 108.6 . . ?
C27 C26 H26B 108.6 . . ?
C26 C27 H27A 109.0 . . ?
C26 C27 H27B 109.0 . . ?
C26 C27 C28 113.1(2) . . ?
H27A C27 H27B 107.8 . . ?
C28 C27 H27A 109.0 . . ?
C28 C27 H27B 109.0 . . ?
C27 C28 H28A 108.9 . . ?
C27 C28 H28B 108.9 . . ?
H28A C28 H28B 107.7 . . ?
C29 C28 C27 113.4(3) . . ?
C29 C28 H28A 108.9 . . ?
C29 C28 H28B 108.9 . . ?
N4 C29 N5 111.5(3) . . ?
N4 C29 C28 125.1(2) . . ?
N5 C29 C28 123.4(2) . . ?
N5 C30 C35 131.7(3) . . ?
C31 C30 N5 106.2(3) . . ?
C31 C30 C35 122.0(3) . . ?
N4 C31 C32 130.7(3) . . ?
C30 C31 N4 108.6(3) . . ?
C30 C31 C32 120.7(3) . . ?
C31 C32 H32 121.4 . . ?
C31 C32 C33 117.1(3) . . ?
C33 C32 H32 121.4 . . ?
C32 C33 H33 119.4 . . ?
C34 C33 C32 121.3(4) . . ?
C34 C33 H33 119.4 . . ?
C33 C34 H34 119.0 . . ?
C33 C34 C35 122.1(4) . . ?
C35 C34 H34 119.0 . . ?
C30 C35 H35 121.6 . . ?
C34 C35 C30 116.8(4) . . ?
C34 C35 H35 121.6 . . ?
N5 C36 H36A 109.2 . . ?
N5 C36 H36B 109.2 . . ?
N5 C36 C37 112.2(3) . . ?
H36A C36 H36B 107.9 . . ?
C37 C36 H36A 109.2 . . ?
C37 C36 H36B 109.2 . . ?
C38 C37 C36 122.7(3) . . ?
C38 C37 C40 117.8(3) . . ?
C40 C37 C36 119.5(3) . . ?
C37 C38 H38 120.3 . . ?
C37 C38 C39 119.4(3) . . ?
C39 C38 H38 120.3 . . ?
N6 C39 C38 123.6(3) . . ?
N6 C39 H39 118.2 . . ?
C38 C39 H39 118.2 . . ?
C37 C40 H40 120.6 . . ?
C37 C40 C41 118.8(3) . . ?
C41 C40 H40 120.6 . . ?
N6 C41 C40 124.0(3) . . ?
N6 C41 H41 118.0 . . ?
C40 C41 H41 118.0 . . ?
O5 C42 C43 118.4(4) . . ?
O5 C42 O6 123.2(4) . . ?
O6 C42 C43 118.2(4) . . ?
O5B C42 C43 119.6(6) . . ?
O5B C42 O6B 119.3(7) . . ?
O6B C42 C43 121.0(6) . . ?
C44 C43 C42 122.9(3) . . ?
C44 C43 C45 117.6(3) . 3_656 ?
C45 C43 C42 119.4(3) 3_656 . ?
C43 C44 Cl4 120.5(2) . . ?
C45 C44 Cl4 118.0(2) . . ?
C45 C44 C43 121.4(3) . . ?
C43 C45 H45 119.5 3_656 . ?
C44 C45 C43 121.0(3) . 3_656 ?
C44 C45 H45 119.5 . . ?
C42 O5 Cd2 100.5(3) . . ?
C42 O6 Cd2 84.9(3) . . ?
C6 O7 Cd2 93.0(2) . 4_566 ?
C6 O8 Cd2 92.3(3) . 4_566 ?
C42 O5B Cd2 103.3(6) . . ?
C42 O6B Cd2 85.3(5) . . ?
C6 O7B Cd2 104.1(6) . 4_566 ?
C6 O8B Cd2 79.9(5) . 4_566 ?
loop_
_geom_bond_atom_site_label_1
_geom_bond_atom_site_label_2
_geom_bond_distance
_geom_bond_site_symmetry_2
_geom_bond_publ_flag
Cd1 O1 2.265(2) . ?
Cd1 O2 2.629(2) . ?
Cd1 O3 2.328(2) . ?
Cd1 O4 2.5263(19) . ?
Cd1 O4 2.4207(19) 3_576 ?
Cd1 N1 2.324(2) . ?
Cd1 N6 2.392(2) 3_676 ?
Cd1 C9 2.762(3) . ?
Cd2 N2 2.275(2) . ?
Cd2 N4 2.233(2) . ?
Cd2 C6 2.742(3) 4_665 ?
Cd2 O5 2.275(4) . ?
Cd2 O6 2.581(5) . ?
Cd2 O7 2.361(4) 4_665 ?
Cd2 O8 2.420(5) 4_665 ?
Cd2 O5B 2.208(11) . ?
Cd2 O6B 2.566(11) . ?
Cd2 O7B 2.197(10) 4_665 ?
Cd2 O8B 2.671(12) 4_665 ?
Cl1 C7 1.734(3) . ?
Cl2 C3 1.738(3) . ?
Cl3 C11 1.730(3) . ?
Cl4 C44 1.740(3) . ?
O1 C1 1.240(4) . ?
O2 C1 1.249(4) . ?
O3 C9 1.243(3) . ?
O4 C9 1.249(3) . ?
N1 C13 1.350(3) . ?
N1 C17 1.328(3) . ?
N2 C19 1.323(3) . ?
N2 C21 1.393(3) . ?
N3 C18 1.463(3) . ?
N3 C19 1.364(3) . ?
N3 C20 1.388(3) . ?
N4 C29 1.325(3) . ?
N4 C31 1.403(4) . ?
N5 C29 1.360(3) . ?
N5 C30 1.388(4) . ?
N5 C36 1.459(4) . ?
N6 C39 1.326(4) . ?
N6 C41 1.322(4) . ?
C1 C2 1.516(4) . ?
C2 C3 1.390(4) . ?
C2 C8 1.387(4) . ?
C3 C4 1.389(4) . ?
C4 H4 0.9300 . ?
C4 C5 1.385(4) . ?
C5 C6 1.504(4) . ?
C5 C7 1.386(4) . ?
C6 O7 1.277(5) . ?
C6 O8 1.197(4) . ?
C6 O7B 1.191(7) . ?
C6 O8B 1.248(7) . ?
C7 C8 1.389(4) . ?
C8 H8 0.9300 . ?
C9 C10 1.508(3) . ?
C10 C11 1.386(3) . ?
C10 C12 1.378(3) . ?
C11 C12 1.382(3) 3_586 ?
C12 H12 0.9300 . ?
C13 H13 0.9300 . ?
C13 C14 1.377(4) . ?
C14 H14 0.9300 . ?
C14 C15 1.388(4) . ?
C15 C16 1.385(4) . ?
C15 C18 1.518(3) . ?
C16 H16 0.9300 . ?
C16 C17 1.378(4) . ?
C17 H17 0.9300 . ?
C18 H18A 0.9700 . ?
C18 H18B 0.9700 . ?
C19 C26 1.486(4) . ?
C20 C21 1.390(4) . ?
C20 C25 1.396(4) . ?
C21 C22 1.385(4) . ?
C22 H22 0.9300 . ?
C22 C23 1.374(4) . ?
C23 H23 0.9300 . ?
C23 C24 1.396(5) . ?
C24 H24 0.9300 . ?
C24 C25 1.373(5) . ?
C25 H25 0.9300 . ?
C26 H26A 0.9700 . ?
C26 H26B 0.9700 . ?
C26 C27 1.523(4) . ?
C27 H27A 0.9700 . ?
C27 H27B 0.9700 . ?
C27 C28 1.530(4) . ?
C28 H28A 0.9700 . ?
C28 H28B 0.9700 . ?
C28 C29 1.493(4) . ?
C30 C31 1.385(4) . ?
C30 C35 1.391(4) . ?
C31 C32 1.381(4) . ?
C32 H32 0.9300 . ?
C32 C33 1.392(5) . ?
C33 H33 0.9300 . ?
C33 C34 1.381(6) . ?
C34 H34 0.9300 . ?
C34 C35 1.362(5) . ?
C35 H35 0.9300 . ?
C36 H36A 0.9700 . ?
C36 H36B 0.9700 . ?
C36 C37 1.509(4) . ?
C37 C38 1.367(4) . ?
C37 C40 1.374(4) . ?
C38 H38 0.9300 . ?
C38 C39 1.378(4) . ?
C39 H39 0.9300 . ?
C40 H40 0.9300 . ?
C40 C41 1.382(4) . ?
C41 H41 0.9300 . ?
C42 C43 1.510(4) . ?
C42 O5 1.195(5) . ?
C42 O6 1.222(5) . ?
C42 O5B 1.217(8) . ?
C42 O6B 1.236(8) . ?
C43 C44 1.388(4) . ?
C43 C45 1.388(4) 3_656 ?
C44 C45 1.381(4) . ?
C45 H45 0.9300 . ?
loop_
_platon_squeeze_void_nr
_platon_squeeze_void_average_x
_platon_squeeze_void_average_y
_platon_squeeze_void_average_z
_platon_squeeze_void_volume
_platon_squeeze_void_count_electrons
_platon_squeeze_void_content
1 0.000 0.000 0.000 261 74 ' '
2 0.802 0.200 0.313 9 1 ' '
3 0.500 0.500 0.500 260 74 ' '
4 0.302 0.299 0.813 9 1 ' '
5 0.698 0.700 0.186 9 1 ' '
6 0.198 0.799 0.686 9 0 ' '
