#------------------------------------------------------------------------------
#$Date: 2020-03-17 04:32:56 +0200 (Tue, 17 Mar 2020) $
#$Revision: 249423 $
#$URL: file:///home/coder/svn-repositories/cod/cif/7/24/01/7240133.cif $
#------------------------------------------------------------------------------
#
# This file is available in the Crystallography Open Database (COD),
# http://www.crystallography.net/
#
# All data on this site have been placed in the public domain by the
# contributors.
#
data_7240133
loop_
_publ_author_name
'Zhang, Yuanbin'
'Wang, Lingyao'
'Hu, Jianbo'
'Duttwyler, Simon'
'Cui, Xili'
'Xing, Huabin'
_publ_section_title
;
 Solvent dependant supramolecular self-assembly of boron cage pillared
 metal-organic frameworks for selective gas separation
;
_journal_name_full               CrystEngComm
_journal_paper_doi               10.1039/D0CE00142B
_journal_year                    2020
_chemical_formula_sum            'C20 H16 B12 Cu N8'
_chemical_formula_weight         561.67
_space_group_crystal_system      tetragonal
_space_group_IT_number           85
_space_group_name_Hall           '-P 4a'
_space_group_name_H-M_alt        'P 4/n :2'
_atom_sites_solution_hydrogens   geom
_audit_creation_method           SHELXL-2018/3
_audit_update_record
;
2019-05-21 deposited with the CCDC.	2020-03-16 downloaded from the CCDC.
;
_cell_angle_alpha                90
_cell_angle_beta                 90
_cell_angle_gamma                90
_cell_formula_units_Z            2
_cell_length_a                   18.1416(15)
_cell_length_b                   18.1416(15)
_cell_length_c                   9.9851(7)
_cell_measurement_reflns_used    3540
_cell_measurement_temperature    173(2)
_cell_measurement_theta_max      25.31
_cell_measurement_theta_min      2.25
_cell_volume                     3286.3(4)
_computing_structure_refinement  'SHELXL-2018/3 (Sheldrick, 2018)'
_computing_structure_solution    'SHELXT 2014/5 (Sheldrick, 2014)'
_diffrn_ambient_temperature      173(2)
_diffrn_measured_fraction_theta_full 0.994
_diffrn_measured_fraction_theta_max 0.994
_diffrn_measurement_device_type  'Bruker APEX-II CCD'
_diffrn_measurement_method       '\f and \w scans'
_diffrn_radiation_type           MoK\a
_diffrn_radiation_wavelength     0.71073
_diffrn_reflns_av_R_equivalents  0.0756
_diffrn_reflns_av_unetI/netI     0.0553
_diffrn_reflns_Laue_measured_fraction_full 0.994
_diffrn_reflns_Laue_measured_fraction_max 0.994
_diffrn_reflns_limit_h_max       20
_diffrn_reflns_limit_h_min       -21
_diffrn_reflns_limit_k_max       21
_diffrn_reflns_limit_k_min       -11
_diffrn_reflns_limit_l_max       11
_diffrn_reflns_limit_l_min       -11
_diffrn_reflns_number            14922
_diffrn_reflns_point_group_measured_fraction_full 0.994
_diffrn_reflns_point_group_measured_fraction_max 0.994
_diffrn_reflns_theta_full        25.007
_diffrn_reflns_theta_max         25.007
_diffrn_reflns_theta_min         2.245
_exptl_absorpt_coefficient_mu    0.344
_exptl_crystal_density_diffrn    0.568
_exptl_crystal_description       block
_exptl_crystal_F_000             562
_exptl_crystal_size_max          0.220
_exptl_crystal_size_mid          0.190
_exptl_crystal_size_min          0.150
_refine_diff_density_max         1.147
_refine_diff_density_min         -0.388
_refine_diff_density_rms         0.089
_refine_ls_extinction_method     none
_refine_ls_goodness_of_fit_ref   0.983
_refine_ls_hydrogen_treatment    constr
_refine_ls_matrix_type           full
_refine_ls_number_parameters     149
_refine_ls_number_reflns         2888
_refine_ls_number_restraints     42
_refine_ls_restrained_S_all      1.002
_refine_ls_R_factor_all          0.0971
_refine_ls_R_factor_gt           0.0734
_refine_ls_shift/su_max          0.000
_refine_ls_shift/su_mean         0.000
_refine_ls_structure_factor_coef Fsqd
_refine_ls_weighting_details
'w=1/[\s^2^(Fo^2^)+(0.1340P)^2^+3.7837P] where P=(Fo^2^+2Fc^2^)/3'
_refine_ls_weighting_scheme      calc
_refine_ls_wR_factor_gt          0.1931
_refine_ls_wR_factor_ref         0.2107
_reflns_Friedel_coverage         0.000
_reflns_number_gt                2192
_reflns_number_total             2888
_reflns_threshold_expression     'I > 2\s(I)'
_cod_data_source_file            d0ce00142b2.cif
_cod_data_source_block           20181121zh_zju7_0m_a_sq
_cod_original_cell_volume        3286.3(6)
_cod_original_sg_symbol_H-M      'P 4/n'
_cod_database_code               7240133
_shelx_shelxl_version_number     2018/3
_shelx_space_group_comment
;
The symmetry employed for this shelxl refinement is uniquely defined
by the following loop, which should always be used as a source of
symmetry information in preference to the above space-group names.
They are only intended as comments.
;
_shelx_estimated_absorpt_t_min   0.928
_shelx_estimated_absorpt_t_max   0.950
_shelx_res_file
;
TITL 20181121ZH_ZJU7_0m_a.res in P4/n
    20181121zh_zju7_0m_a_sq.res
    created by SHELXL-2018/3 at 19:50:10 on 29-Nov-2018
CELL  0.71073  18.1416  18.1416   9.9851   90.000   90.000   90.000
ZERR   2.000   0.0015   0.0015   0.0007    0.000    0.000    0.000
LATT 1
SYMM 1/2-X, 1/2-Y, Z
SYMM 1/2-Y, X, Z
SYMM Y, 1/2-X, Z
SFAC C  H  B  Cu N
UNIT 40 32 24 2 16
L.S. 50
omit -3 50.02
omit   0   4   1
omit     1   3   0
omit    -1   3   0
omit     0   7   4
omit     0   2   2
omit     0   3   2
omit    -1   5   1
omit     0   4   0
omit    -1   5   0
omit     1   5   0
omit    -2   4   0
omit     2   4   0
omit     0   1   1
omit     1   3   1
ACTA
BOND $H
FMAP 2
PLAN 20
abin
size .22 .19 .15
isor .01 $b
eadp n1 n1'
exyz n1 n1'
eadp c3 c3'
exyz c3 c3'
TEMP -100
WGHT    0.134000    3.783700
FVAR       0.38349   0.49806
B1    3    0.750000    0.750000   -0.094241    10.25000    0.04572    0.04572 =
         0.03648    0.00000    0.00000    0.00000
B2    3    0.723429    0.673747   -0.008650    10.60000    0.09958    0.04236 =
         0.03403   -0.00112   -0.00411   -0.03082
B3    3    0.675307    0.716168   -0.007226    10.55000    0.03986    0.09074 =
         0.02226   -0.00651    0.00010   -0.03520
B4    3    0.669156    0.741370    0.141059    10.55000    0.03423    0.10855 =
         0.02412    0.00350    0.00448   -0.01358
B5    3    0.698482    0.687437    0.141150    10.55000    0.07972    0.06067 =
         0.02270   -0.00304    0.00090   -0.04504
PART 1
C1    1    0.619804    0.672167    0.470883    21.00000    0.02997    0.02446 =
         0.02828    0.00459    0.00177   -0.00710
AFIX  43
H1A   2    0.620445    0.710866    0.406797    21.00000   -1.20000
AFIX   0
C2    1    0.567033    0.619833    0.460312    21.00000    0.03383    0.02864 =
         0.03389   -0.00028   -0.00764   -0.00799
AFIX  43
H2A   2    0.532511    0.620187    0.388777    21.00000   -1.20000
AFIX   0
C3    1    0.565383    0.565268    0.558857    21.00000    0.03301    0.03202 =
         0.03598   -0.00265   -0.00025   -0.01638
C4    1    0.615541    0.565169    0.659833    21.00000    0.05766    0.02145 =
         0.03181    0.00257    0.00220   -0.00851
AFIX  43
H4A   2    0.613855    0.528401    0.727508    21.00000   -1.20000
AFIX   0
C5    1    0.669891    0.620182    0.662719    21.00000    0.02898    0.02406 =
         0.02663    0.00035   -0.00547   -0.00876
AFIX  43
H5A   2    0.705539    0.620370    0.732409    21.00000   -1.20000
AFIX   0
N1    5    0.671905    0.672175    0.568476    21.00000    0.01829    0.01778 =
         0.02543    0.00118    0.00212   -0.00376
PART 2
B6'   3    0.750000    0.750000    0.238397    10.25000    0.02196    0.02196 =
         0.00977    0.00000    0.00000    0.00000
C1'   1    0.671813    0.619248    0.471161   -21.00000    0.02436    0.02617 =
         0.03374   -0.00284    0.00362   -0.00660
AFIX  43
H1'A  2    0.710913    0.619403    0.407872   -21.00000   -1.20000
AFIX   0
C2'   1    0.619491    0.566754    0.459565   -21.00000    0.03715    0.03560 =
         0.02970   -0.01397    0.00690   -0.01977
AFIX  43
H2'A  2    0.619496    0.532566    0.387498   -21.00000   -1.20000
AFIX   0
C3'   1    0.565383    0.565268    0.558857   -21.00000    0.03301    0.03202 =
         0.03598   -0.00265   -0.00025   -0.01638
C4'   1    0.564657    0.615234    0.661843   -21.00000    0.02511    0.05067 =
         0.03313   -0.00423    0.01144   -0.01781
AFIX  43
H4'A  2    0.528277    0.613020    0.730157   -21.00000   -1.20000
AFIX   0
C5'   1    0.619171    0.669423    0.662851   -21.00000    0.02017    0.03768 =
         0.02932   -0.00194    0.00279   -0.00726
AFIX  43
H5'A  2    0.619025    0.705341    0.732084   -21.00000   -1.20000
AFIX   0
N1'   5    0.671905    0.672175    0.568476   -21.00000    0.01829    0.01778 =
         0.02543    0.00118    0.00212   -0.00376
PART 0
CU1   4    0.750000    0.750000    0.571360    10.25000    0.01187    0.01187 =
         0.02338    0.00000    0.00000    0.00000
N2    5    0.509799    0.509497    0.559283    11.00000    0.04306    0.04751 =
         0.04590    0.00002   -0.00005   -0.02875
B6    3    0.750000    0.750000    0.290375    10.25000    0.01174    0.01174 =
         0.03527    0.00000    0.00000    0.00000
HKLF 4




REM  20181121ZH_ZJU7_0m_a.res in P4/n
REM wR2 = 0.2107, GooF = S = 0.983, Restrained GooF = 1.002 for all data
REM R1 = 0.0734 for 2192 Fo > 4sig(Fo) and 0.0971 for all 2888 data
REM 149 parameters refined using 42 restraints

END

WGHT      0.1347      1.9911

REM Highest difference peak  1.147,  deepest hole -0.388,  1-sigma level  0.089
Q1    1   0.6013  0.7423 -0.0675  11.00000  0.05    0.75
Q2    1   0.6667  0.6665  0.2861  11.00000  0.05    0.67
Q3    1   0.4894  0.4906  0.6729  11.00000  0.05    0.58
Q4    1   0.6688  0.6186  0.2022  11.00000  0.05    0.58
Q5    1   0.6360  0.6684  0.2167  11.00000  0.05    0.47
Q6    1   0.5693  0.5750  0.3249  11.00000  0.05    0.47
Q7    1   0.5985  0.7508  0.2050  11.00000  0.05    0.43
Q8    1   0.7500  0.7500 -0.0150  10.25000  0.05    0.39
Q9    1   0.6801  0.6248  0.3849  11.00000  0.05    0.39
Q10   1   0.6348  0.5671  0.3799  11.00000  0.05    0.38
Q11   1   0.7500  0.7500 -0.1264  10.25000  0.05    0.37
Q12   1   0.6238  0.6775  0.3788  11.00000  0.05    0.35
Q13   1   0.6166  0.5634  0.3974  11.00000  0.05    0.35
Q14   1   0.6837  0.6805 -0.0181  11.00000  0.05    0.34
Q15   1   0.6787  0.6201 -0.0552  11.00000  0.05    0.34
Q16   1   0.7500  0.7500  0.6808  10.25000  0.05    0.33
Q17   1   0.7500  0.7500  0.1170  10.25000  0.05    0.33
Q18   1   0.5647  0.6319  0.3782  11.00000  0.05    0.33
Q19   1   0.5000  0.5000  0.5000  10.50000  0.05    0.32
Q20   1   0.6833  0.6804 -0.1387  11.00000  0.05    0.32
;
_shelx_res_checksum              83986
_shelx_fab_file
;
    0    2    0      1.73      0.00
    2    2    0    -52.73      0.00
   -1    3    0    -62.45      0.00
    1    3    0     62.93      0.00
    3    3    0    -50.29      0.00
   -2    4    0     29.91      0.00
    0    4    0     -1.33      0.00
    2    4    0     29.87      0.00
    4    4    0     17.96      0.00
   -3    5    0     21.92      0.00
   -1    5    0    -14.65      0.00
    1    5    0     13.52      0.00
    3    5    0    -21.03      0.00
    5    5    0      5.02      0.00
   -4    6    0     -3.89      0.00
   -2    6    0     13.27      0.00
    0    6    0    -10.53      0.00
    2    6    0     12.31      0.00
    4    6    0     -3.21      0.00
    6    6    0     -3.47      0.00
   -5    7    0     -7.31      0.00
   -3    7    0      8.71      0.00
   -1    7    0     -2.87      0.00
    1    7    0      2.95      0.00
    3    7    0     -9.02      0.00
    5    7    0      7.24      0.00
    7    7    0     -2.84      0.00
   -6    8    0      4.03      0.00
   -4    8    0    -11.78      0.00
   -2    8    0      3.17      0.00
    0    8    0     -8.86      0.00
    2    8    0      3.24      0.00
    4    8    0    -12.62      0.00
    6    8    0      4.48      0.00
    8    8    0      3.61      0.00
   -7    9    0      6.79      0.00
   -5    9    0      5.77      0.00
   -3    9    0      6.76      0.00
   -1    9    0     -3.39      0.00
    1    9    0      1.12      0.00
    3    9    0     -6.83      0.00
    5    9    0     -5.92      0.00
    7    9    0     -5.26      0.00
    9    9    0     -1.15      0.00
   -8   10    0      0.37      0.00
   -6   10    0      6.09      0.00
   -4   10    0     -4.37      0.00
   -2   10    0      8.60      0.00
    0   10    0     -0.58      0.00
    2   10    0      8.09      0.00
    4   10    0     -4.14      0.00
    6   10    0      5.37      0.00
    8   10    0      0.23      0.00
   10   10    0      1.92      0.00
   -9   11    0     -1.05      0.00
   -7   11    0     -1.39      0.00
   -5   11    0      3.22      0.00
   -3   11    0     -1.82      0.00
   -1   11    0     -2.44      0.00
    1   11    0      2.50      0.00
    3   11    0      1.56      0.00
    5   11    0     -2.93      0.00
    7   11    0     -0.39      0.00
    9   11    0     -0.23      0.00
   11   11    0      0.51      0.00
  -10   12    0      0.93      0.00
   -8   12    0     -0.56      0.00
   -6   12    0      0.16      0.00
   -4   12    0     -3.67      0.00
   -2   12    0     -0.82      0.00
    0   12    0     -3.81      0.00
    2   12    0     -0.08      0.00
    4   12    0     -2.62      0.00
    6   12    0      1.81      0.00
    8   12    0     -1.71      0.00
   10   12    0      1.33      0.00
   12   12    0      0.85      0.00
  -11   13    0     -0.07      0.00
   -9   13    0     -1.82      0.00
   -7   13    0     -1.93      0.00
   -5   13    0      1.47      0.00
   -3   13    0     -0.54      0.00
   -1   13    0     -2.49      0.00
    1   13    0      2.33      0.00
    3   13    0      0.44      0.00
    5   13    0     -2.86      0.00
    7   13    0      2.34      0.00
    9   13    0      0.56      0.00
   11   13    0      1.63      0.00
   13   13    0      1.43      0.00
  -12   14    0     -1.05      0.00
  -10   14    0      1.84      0.00
   -8   14    0     -1.07      0.00
   -6   14    0      3.11      0.00
   -4   14    0     -0.21      0.00
   -2   14    0      2.37      0.00
    0   14    0     -4.35      0.00
    2   14    0      1.26      0.00
    4   14    0     -0.07      0.00
    6   14    0      0.31      0.00
    8   14    0     -1.51      0.00
   10   14    0      0.49      0.00
   12   14    0      0.91      0.00
   14   14    0     -0.23      0.00
  -13   15    0      1.20      0.00
  -11   15    0      0.26      0.00
   -9   15    0      2.07      0.00
   -7   15    0     -4.29      0.00
   -5   15    0      2.76      0.00
   -3   15    0     -0.50      0.00
   -1   15    0      2.54      0.00
    1   15    0     -2.37      0.00
    3   15    0     -0.24      0.00
    5   15    0     -2.31      0.00
    7   15    0      2.65      0.00
    9   15    0     -1.16      0.00
   11   15    0     -0.96      0.00
   13   15    0      0.42      0.00
   15   15    0     -2.77      0.00
  -14   16    0      0.24      0.00
  -12   16    0      0.47      0.00
  -10   16    0     -0.48      0.00
   -8   16    0      1.02      0.00
   -6   16    0      0.84      0.00
   -4   16    0      1.76      0.00
   -2   16    0      2.93      0.00
    0   16    0      1.55      0.00
    2   16    0      1.76      0.00
    4   16    0     -1.20      0.00
    6   16    0     -1.04      0.00
    8   16    0     -0.33      0.00
   10   16    0      1.40      0.00
   12   16    0      0.55      0.00
   14   16    0      1.83      0.00
   16   16    0     -0.40      0.00
  -15   17    0     -1.42      0.00
  -13   17    0     -2.90      0.00
  -11   17    0      0.95      0.00
   -9   17    0      0.05      0.00
   -7   17    0     -3.78      0.00
   -5   17    0      0.72      0.00
   -3   17    0      0.46      0.00
   -1   17    0      1.48      0.00
    1   17    0     -1.33      0.00
    3   17    0     -0.23      0.00
    5   17    0     -2.17      0.00
    7   17    0      2.30      0.00
    9   17    0      0.06      0.00
   11   17    0      0.77      0.00
   13   17    0      1.14      0.00
   15   17    0      0.29      0.00
  -14   18    0     -0.81      0.00
  -12   18    0     -2.86      0.00
  -10   18    0      0.52      0.00
   -8   18    0      1.73      0.00
   -6   18    0     -1.55      0.00
   -4   18    0     -2.25      0.00
   -2   18    0      1.13      0.00
    0   18    0      0.10      0.00
    2   18    0      2.57      0.00
    4   18    0     -1.05      0.00
    6   18    0     -0.85      0.00
    8   18    0      0.21      0.00
   10   18    0      1.24      0.00
   12   18    0     -2.08      0.00
   14   18    0     -2.18      0.00
  -13   19    0     -0.91      0.00
  -11   19    0      1.21      0.00
   -9   19    0     -0.28      0.00
   -7   19    0      0.78      0.00
   -5   19    0      1.11      0.00
   -3   19    0      0.34      0.00
   -1   19    0     -0.22      0.00
    1   19    0     -0.51      0.00
    3   19    0     -2.59      0.00
    5   19    0     -1.35      0.00
    7   19    0      0.81      0.00
    9   19    0      1.29      0.00
   11   19    0      2.67      0.00
   13   19    0      3.28      0.00
  -12   20    0     -3.26      0.00
  -10   20    0      2.35      0.00
   -8   20    0      0.56      0.00
   -6   20    0     -0.55      0.00
   -4   20    0     -2.44      0.00
   -2   20    0      1.48      0.00
    0   20    0     -1.85      0.00
    2   20    0      5.81      0.00
    4   20    0     -2.18      0.00
    6   20    0     -0.14      0.00
    8   20    0      0.09      0.00
   10   20    0      3.22      0.00
   12   20    0     -2.43      0.00
   -9   21    0     -1.67      0.00
   -7   21    0     -0.52      0.00
   -5   21    0      0.61      0.00
   -1   21    0      1.07      0.00
    1   21    0     -2.46      0.00
    3   21    0      0.59      0.00
    5   21    0     -0.15      0.00
    7   21    0     -1.52      0.00
    9   21    0     -0.04      0.00
   -8   22    0      0.81      0.00
   -6   22    0     -0.94      0.00
   -4   22    0      3.87      0.00
   -2   22    0     -2.65      0.00
    0   22    0     -0.33      0.00
    2   22    0      0.35      0.00
    4   22    0     -1.47      0.00
    6   22    0      2.30      0.00
    8   22    0     -1.59      0.00
   -5   23    0     -3.20      0.00
   -3   23    0      2.31      0.00
   -1   23    0     -0.50      0.00
    1   23    0      0.39      0.00
    3   23    0      0.30      0.00
    5   23    0     -1.52      0.00
    0    1    1      5.99      0.00
    1    1    1    -32.36      0.00
   -1    2    1     -0.51      0.00
    0    2    1     51.02      0.00
    1    2    1      0.64      0.00
    2    2    1     21.55      0.00
   -2    3    1      2.02      0.00
   -1    3    1     12.62      0.00
    0    3    1     21.25      0.00
    1    3    1    -12.63      0.00
    2    3    1      3.28      0.00
    3    3    1     10.06      0.00
   -3    4    1     -4.58      0.00
   -2    4    1     -7.70      0.00
   -1    4    1    -10.07      0.00
    0    4    1     41.15      0.00
    1    4    1      9.24      0.00
    2    4    1     -8.19      0.00
    3    4    1      4.56      0.00
    4    4    1     -8.37      0.00
   -4    5    1     -0.72      0.00
   -3    5    1     -1.92      0.00
   -2    5    1     -4.91      0.00
   -1    5    1    -16.12      0.00
    0    5    1     -4.10      0.00
    1    5    1     14.58      0.00
    2    5    1     -5.03      0.00
    3    5    1      2.26      0.00
    4    5    1     -0.28      0.00
    5    5    1     -6.04      0.00
   -5    6    1      3.96      0.00
   -4    6    1     -0.93      0.00
   -3    6    1      3.51      0.00
   -2    6    1     -1.96      0.00
   -1    6    1     -1.21      0.00
    0    6    1      0.45      0.00
    1    6    1      1.55      0.00
    2    6    1     -2.97      0.00
    3    6    1     -4.08      0.00
    4    6    1     -0.44      0.00
    5    6    1     -3.51      0.00
    6    6    1      2.56      0.00
   -6    7    1     -1.26      0.00
   -5    7    1      7.07      0.00
   -4    7    1      2.48      0.00
   -3    7    1      6.40      0.00
   -2    7    1      5.43      0.00
   -1    7    1     -6.30      0.00
    0    7    1      3.14      0.00
    1    7    1      6.69      0.00
    2    7    1      6.31      0.00
    3    7    1     -5.51      0.00
    4    7    1      2.59      0.00
    5    7    1     -7.09      0.00
    6    7    1      0.40      0.00
    7    7    1     -4.20      0.00
   -7    8    1      0.66      0.00
   -6    8    1     -1.92      0.00
   -5    8    1      1.26      0.00
   -4    8    1      0.79      0.00
   -3    8    1     -0.18      0.00
   -2    8    1      1.74      0.00
   -1    8    1      1.91      0.00
    0    8    1     -3.19      0.00
    1    8    1     -0.43      0.00
    2    8    1      0.86      0.00
    3    8    1      1.55      0.00
    4    8    1      1.13      0.00
    5    8    1     -0.86      0.00
    6    8    1     -1.04      0.00
    7    8    1      0.12      0.00
    8    8    1     -3.13      0.00
   -8    9    1     -1.59      0.00
   -7    9    1      0.97      0.00
   -6    9    1     -0.27      0.00
   -5    9    1     -0.96      0.00
   -4    9    1      1.14      0.00
   -3    9    1      6.70      0.00
   -2    9    1      2.96      0.00
   -1    9    1     -3.69      0.00
    0    9    1     -1.06      0.00
    1    9    1      3.66      0.00
    2    9    1      2.97      0.00
    3    9    1     -6.62      0.00
    4    9    1      1.34      0.00
    5    9    1      0.67      0.00
    6    9    1     -0.18      0.00
    7    9    1      0.04      0.00
    8    9    1     -0.50      0.00
    9    9    1     -1.23      0.00
   -9   10    1      0.19      0.00
   -8   10    1      0.87      0.00
   -7   10    1     -1.81      0.00
   -6   10    1     -0.25      0.00
   -5   10    1     -1.00      0.00
   -4   10    1     -4.03      0.00
   -3   10    1     -2.55      0.00
   -2   10    1      1.71      0.00
   -1   10    1      2.71      0.00
    0   10    1     -5.56      0.00
    1   10    1     -3.79      0.00
    2   10    1      1.59      0.00
    3   10    1      1.57      0.00
    4   10    1     -2.66      0.00
    5   10    1      0.35      0.00
    6   10    1      0.30      0.00
    7   10    1     -0.44      0.00
    8   10    1      1.60      0.00
    9   10    1     -0.76      0.00
   10   10    1      1.33      0.00
  -10   11    1      1.38      0.00
   -9   11    1     -0.05      0.00
   -8   11    1      0.87      0.00
   -7   11    1      1.60      0.00
   -6   11    1      0.21      0.00
   -5   11    1      0.82      0.00
   -4   11    1     -2.10      0.00
   -3   11    1      3.60      0.00
   -2   11    1     -0.12      0.00
   -1   11    1      0.62      0.00
    0   11    1     -0.33      0.00
    1   11    1     -0.76      0.00
    2   11    1     -0.72      0.00
    3   11    1     -4.75      0.00
    4   11    1     -1.52      0.00
    5   11    1     -0.65      0.00
    6   11    1      1.08      0.00
    7   11    1     -2.23      0.00
    8   11    1     -0.19      0.00
    9   11    1     -0.75      0.00
   10   11    1     -0.18      0.00
   11   11    1      1.28      0.00
  -11   12    1     -1.37      0.00
  -10   12    1      0.52      0.00
   -9   12    1      1.39      0.00
   -8   12    1      0.27      0.00
   -7   12    1      1.92      0.00
   -6   12    1     -0.47      0.00
   -5   12    1      4.71      0.00
   -4   12    1     -3.16      0.00
   -3   12    1     -3.25      0.00
   -2   12    1      1.47      0.00
   -1   12    1      1.18      0.00
    0   12    1      0.26      0.00
    1   12    1     -1.98      0.00
    2   12    1      0.86      0.00
    3   12    1      1.10      0.00
    4   12    1     -3.06      0.00
    5   12    1     -3.70      0.00
    6   12    1     -0.16      0.00
    7   12    1     -1.24      0.00
    8   12    1      0.20      0.00
    9   12    1     -0.88      0.00
   10   12    1     -1.42      0.00
   11   12    1     -0.52      0.00
   12   12    1      0.75      0.00
  -12   13    1      0.51      0.00
  -11   13    1     -0.39      0.00
  -10   13    1     -0.42      0.00
   -9   13    1     -0.53      0.00
   -8   13    1     -0.37      0.00
   -7   13    1     -0.48      0.00
   -6   13    1     -0.60      0.00
   -5   13    1     -1.10      0.00
   -4   13    1      3.14      0.00
   -3   13    1     -1.41      0.00
   -2   13    1     -0.64      0.00
   -1   13    1      0.86      0.00
    0   13    1      0.45      0.00
    1   13    1      0.26      0.00
    2   13    1      0.24      0.00
    3   13    1     -0.45      0.00
    4   13    1      1.24      0.00
    5   13    1      0.49      0.00
    6   13    1     -0.30      0.00
    7   13    1     -0.68      0.00
    8   13    1     -0.91      0.00
    9   13    1      1.37      0.00
   10   13    1     -0.03      0.00
   11   13    1      0.20      0.00
   12   13    1      0.57      0.00
   13   13    1      0.82      0.00
  -13   14    1      0.84      0.00
  -12   14    1     -1.57      0.00
  -11   14    1     -0.52      0.00
  -10   14    1     -0.18      0.00
   -9   14    1     -0.22      0.00
   -8   14    1      1.65      0.00
   -7   14    1     -1.77      0.00
   -6   14    1      2.09      0.00
   -5   14    1      0.15      0.00
   -4   14    1     -1.53      0.00
   -3   14    1     -0.41      0.00
   -2   14    1     -1.23      0.00
   -1   14    1      0.52      0.00
    0   14    1     -0.72      0.00
    1   14    1      0.17      0.00
    2   14    1     -1.38      0.00
    3   14    1      2.23      0.00
    4   14    1     -3.38      0.00
    5   14    1     -1.67      0.00
    6   14    1      0.74      0.00
    7   14    1      0.32      0.00
    8   14    1     -0.20      0.00
    9   14    1     -0.91      0.00
   10   14    1      0.38      0.00
   11   14    1     -0.87      0.00
   12   14    1      0.54      0.00
   13   14    1      1.02      0.00
   14   14    1     -0.75      0.00
  -14   15    1      0.57      0.00
  -13   15    1      1.00      0.00
  -12   15    1      1.97      0.00
  -11   15    1     -0.53      0.00
  -10   15    1      0.76      0.00
   -9   15    1     -1.24      0.00
   -8   15    1      1.85      0.00
   -7   15    1     -0.73      0.00
   -6   15    1     -2.59      0.00
   -5   15    1      2.19      0.00
   -4   15    1     -0.32      0.00
   -3   15    1      0.05      0.00
   -2   15    1     -1.95      0.00
   -1   15    1      1.63      0.00
    0   15    1     -1.05      0.00
    1   15    1     -0.28      0.00
    2   15    1      0.29      0.00
    3   15    1      0.23      0.00
    4   15    1      4.10      0.00
    5   15    1     -1.70      0.00
    6   15    1     -0.11      0.00
    7   15    1      0.82      0.00
    8   15    1      1.37      0.00
    9   15    1      0.95      0.00
   10   15    1      0.55      0.00
   11   15    1      0.58      0.00
   12   15    1     -0.34      0.00
   13   15    1      0.35      0.00
   14   15    1     -0.82      0.00
   15   15    1     -1.64      0.00
  -15   16    1     -2.50      0.00
  -14   16    1     -0.97      0.00
  -13   16    1     -1.68      0.00
  -12   16    1     -0.41      0.00
  -11   16    1      1.52      0.00
  -10   16    1      0.84      0.00
   -9   16    1     -0.32      0.00
   -8   16    1      1.13      0.00
   -7   16    1     -0.02      0.00
   -6   16    1      0.36      0.00
   -5   16    1     -1.16      0.00
   -4   16    1     -1.10      0.00
   -3   16    1     -0.97      0.00
   -2   16    1      0.39      0.00
   -1   16    1     -1.81      0.00
    0   16    1      0.56      0.00
    1   16    1     -1.15      0.00
    2   16    1      1.32      0.00
    3   16    1      0.63      0.00
    4   16    1     -1.23      0.00
    5   16    1      1.13      0.00
    6   16    1      0.28      0.00
    7   16    1      0.13      0.00
    8   16    1      0.12      0.00
    9   16    1      0.74      0.00
   10   16    1      1.43      0.00
   11   16    1     -0.03      0.00
   12   16    1      0.81      0.00
   13   16    1      0.32      0.00
   14   16    1      0.91      0.00
   15   16    1     -2.47      0.00
   16   16    1     -0.48      0.00
  -16   17    1      3.12      0.00
  -15   17    1      1.83      0.00
  -14   17    1      1.20      0.00
  -13   17    1      0.45      0.00
  -12   17    1     -2.71      0.00
  -11   17    1     -1.62      0.00
  -10   17    1      1.64      0.00
   -9   17    1     -0.41      0.00
   -8   17    1      2.66      0.00
   -7   17    1     -0.16      0.00
   -6   17    1     -0.11      0.00
   -5   17    1      1.94      0.00
   -4   17    1      2.99      0.00
   -3   17    1     -1.19      0.00
   -2   17    1      1.57      0.00
   -1   17    1      0.93      0.00
    0   17    1     -1.30      0.00
    1   17    1     -1.74      0.00
    2   17    1     -0.62      0.00
    3   17    1      0.43      0.00
    4   17    1      1.20      0.00
    5   17    1     -2.10      0.00
    6   17    1     -1.28      0.00
    7   17    1      0.53      0.00
    8   17    1     -1.36      0.00
    9   17    1     -0.61      0.00
   10   17    1      0.82      0.00
   11   17    1      1.35      0.00
   12   17    1      0.79      0.00
   13   17    1      0.87      0.00
   14   17    1      0.31      0.00
   15   17    1      1.03      0.00
   16   17    1     -0.20      0.00
  -15   18    1      0.20      0.00
  -14   18    1     -0.97      0.00
  -13   18    1      0.41      0.00
  -12   18    1      2.28      0.00
  -11   18    1     -1.47      0.00
  -10   18    1     -1.21      0.00
   -9   18    1      1.42      0.00
   -8   18    1      0.70      0.00
   -7   18    1      3.35      0.00
   -6   18    1      0.30      0.00
   -5   18    1      0.42      0.00
   -4   18    1      0.01      0.00
   -3   18    1      2.20      0.00
   -2   18    1      0.27      0.00
   -1   18    1      2.78      0.00
    0   18    1     -0.80      0.00
    1   18    1     -2.18      0.00
    2   18    1      0.62      0.00
    3   18    1     -0.78      0.00
    4   18    1     -0.99      0.00
    5   18    1     -0.03      0.00
    6   18    1     -0.55      0.00
    7   18    1     -0.57      0.00
    8   18    1      0.65      0.00
    9   18    1     -2.98      0.00
   10   18    1      0.09      0.00
   11   18    1     -1.36      0.00
   12   18    1     -1.97      0.00
   13   18    1      0.81      0.00
   14   18    1     -0.81      0.00
   15   18    1     -3.26      0.00
  -13   19    1     -2.57      0.00
  -12   19    1     -2.36      0.00
  -11   19    1      3.63      0.00
  -10   19    1     -2.39      0.00
   -9   19    1      0.28      0.00
   -8   19    1      0.23      0.00
   -7   19    1      1.43      0.00
   -6   19    1     -1.73      0.00
   -5   19    1      1.92      0.00
   -4   19    1      0.62      0.00
   -3   19    1      0.12      0.00
   -2   19    1     -1.64      0.00
   -1   19    1      1.65      0.00
    0   19    1      4.13      0.00
    1   19    1     -1.66      0.00
    2   19    1      1.64      0.00
    3   19    1     -0.56      0.00
    4   19    1      0.96      0.00
    5   19    1     -0.10      0.00
    6   19    1     -1.54      0.00
    7   19    1     -0.08      0.00
    8   19    1     -0.44      0.00
    9   19    1      1.07      0.00
   10   19    1     -2.18      0.00
   11   19    1      4.91      0.00
   12   19    1     -2.60      0.00
   13   19    1     -1.28      0.00
  -12   20    1     -3.33      0.00
  -11   20    1     -1.75      0.00
  -10   20    1     -0.46      0.00
   -9   20    1     -2.44      0.00
   -8   20    1     -0.57      0.00
   -7   20    1      2.78      0.00
   -6   20    1      0.53      0.00
   -5   20    1     -3.30      0.00
   -4   20    1      1.06      0.00
   -3   20    1      1.11      0.00
   -2   20    1     -0.58      0.00
   -1   20    1     -4.98      0.00
    0   20    1      0.93      0.00
    1   20    1     -2.54      0.00
    2   20    1      1.60      0.00
    3   20    1      1.93      0.00
    4   20    1     -0.58      0.00
    5   20    1      2.89      0.00
    6   20    1      1.60      0.00
    7   20    1      2.31      0.00
    8   20    1     -0.75      0.00
    9   20    1      1.67      0.00
   10   20    1     -1.43      0.00
   11   20    1      0.65      0.00
   12   20    1      3.66      0.00
  -10   21    1      0.67      0.00
   -9   21    1     -1.61      0.00
   -8   21    1     -2.10      0.00
   -7   21    1     -2.12      0.00
   -6   21    1      2.03      0.00
   -5   21    1     -0.85      0.00
   -4   21    1     -0.51      0.00
   -3   21    1      2.62      0.00
   -2   21    1      1.86      0.00
   -1   21    1      0.30      0.00
    0   21    1      0.96      0.00
    1   21    1      0.78      0.00
    2   21    1     -2.84      0.00
    3   21    1     -0.14      0.00
    4   21    1     -1.47      0.00
    5   21    1      0.80      0.00
    6   21    1     -2.90      0.00
    7   21    1      1.40      0.00
    8   21    1     -0.26      0.00
    9   21    1     -0.99      0.00
   10   21    1      0.94      0.00
   -8   22    1      1.14      0.00
   -7   22    1     -0.48      0.00
   -6   22    1     -1.31      0.00
   -5   22    1     -2.46      0.00
   -4   22    1     -2.80      0.00
   -3   22    1      0.61      0.00
   -2   22    1     -0.28      0.00
   -1   22    1     -0.71      0.00
    0   22    1     -0.88      0.00
    1   22    1      0.16      0.00
    2   22    1     -0.45      0.00
    3   22    1     -0.08      0.00
    4   22    1     -2.34      0.00
    5   22    1     -0.45      0.00
    6   22    1      1.09      0.00
    7   22    1     -2.52      0.00
    8   22    1      2.59      0.00
   -4   23    1     -1.85      0.00
   -3   23    1     -1.46      0.00
   -2   23    1     -0.01      0.00
   -1   23    1     -0.26      0.00
    0   23    1      1.22      0.00
    1   23    1      1.32      0.00
    2   23    1     -0.42      0.00
    3   23    1     -0.11      0.00
    4   23    1      2.29      0.00
    0    0    2    -34.90      0.00
    0    1    2      1.37      0.00
    1    1    2     -6.05      0.00
   -1    2    2     -1.73      0.00
    0    2    2      0.64      0.00
    1    2    2      1.29      0.00
    2    2    2     38.61      0.00
   -2    3    2      5.58      0.00
   -1    3    2     17.47      0.00
    0    3    2      2.64      0.00
    1    3    2    -16.76      0.00
    2    3    2      5.93      0.00
    3    3    2      9.62      0.00
   -3    4    2     -0.24      0.00
   -2    4    2      7.06      0.00
   -1    4    2      4.61      0.00
    0    4    2      5.67      0.00
    1    4    2     -4.93      0.00
    2    4    2      7.14      0.00
    3    4    2      0.07      0.00
    4    4    2     -5.61      0.00
   -4    5    2     -1.15      0.00
   -3    5    2     -6.86      0.00
   -2    5    2      4.50      0.00
   -1    5    2     11.04      0.00
    0    5    2     10.19      0.00
    1    5    2    -10.97      0.00
    2    5    2      4.57      0.00
    3    5    2      6.41      0.00
    4    5    2     -1.12      0.00
    5    5    2      1.44      0.00
   -5    6    2     -3.15      0.00
   -4    6    2     -8.63      0.00
   -3    6    2     -5.76      0.00
   -2    6    2     -6.52      0.00
   -1    6    2     -0.06      0.00
    0    6    2      5.86      0.00
    1    6    2      0.07      0.00
    2    6    2     -5.56      0.00
    3    6    2      5.76      0.00
    4    6    2     -8.11      0.00
    5    6    2      1.97      0.00
    6    6    2     -2.01      0.00
   -6    7    2      1.20      0.00
   -5    7    2      6.27      0.00
   -4    7    2     -2.25      0.00
   -3    7    2     -1.64      0.00
   -2    7    2     -2.31      0.00
   -1    7    2      3.23      0.00
    0    7    2      4.47      0.00
    1    7    2     -3.63      0.00
    2    7    2     -2.21      0.00
    3    7    2      1.69      0.00
    4    7    2     -0.93      0.00
    5    7    2     -6.38      0.00
    6    7    2      1.76      0.00
    7    7    2     -5.69      0.00
   -7    8    2      1.76      0.00
   -6    8    2     -0.71      0.00
   -5    8    2      3.90      0.00
   -4    8    2     -0.16      0.00
   -3    8    2      1.01      0.00
   -2    8    2     -2.67      0.00
   -1    8    2     -0.63      0.00
    0    8    2      7.42      0.00
    1    8    2      1.72      0.00
    2    8    2     -1.96      0.00
    3    8    2     -1.12      0.00
    4    8    2      0.27      0.00
    5    8    2     -3.72      0.00
    6    8    2     -0.03      0.00
    7    8    2     -1.24      0.00
    8    8    2     -1.43      0.00
   -8    9    2     -1.62      0.00
   -7    9    2      0.83      0.00
   -6    9    2      0.18      0.00
   -5    9    2      1.30      0.00
   -4    9    2      2.88      0.00
   -3    9    2      0.00      0.00
   -2    9    2      4.14      0.00
   -1    9    2      0.84      0.00
    0    9    2      7.91      0.00
    1    9    2      0.40      0.00
    2    9    2      5.14      0.00
    3    9    2      1.21      0.00
    4    9    2      2.93      0.00
    5    9    2     -1.38      0.00
    6    9    2     -0.10      0.00
    7    9    2     -0.22      0.00
    8    9    2     -1.72      0.00
    9    9    2      0.91      0.00
   -9   10    2      2.04      0.00
   -8   10    2     -1.40      0.00
   -7   10    2     -0.53      0.00
   -6   10    2     -0.27      0.00
   -5   10    2     -0.39      0.00
   -4   10    2     -1.57      0.00
   -3   10    2     -1.90      0.00
   -2   10    2     -5.97      0.00
   -1   10    2     -2.62      0.00
    0   10    2      0.08      0.00
    1   10    2      2.18      0.00
    2   10    2     -5.05      0.00
    3   10    2      3.07      0.00
    4   10    2     -1.21      0.00
    5   10    2      0.33      0.00
    6   10    2     -0.04      0.00
    7   10    2      0.82      0.00
    8   10    2     -0.01      0.00
    9   10    2     -0.72      0.00
   10   10    2     -0.75      0.00
  -10   11    2     -2.10      0.00
   -9   11    2     -0.83      0.00
   -8   11    2     -1.14      0.00
   -7   11    2     -0.38      0.00
   -6   11    2     -2.01      0.00
   -5   11    2      3.06      0.00
   -4   11    2     -0.10      0.00
   -3   11    2      3.59      0.00
   -2   11    2     -0.24      0.00
   -1   11    2      0.66      0.00
    0   11    2     -0.64      0.00
    1   11    2     -0.12      0.00
    2   11    2     -0.91      0.00
    3   11    2     -1.32      0.00
    4   11    2      0.22      0.00
    5   11    2     -2.66      0.00
    6   11    2     -2.95      0.00
    7   11    2      0.11      0.00
    8   11    2     -1.59      0.00
    9   11    2      0.92      0.00
   10   11    2     -0.95      0.00
   11   11    2      0.59      0.00
  -11   12    2      0.63      0.00
  -10   12    2     -1.27      0.00
   -9   12    2      0.89      0.00
   -8   12    2     -1.04      0.00
   -7   12    2      0.87      0.00
   -6   12    2     -2.59      0.00
   -5   12    2      0.77      0.00
   -4   12    2     -0.35      0.00
   -3   12    2     -0.37      0.00
   -2   12    2     -0.44      0.00
   -1   12    2     -0.33      0.00
    0   12    2      1.68      0.00
    1   12    2     -0.46      0.00
    2   12    2     -1.76      0.00
    3   12    2      0.28      0.00
    4   12    2      0.54      0.00
    5   12    2     -1.13      0.00
    6   12    2     -0.81      0.00
    7   12    2     -0.89      0.00
    8   12    2      0.37      0.00
    9   12    2     -0.49      0.00
   10   12    2      0.14      0.00
   11   12    2     -0.58      0.00
   12   12    2      0.85      0.00
  -12   13    2     -1.04      0.00
  -11   13    2      1.47      0.00
  -10   13    2      0.07      0.00
   -9   13    2     -1.24      0.00
   -8   13    2      0.01      0.00
   -7   13    2      0.59      0.00
   -6   13    2     -1.66      0.00
   -5   13    2     -0.65      0.00
   -4   13    2     -0.26      0.00
   -3   13    2      0.94      0.00
   -2   13    2     -1.52      0.00
   -1   13    2      0.29      0.00
    0   13    2     -1.11      0.00
    1   13    2     -1.26      0.00
    2   13    2     -0.90      0.00
    3   13    2     -2.48      0.00
    4   13    2      1.23      0.00
    5   13    2     -2.10      0.00
    6   13    2     -1.51      0.00
    7   13    2      0.30      0.00
    8   13    2     -1.07      0.00
    9   13    2      0.48      0.00
   10   13    2     -0.45      0.00
   11   13    2      0.53      0.00
   12   13    2     -0.39      0.00
   13   13    2      0.27      0.00
  -13   14    2     -0.14      0.00
  -12   14    2     -0.30      0.00
  -11   14    2     -0.46      0.00
  -10   14    2      1.70      0.00
   -9   14    2      1.02      0.00
   -8   14    2     -0.28      0.00
   -7   14    2      2.25      0.00
   -6   14    2      0.77      0.00
   -5   14    2     -1.04      0.00
   -4   14    2     -2.65      0.00
   -3   14    2      0.45      0.00
   -2   14    2     -0.15      0.00
   -1   14    2      0.71      0.00
    0   14    2      0.74      0.00
    1   14    2     -0.57      0.00
    2   14    2     -1.23      0.00
    3   14    2     -0.39      0.00
    4   14    2     -1.88      0.00
    5   14    2     -0.75      0.00
    6   14    2     -3.17      0.00
    7   14    2     -1.15      0.00
    8   14    2      0.93      0.00
    9   14    2     -0.55      0.00
   10   14    2      0.65      0.00
   11   14    2      0.12      0.00
   12   14    2      0.57      0.00
   13   14    2     -1.14      0.00
   14   14    2     -0.79      0.00
  -14   15    2      1.87      0.00
  -13   15    2     -0.27      0.00
  -12   15    2     -0.39      0.00
  -11   15    2     -0.97      0.00
  -10   15    2      0.85      0.00
   -9   15    2      0.36      0.00
   -8   15    2      0.34      0.00
   -7   15    2     -0.14      0.00
   -6   15    2      2.50      0.00
   -5   15    2      3.02      0.00
   -4   15    2     -0.83      0.00
   -3   15    2     -0.61      0.00
   -2   15    2     -0.31      0.00
   -1   15    2      0.34      0.00
    0   15    2      0.26      0.00
    1   15    2      0.19      0.00
    2   15    2      0.82      0.00
    3   15    2      0.85      0.00
    4   15    2      0.97      0.00
    5   15    2     -0.99      0.00
    6   15    2     -0.23      0.00
    7   15    2     -1.76      0.00
    8   15    2     -0.31      0.00
    9   15    2     -0.64      0.00
   10   15    2      1.32      0.00
   11   15    2      0.29      0.00
   12   15    2      1.16      0.00
   13   15    2      0.54      0.00
   14   15    2     -1.14      0.00
   15   15    2     -0.40      0.00
  -15   16    2     -0.57      0.00
  -14   16    2     -0.99      0.00
  -13   16    2     -1.64      0.00
  -12   16    2     -0.19      0.00
  -11   16    2     -1.77      0.00
  -10   16    2      0.66      0.00
   -9   16    2      0.43      0.00
   -8   16    2      2.25      0.00
   -7   16    2      0.45      0.00
   -6   16    2      0.52      0.00
   -5   16    2      1.11      0.00
   -4   16    2     -0.47      0.00
   -3   16    2     -0.20      0.00
   -2   16    2     -0.54      0.00
   -1   16    2      0.55      0.00
    0   16    2     -2.28      0.00
    1   16    2     -1.21      0.00
    2   16    2     -0.32      0.00
    3   16    2      0.47      0.00
    4   16    2      1.15      0.00
    5   16    2      0.22      0.00
    6   16    2     -0.72      0.00
    7   16    2     -0.55      0.00
    8   16    2      1.75      0.00
    9   16    2     -0.90      0.00
   10   16    2     -0.30      0.00
   11   16    2      0.59      0.00
   12   16    2     -1.61      0.00
   13   16    2     -1.43      0.00
   14   16    2     -1.29      0.00
   15   16    2      1.31      0.00
   16   16    2     -0.35      0.00
  -15   17    2      2.11      0.00
  -14   17    2      3.06      0.00
  -13   17    2      2.34      0.00
  -12   17    2     -1.69      0.00
  -11   17    2     -0.58      0.00
  -10   17    2     -1.56      0.00
   -9   17    2     -0.70      0.00
   -8   17    2     -0.74      0.00
   -7   17    2     -0.91      0.00
   -6   17    2      1.26      0.00
   -5   17    2      1.60      0.00
   -4   17    2      0.31      0.00
   -3   17    2      1.59      0.00
   -2   17    2     -0.70      0.00
   -1   17    2      1.57      0.00
    0   17    2      0.31      0.00
    1   17    2     -1.13      0.00
    2   17    2     -0.05      0.00
    3   17    2      1.24      0.00
    4   17    2     -0.74      0.00
    5   17    2      2.04      0.00
    6   17    2     -0.59      0.00
    7   17    2     -1.04      0.00
    8   17    2     -0.55      0.00
    9   17    2      2.18      0.00
   10   17    2      0.49      0.00
   11   17    2      3.88      0.00
   12   17    2      1.98      0.00
   13   17    2     -1.45      0.00
   14   17    2     -4.43      0.00
   15   17    2     -3.46      0.00
  -14   18    2     -0.44      0.00
  -13   18    2      1.67      0.00
  -12   18    2      1.83      0.00
  -11   18    2      0.60      0.00
  -10   18    2     -0.56      0.00
   -9   18    2      0.01      0.00
   -8   18    2      2.87      0.00
   -7   18    2     -1.23      0.00
   -6   18    2      0.50      0.00
   -5   18    2      0.72      0.00
   -4   18    2     -1.80      0.00
   -3   18    2      0.87      0.00
   -2   18    2      2.29      0.00
   -1   18    2      1.50      0.00
    0   18    2     -0.92      0.00
    1   18    2     -1.55      0.00
    2   18    2     -1.65      0.00
    3   18    2      0.35      0.00
    4   18    2     -0.51      0.00
    5   18    2      0.07      0.00
    6   18    2      1.93      0.00
    7   18    2     -1.54      0.00
    8   18    2      0.86      0.00
    9   18    2     -1.77      0.00
   10   18    2      0.54      0.00
   11   18    2      0.23      0.00
   12   18    2      7.88      0.00
   13   18    2      2.81      0.00
   14   18    2      2.48      0.00
  -13   19    2      1.71      0.00
  -12   19    2     -1.48      0.00
  -11   19    2      2.22      0.00
  -10   19    2     -0.87      0.00
   -9   19    2     -0.82      0.00
   -8   19    2      0.58      0.00
   -7   19    2      1.65      0.00
   -6   19    2     -0.17      0.00
   -5   19    2      3.31      0.00
   -4   19    2     -1.07      0.00
   -3   19    2     -0.05      0.00
   -2   19    2     -3.15      0.00
   -1   19    2      1.72      0.00
    0   19    2      2.98      0.00
    1   19    2      1.60      0.00
    2   19    2     -0.27      0.00
    3   19    2      1.44      0.00
    4   19    2     -1.89      0.00
    5   19    2      0.18      0.00
    6   19    2     -0.03      0.00
    7   19    2     -0.47      0.00
    8   19    2     -0.36      0.00
    9   19    2     -1.08      0.00
   10   19    2     -1.33      0.00
   11   19    2     -3.77      0.00
   12   19    2     -0.81      0.00
   13   19    2      2.92      0.00
  -11   20    2      2.10      0.00
  -10   20    2      0.18      0.00
   -9   20    2     -0.42      0.00
   -8   20    2     -0.90      0.00
   -7   20    2     -0.87      0.00
   -6   20    2      0.44      0.00
   -5   20    2      0.46      0.00
   -4   20    2      0.20      0.00
   -3   20    2      0.36      0.00
   -2   20    2      2.43      0.00
   -1   20    2     -5.07      0.00
    0   20    2     -2.71      0.00
    1   20    2     -1.23      0.00
    2   20    2     -0.08      0.00
    3   20    2      0.88      0.00
    4   20    2      0.99      0.00
    5   20    2      0.25      0.00
    6   20    2      1.71      0.00
    7   20    2     -0.58      0.00
    8   20    2      1.92      0.00
    9   20    2      0.36      0.00
   10   20    2     -0.69      0.00
   11   20    2      2.01      0.00
  -10   21    2      3.42      0.00
   -9   21    2      1.89      0.00
   -8   21    2      2.42      0.00
   -7   21    2     -2.05      0.00
   -6   21    2      0.43      0.00
   -5   21    2      1.80      0.00
   -4   21    2     -0.51      0.00
   -3   21    2     -0.15      0.00
   -2   21    2      1.93      0.00
   -1   21    2      4.68      0.00
    0   21    2      0.39      0.00
    1   21    2      0.87      0.00
    2   21    2     -0.57      0.00
    3   21    2      1.33      0.00
    4   21    2     -2.38      0.00
    5   21    2      1.39      0.00
    6   21    2     -0.73      0.00
    7   21    2     -0.41      0.00
    8   21    2     -2.86      0.00
    9   21    2      0.97      0.00
   10   21    2     -4.42      0.00
   -7   22    2     -0.07      0.00
   -6   22    2     -3.29      0.00
   -5   22    2      1.30      0.00
   -4   22    2     -1.83      0.00
   -3   22    2     -2.15      0.00
   -2   22    2     -2.92      0.00
   -1   22    2     -0.53      0.00
    0   22    2     -0.47      0.00
    1   22    2     -1.03      0.00
    2   22    2     -0.43      0.00
    3   22    2      1.85      0.00
    4   22    2      0.55      0.00
    5   22    2     -0.32      0.00
    6   22    2      2.28      0.00
    7   22    2      1.76      0.00
   -3   23    2      0.62      0.00
   -2   23    2     -0.50      0.00
   -1   23    2     -0.30      0.00
    0   23    2      0.47      0.00
    1   23    2     -0.27      0.00
    2   23    2     -1.63      0.00
    3   23    2     -1.59      0.00
    0    0    3     -0.54      0.00
    0    1    3     -3.98      0.00
    1    1    3      2.10      0.00
   -1    2    3      0.45      0.00
    0    2    3     -0.47      0.00
    1    2    3     -1.13      0.00
    2    2    3      3.61      0.00
   -2    3    3      2.73      0.00
   -1    3    3      0.20      0.00
    0    3    3     -5.86      0.00
    1    3    3      0.71      0.00
    2    3    3      2.93      0.00
    3    3    3     -0.71      0.00
   -3    4    3      1.16      0.00
   -2    4    3      4.18      0.00
   -1    4    3      4.76      0.00
    0    4    3      3.16      0.00
    1    4    3     -5.50      0.00
    2    4    3      4.46      0.00
    3    4    3     -0.87      0.00
    4    4    3      3.27      0.00
   -4    5    3      2.79      0.00
   -3    5    3      1.43      0.00
   -2    5    3      8.19      0.00
   -1    5    3     -0.16      0.00
    0    5    3      8.86      0.00
    1    5    3      1.18      0.00
    2    5    3      7.62      0.00
    3    5    3     -2.67      0.00
    4    5    3      2.05      0.00
    5    5    3     -1.43      0.00
   -5    6    3     -3.39      0.00
   -4    6    3     -0.11      0.00
   -3    6    3     -2.67      0.00
   -2    6    3      1.79      0.00
   -1    6    3      0.08      0.00
    0    6    3     -2.08      0.00
    1    6    3     -0.51      0.00
    2    6    3      2.23      0.00
    3    6    3      2.08      0.00
    4    6    3     -1.43      0.00
    5    6    3      1.46      0.00
    6    6    3     -0.81      0.00
   -6    7    3     -0.02      0.00
   -5    7    3      0.47      0.00
   -4    7    3      1.59      0.00
   -3    7    3      0.14      0.00
   -2    7    3      3.98      0.00
   -1    7    3      1.92      0.00
    0    7    3      9.71      0.00
    1    7    3     -1.16      0.00
    2    7    3      3.63      0.00
    3    7    3     -0.40      0.00
    4    7    3      0.96      0.00
    5    7    3      0.03      0.00
    6    7    3     -1.21      0.00
    7    7    3      0.19      0.00
   -7    8    3      1.15      0.00
   -6    8    3     -0.78      0.00
   -5    8    3     -1.49      0.00
   -4    8    3     -2.65      0.00
   -3    8    3     -1.46      0.00
   -2    8    3     -1.16      0.00
   -1    8    3     -3.14      0.00
    0    8    3     -1.23      0.00
    1    8    3      3.55      0.00
    2    8    3     -0.20      0.00
    3    8    3      1.66      0.00
    4    8    3     -1.60      0.00
    5    8    3      2.03      0.00
    6    8    3      0.76      0.00
    7    8    3     -0.68      0.00
    8    8    3      2.72      0.00
   -8    9    3     -0.93      0.00
   -7    9    3      0.18      0.00
   -6    9    3     -0.71      0.00
   -5    9    3      1.02      0.00
   -4    9    3      0.70      0.00
   -3    9    3      0.37      0.00
   -2    9    3      0.19      0.00
   -1    9    3      1.77      0.00
    0    9    3      3.38      0.00
    1    9    3     -0.31      0.00
    2    9    3      0.37      0.00
    3    9    3     -0.63      0.00
    4    9    3     -0.33      0.00
    5    9    3      0.21      0.00
    6    9    3     -0.47      0.00
    7    9    3     -0.51      0.00
    8    9    3     -1.25      0.00
    9    9    3      2.13      0.00
   -9   10    3      1.67      0.00
   -8   10    3      0.64      0.00
   -7   10    3      1.04      0.00
   -6   10    3     -0.85      0.00
   -5   10    3     -0.38      0.00
   -4   10    3     -1.34      0.00
   -3   10    3      0.74      0.00
   -2   10    3      0.40      0.00
   -1   10    3     -2.35      0.00
    0   10    3      0.99      0.00
    1   10    3      3.25      0.00
    2   10    3      0.42      0.00
    3   10    3      0.16      0.00
    4   10    3     -2.54      0.00
    5   10    3     -0.83      0.00
    6   10    3      0.81      0.00
    7   10    3     -1.80      0.00
    8   10    3      1.44      0.00
    9   10    3     -1.50      0.00
   10   10    3      2.29      0.00
  -10   11    3     -1.54      0.00
   -9   11    3      0.99      0.00
   -8   11    3     -0.76      0.00
   -7   11    3      0.81      0.00
   -6   11    3     -0.42      0.00
   -5   11    3      0.72      0.00
   -4   11    3      0.35      0.00
   -3   11    3     -0.71      0.00
   -2   11    3      2.03      0.00
   -1   11    3     -0.26      0.00
    0   11    3      1.37      0.00
    1   11    3      1.07      0.00
    2   11    3      2.79      0.00
    3   11    3      1.36      0.00
    4   11    3      0.35      0.00
    5   11    3     -0.75      0.00
    6   11    3     -1.53      0.00
    7   11    3     -0.99      0.00
    8   11    3     -4.12      0.00
    9   11    3     -0.52      0.00
   10   11    3     -2.48      0.00
   11   11    3     -0.01      0.00
  -11   12    3      0.83      0.00
  -10   12    3     -2.06      0.00
   -9   12    3      0.68      0.00
   -8   12    3      0.42      0.00
   -7   12    3      0.09      0.00
   -6   12    3     -1.44      0.00
   -5   12    3     -1.49      0.00
   -4   12    3     -0.53      0.00
   -3   12    3     -0.55      0.00
   -2   12    3      0.98      0.00
   -1   12    3      0.30      0.00
    0   12    3     -0.72      0.00
    1   12    3     -0.71      0.00
    2   12    3      1.22      0.00
    3   12    3      1.14      0.00
    4   12    3     -0.12      0.00
    5   12    3      0.84      0.00
    6   12    3     -0.86      0.00
    7   12    3      1.71      0.00
    8   12    3      0.43      0.00
    9   12    3     -0.86      0.00
   10   12    3      0.60      0.00
   11   12    3     -1.31      0.00
   12   12    3      0.07      0.00
  -12   13    3     -1.56      0.00
  -11   13    3     -0.94      0.00
  -10   13    3     -0.54      0.00
   -9   13    3     -1.42      0.00
   -8   13    3      0.08      0.00
   -7   13    3      0.57      0.00
   -6   13    3      1.43      0.00
   -5   13    3      0.47      0.00
   -4   13    3     -2.40      0.00
   -3   13    3      0.55      0.00
   -2   13    3     -2.03      0.00
   -1   13    3      0.20      0.00
    0   13    3     -2.12      0.00
    1   13    3     -1.85      0.00
    2   13    3     -0.70      0.00
    3   13    3     -0.22      0.00
    4   13    3     -1.24      0.00
    5   13    3      2.09      0.00
    6   13    3     -0.73      0.00
    7   13    3     -1.45      0.00
    8   13    3     -0.41      0.00
    9   13    3      0.31      0.00
   10   13    3      0.43      0.00
   11   13    3     -0.31      0.00
   12   13    3     -0.65      0.00
   13   13    3      0.32      0.00
  -13   14    3      0.18      0.00
  -12   14    3      2.45      0.00
  -11   14    3     -0.37      0.00
  -10   14    3     -2.55      0.00
   -9   14    3      0.99      0.00
   -8   14    3      2.10      0.00
   -7   14    3      1.46      0.00
   -6   14    3     -0.30      0.00
   -5   14    3      2.19      0.00
   -4   14    3     -1.97      0.00
   -3   14    3      0.60      0.00
   -2   14    3      0.89      0.00
   -1   14    3      1.57      0.00
    0   14    3      0.18      0.00
    1   14    3     -2.26      0.00
    2   14    3      0.75      0.00
    3   14    3      0.20      0.00
    4   14    3     -2.77      0.00
    5   14    3     -0.78      0.00
    6   14    3      3.27      0.00
    7   14    3     -1.31      0.00
    8   14    3     -1.13      0.00
    9   14    3     -1.09      0.00
   10   14    3      0.83      0.00
   11   14    3      0.61      0.00
   12   14    3     -1.96      0.00
   13   14    3     -0.26      0.00
   14   14    3      0.85      0.00
  -14   15    3      0.63      0.00
  -13   15    3     -1.08      0.00
  -12   15    3     -0.40      0.00
  -11   15    3      1.04      0.00
  -10   15    3     -0.91      0.00
   -9   15    3     -4.63      0.00
   -8   15    3     -1.41      0.00
   -7   15    3      0.91      0.00
   -6   15    3      0.77      0.00
   -5   15    3      3.14      0.00
   -4   15    3     -0.18      0.00
   -3   15    3      0.15      0.00
   -2   15    3      0.21      0.00
   -1   15    3     -0.29      0.00
    0   15    3      1.55      0.00
    1   15    3     -1.68      0.00
    2   15    3     -0.22      0.00
    3   15    3      0.98      0.00
    4   15    3     -0.94      0.00
    5   15    3     -4.36      0.00
    6   15    3      0.23      0.00
    7   15    3      0.29      0.00
    8   15    3     -1.01      0.00
    9   15    3     -2.59      0.00
   10   15    3     -0.29      0.00
   11   15    3      0.41      0.00
   12   15    3     -0.99      0.00
   13   15    3     -1.36      0.00
   14   15    3     -2.02      0.00
   15   15    3      0.15      0.00
  -15   16    3     -0.56      0.00
  -14   16    3      0.78      0.00
  -13   16    3     -0.70      0.00
  -12   16    3      0.55      0.00
  -11   16    3     -0.58      0.00
  -10   16    3      0.30      0.00
   -9   16    3      0.46      0.00
   -8   16    3      1.18      0.00
   -7   16    3      0.03      0.00
   -6   16    3     -1.36      0.00
   -5   16    3      0.33      0.00
   -4   16    3      0.95      0.00
   -3   16    3     -0.05      0.00
   -2   16    3      1.62      0.00
   -1   16    3     -0.22      0.00
    0   16    3     -0.75      0.00
    1   16    3     -0.48      0.00
    2   16    3     -0.38      0.00
    3   16    3     -1.42      0.00
    4   16    3     -0.71      0.00
    5   16    3     -1.13      0.00
    6   16    3     -0.84      0.00
    7   16    3     -1.62      0.00
    8   16    3      0.79      0.00
    9   16    3      0.14      0.00
   10   16    3     -1.24      0.00
   11   16    3      1.41      0.00
   12   16    3     -1.66      0.00
   13   16    3      1.70      0.00
   14   16    3      1.57      0.00
   15   16    3     -3.14      0.00
   16   16    3     -0.70      0.00
  -15   17    3      0.33      0.00
  -14   17    3      0.37      0.00
  -13   17    3      3.70      0.00
  -12   17    3      1.15      0.00
  -11   17    3      3.99      0.00
  -10   17    3      0.20      0.00
   -9   17    3     -2.64      0.00
   -8   17    3      0.50      0.00
   -7   17    3      1.04      0.00
   -6   17    3     -0.15      0.00
   -5   17    3      0.02      0.00
   -4   17    3     -0.75      0.00
   -3   17    3      1.88      0.00
   -2   17    3     -1.36      0.00
   -1   17    3      2.54      0.00
    0   17    3     -0.22      0.00
    1   17    3      0.74      0.00
    2   17    3      1.37      0.00
    3   17    3      5.04      0.00
    4   17    3     -0.42      0.00
    5   17    3     -2.11      0.00
    6   17    3      1.54      0.00
    7   17    3     -0.04      0.00
    8   17    3     -0.89      0.00
    9   17    3      1.93      0.00
   10   17    3     -0.50      0.00
   11   17    3      1.93      0.00
   12   17    3     -0.76      0.00
   13   17    3     -5.31      0.00
   14   17    3      4.47      0.00
   15   17    3      1.00      0.00
  -14   18    3     -1.05      0.00
  -13   18    3     -2.13      0.00
  -12   18    3      0.22      0.00
  -11   18    3     -0.77      0.00
  -10   18    3      5.07      0.00
   -9   18    3     -0.70      0.00
   -8   18    3      1.87      0.00
   -7   18    3     -0.09      0.00
   -6   18    3     -0.64      0.00
   -5   18    3     -0.93      0.00
   -4   18    3     -1.95      0.00
   -3   18    3      0.84      0.00
   -2   18    3      0.95      0.00
   -1   18    3     -0.56      0.00
    0   18    3      0.57      0.00
    1   18    3     -1.94      0.00
    2   18    3     -0.81      0.00
    3   18    3     -0.95      0.00
    4   18    3      5.99      0.00
    5   18    3     -0.52      0.00
    6   18    3      1.64      0.00
    7   18    3     -0.07      0.00
    8   18    3      1.81      0.00
    9   18    3      1.04      0.00
   10   18    3      1.42      0.00
   11   18    3     -0.31      0.00
   12   18    3      7.15      0.00
   13   18    3     -3.67      0.00
   14   18    3     -2.48      0.00
  -12   19    3     -0.13      0.00
  -11   19    3     -1.86      0.00
  -10   19    3     -2.67      0.00
   -9   19    3      0.87      0.00
   -8   19    3      0.62      0.00
   -7   19    3      0.40      0.00
   -6   19    3     -0.11      0.00
   -5   19    3     -0.45      0.00
   -4   19    3     -0.11      0.00
   -3   19    3     -0.10      0.00
   -2   19    3     -0.61      0.00
   -1   19    3      1.10      0.00
    0   19    3      0.87      0.00
    1   19    3      1.82      0.00
    2   19    3     -3.07      0.00
    3   19    3      1.71      0.00
    4   19    3     -2.39      0.00
    5   19    3      1.30      0.00
    6   19    3     -0.42      0.00
    7   19    3     -0.05      0.00
    8   19    3     -0.24      0.00
    9   19    3      2.88      0.00
   10   19    3      1.50      0.00
   11   19    3     -3.72      0.00
   12   19    3      1.78      0.00
  -11   20    3      5.60      0.00
  -10   20    3     -0.59      0.00
   -9   20    3      0.23      0.00
   -8   20    3      6.83      0.00
   -7   20    3      0.37      0.00
   -6   20    3      1.02      0.00
   -5   20    3     -2.13      0.00
   -4   20    3     -2.61      0.00
   -3   20    3     -0.40      0.00
   -2   20    3     -1.18      0.00
   -1   20    3      0.51      0.00
    0   20    3     -1.26      0.00
    1   20    3      1.66      0.00
    2   20    3     -1.27      0.00
    3   20    3     -0.50      0.00
    4   20    3      1.78      0.00
    5   20    3     -0.31      0.00
    6   20    3      1.88      0.00
    7   20    3      0.40      0.00
    8   20    3      0.67      0.00
    9   20    3      0.37      0.00
   10   20    3      4.82      0.00
   11   20    3      0.93      0.00
   -9   21    3     -5.33      0.00
   -8   21    3      2.93      0.00
   -7   21    3      5.34      0.00
   -6   21    3      1.18      0.00
   -5   21    3      4.00      0.00
   -4   21    3     -0.98      0.00
   -3   21    3     -0.69      0.00
   -2   21    3     -2.61      0.00
   -1   21    3     -0.30      0.00
    0   21    3      1.87      0.00
    1   21    3      0.97      0.00
    2   21    3     -1.46      0.00
    3   21    3      2.11      0.00
    4   21    3     -1.85      0.00
    5   21    3     -0.67      0.00
    6   21    3     -2.46      0.00
    7   21    3     -1.05      0.00
    8   21    3     -0.31      0.00
    9   21    3      1.06      0.00
   -6   22    3     -0.05      0.00
   -5   22    3      0.84      0.00
   -4   22    3      2.16      0.00
   -3   22    3     -1.17      0.00
   -2   22    3     -1.44      0.00
   -1   22    3     -1.74      0.00
    0   22    3     -0.34      0.00
    1   22    3     -0.17      0.00
    2   22    3     -2.41      0.00
    3   22    3     -0.20      0.00
    4   22    3      1.85      0.00
    5   22    3     -1.21      0.00
    6   22    3     -0.10      0.00
    0    0    4      7.83      0.00
    0    1    4      1.68      0.00
    1    1    4      0.36      0.00
   -1    2    4     -4.64      0.00
    0    2    4      1.97      0.00
    1    2    4      4.59      0.00
    2    2    4     -1.28      0.00
   -2    3    4      2.82      0.00
   -1    3    4     -0.18      0.00
    0    3    4     -6.20      0.00
    1    3    4     -0.18      0.00
    2    3    4      2.55      0.00
    3    3    4     -0.92      0.00
   -3    4    4      1.62      0.00
   -2    4    4     -0.48      0.00
   -1    4    4      0.28      0.00
    0    4    4      0.66      0.00
    1    4    4      0.02      0.00
    2    4    4     -0.40      0.00
    3    4    4      0.00      0.00
    4    4    4      2.94      0.00
   -4    5    4      2.37      0.00
   -3    5    4      3.12      0.00
   -2    5    4      7.47      0.00
   -1    5    4      0.14      0.00
    0    5    4      4.21      0.00
    1    5    4      0.51      0.00
    2    5    4      7.43      0.00
    3    5    4     -1.78      0.00
    4    5    4      2.64      0.00
    5    5    4      0.24      0.00
   -5    6    4      0.91      0.00
   -4    6    4      1.90      0.00
   -3    6    4      1.64      0.00
   -2    6    4      4.09      0.00
   -1    6    4      0.59      0.00
    0    6    4      2.23      0.00
    1    6    4      0.09      0.00
    2    6    4      1.82      0.00
    3    6    4     -0.84      0.00
    4    6    4      1.86      0.00
    5    6    4     -1.04      0.00
    6    6    4      1.89      0.00
   -6    7    4     -0.62      0.00
   -5    7    4     -0.11      0.00
   -4    7    4      5.18      0.00
   -3    7    4     -1.06      0.00
   -2    7    4      8.21      0.00
   -1    7    4     -0.55      0.00
    0    7    4      9.44      0.00
    1    7    4      1.09      0.00
    2    7    4      7.99      0.00
    3    7    4      0.05      0.00
    4    7    4      4.11      0.00
    5    7    4      0.32      0.00
    6    7    4     -0.47      0.00
    7    7    4      1.01      0.00
   -7    8    4     -0.36      0.00
   -6    8    4     -0.20      0.00
   -5    8    4     -1.40      0.00
   -4    8    4      1.19      0.00
   -3    8    4     -1.58      0.00
   -2    8    4      2.06      0.00
   -1    8    4     -1.24      0.00
    0    8    4      0.10      0.00
    1    8    4      1.27      0.00
    2    8    4     -0.13      0.00
    3    8    4      1.58      0.00
    4    8    4      1.38      0.00
    5    8    4      0.54      0.00
    6    8    4      0.44      0.00
    7    8    4      0.16      0.00
    8    8    4      2.02      0.00
   -8    9    4     -0.61      0.00
   -7    9    4     -0.80      0.00
   -6    9    4     -1.17      0.00
   -5    9    4     -2.80      0.00
   -4    9    4      1.37      0.00
   -3    9    4     -2.42      0.00
   -2    9    4     -1.10      0.00
   -1    9    4      1.08      0.00
    0    9    4     -0.11      0.00
    1    9    4      2.46      0.00
    2    9    4     -1.07      0.00
    3    9    4     -0.12      0.00
    4    9    4      0.73      0.00
    5    9    4      0.19      0.00
    6    9    4     -1.20      0.00
    7    9    4     -1.20      0.00
    8    9    4     -0.43      0.00
    9    9    4      1.07      0.00
   -9   10    4      3.40      0.00
   -8   10    4      1.39      0.00
   -7   10    4      0.83      0.00
   -6   10    4      1.58      0.00
   -5   10    4      0.66      0.00
   -4   10    4     -1.16      0.00
   -3   10    4      0.60      0.00
   -2   10    4     -2.17      0.00
   -1   10    4      0.39      0.00
    0   10    4      1.24      0.00
    1   10    4      0.25      0.00
    2   10    4      0.45      0.00
    3   10    4     -0.52      0.00
    4   10    4      1.29      0.00
    5   10    4     -1.14      0.00
    6   10    4     -0.58      0.00
    7   10    4     -0.64      0.00
    8   10    4     -0.87      0.00
    9   10    4     -1.43      0.00
   10   10    4      1.19      0.00
  -10   11    4     -1.64      0.00
   -9   11    4     -0.22      0.00
   -8   11    4      1.32      0.00
   -7   11    4     -1.29      0.00
   -6   11    4      0.34      0.00
   -5   11    4      3.23      0.00
   -4   11    4      2.24      0.00
   -3   11    4     -0.48      0.00
   -2   11    4      0.55      0.00
   -1   11    4     -3.49      0.00
    0   11    4      0.80      0.00
    1   11    4      2.32      0.00
    2   11    4      0.02      0.00
    3   11    4      0.17      0.00
    4   11    4      1.20      0.00
    5   11    4      3.88      0.00
    6   11    4     -0.69      0.00
    7   11    4     -0.07      0.00
    8   11    4      1.05      0.00
    9   11    4     -2.34      0.00
   10   11    4     -2.12      0.00
   11   11    4      0.04      0.00
  -11   12    4      0.27      0.00
  -10   12    4     -0.67      0.00
   -9   12    4     -0.14      0.00
   -8   12    4      1.47      0.00
   -7   12    4     -1.56      0.00
   -6   12    4     -4.32      0.00
   -5   12    4     -1.50      0.00
   -4   12    4      0.08      0.00
   -3   12    4     -0.20      0.00
   -2   12    4      0.41      0.00
   -1   12    4      0.46      0.00
    0   12    4     -1.03      0.00
    1   12    4     -0.47      0.00
    2   12    4      1.52      0.00
    3   12    4     -0.75      0.00
    4   12    4     -1.76      0.00
    5   12    4      0.37      0.00
    6   12    4      2.08      0.00
    7   12    4      0.43      0.00
    8   12    4     -0.27      0.00
    9   12    4      1.57      0.00
   10   12    4     -2.11      0.00
   11   12    4      0.12      0.00
   12   12    4      0.57      0.00
  -12   13    4      0.50      0.00
  -11   13    4      0.12      0.00
  -10   13    4      0.21      0.00
   -9   13    4     -2.99      0.00
   -8   13    4      2.10      0.00
   -7   13    4      1.01      0.00
   -6   13    4      1.71      0.00
   -5   13    4      0.67      0.00
   -4   13    4      0.22      0.00
   -3   13    4     -0.78      0.00
   -2   13    4      0.95      0.00
   -1   13    4     -2.77      0.00
    0   13    4     -1.32      0.00
    1   13    4     -1.31      0.00
    2   13    4      0.22      0.00
    3   13    4      1.31      0.00
    4   13    4     -0.35      0.00
    5   13    4      0.51      0.00
    6   13    4      0.52      0.00
    7   13    4      2.15      0.00
    8   13    4      0.69      0.00
    9   13    4      0.76      0.00
   10   13    4     -0.93      0.00
   11   13    4     -2.01      0.00
   12   13    4      0.45      0.00
   13   13    4      0.04      0.00
  -13   14    4      0.42      0.00
  -12   14    4     -3.13      0.00
  -11   14    4      0.16      0.00
  -10   14    4     -0.32      0.00
   -9   14    4      0.85      0.00
   -8   14    4      0.06      0.00
   -7   14    4      0.67      0.00
   -6   14    4     -1.83      0.00
   -5   14    4      1.05      0.00
   -4   14    4      1.55      0.00
   -3   14    4     -1.25      0.00
   -2   14    4      1.30      0.00
   -1   14    4      1.16      0.00
    0   14    4     -1.95      0.00
    1   14    4     -1.21      0.00
    2   14    4     -0.42      0.00
    3   14    4     -0.04      0.00
    4   14    4     -0.25      0.00
    5   14    4     -0.29      0.00
    6   14    4      1.30      0.00
    7   14    4      1.12      0.00
    8   14    4      0.25      0.00
    9   14    4      1.86      0.00
   10   14    4      2.18      0.00
   11   14    4     -1.52      0.00
   12   14    4      1.55      0.00
   13   14    4     -0.08      0.00
   14   14    4     -1.38      0.00
  -14   15    4     -1.61      0.00
  -13   15    4      2.05      0.00
  -12   15    4      1.59      0.00
  -11   15    4     -1.96      0.00
  -10   15    4     -1.15      0.00
   -9   15    4     -1.81      0.00
   -8   15    4     -0.85      0.00
   -7   15    4      1.52      0.00
   -6   15    4      0.39      0.00
   -5   15    4      0.32      0.00
   -4   15    4      0.47      0.00
   -3   15    4      0.92      0.00
   -2   15    4     -0.37      0.00
   -1   15    4      0.50      0.00
    0   15    4     -1.27      0.00
    1   15    4     -3.05      0.00
    2   15    4     -0.40      0.00
    3   15    4     -0.96      0.00
    4   15    4      0.54      0.00
    5   15    4     -1.32      0.00
    6   15    4     -1.48      0.00
    7   15    4     -0.49      0.00
    8   15    4     -0.37      0.00
    9   15    4     -1.08      0.00
   10   15    4      0.56      0.00
   11   15    4     -0.43      0.00
   12   15    4     -0.31      0.00
   13   15    4      3.51      0.00
   14   15    4      2.07      0.00
   15   15    4     -0.86      0.00
  -15   16    4      0.50      0.00
  -14   16    4     -0.43      0.00
  -13   16    4     -0.96      0.00
  -12   16    4      0.31      0.00
  -11   16    4      0.77      0.00
  -10   16    4     -0.58      0.00
   -9   16    4      0.07      0.00
   -8   16    4      1.05      0.00
   -7   16    4     -0.61      0.00
   -6   16    4      0.60      0.00
   -5   16    4      0.47      0.00
   -4   16    4      0.71      0.00
   -3   16    4      0.66      0.00
   -2   16    4      0.78      0.00
   -1   16    4      0.44      0.00
    0   16    4      0.12      0.00
    1   16    4     -0.01      0.00
    2   16    4     -1.50      0.00
    3   16    4     -4.00      0.00
    4   16    4     -2.23      0.00
    5   16    4      0.40      0.00
    6   16    4     -0.47      0.00
    7   16    4     -0.51      0.00
    8   16    4     -1.66      0.00
    9   16    4      1.24      0.00
   10   16    4     -1.65      0.00
   11   16    4     -1.33      0.00
   12   16    4     -1.65      0.00
   13   16    4     -1.33      0.00
   14   16    4      1.80      0.00
   15   16    4      3.61      0.00
  -14   17    4     -3.39      0.00
  -13   17    4      2.04      0.00
  -12   17    4      0.50      0.00
  -11   17    4      0.61      0.00
  -10   17    4     -0.24      0.00
   -9   17    4     -3.01      0.00
   -8   17    4     -0.21      0.00
   -7   17    4     -0.72      0.00
   -6   17    4     -0.49      0.00
   -5   17    4     -0.13      0.00
   -4   17    4      0.96      0.00
   -3   17    4      1.73      0.00
   -2   17    4      1.32      0.00
   -1   17    4      1.15      0.00
    0   17    4     -0.36      0.00
    1   17    4     -0.28      0.00
    2   17    4      4.32      0.00
    3   17    4      1.15      0.00
    4   17    4      0.57      0.00
    5   17    4     -1.53      0.00
    6   17    4     -0.73      0.00
    7   17    4     -1.50      0.00
    8   17    4     -0.10      0.00
    9   17    4      2.51      0.00
   10   17    4      2.48      0.00
   11   17    4     -3.45      0.00
   12   17    4      0.60      0.00
   13   17    4     -0.80      0.00
   14   17    4     -2.51      0.00
  -13   18    4     -2.58      0.00
  -12   18    4      1.39      0.00
  -11   18    4      0.04      0.00
  -10   18    4      3.03      0.00
   -9   18    4      0.55      0.00
   -8   18    4      2.39      0.00
   -7   18    4     -0.62      0.00
   -6   18    4     -0.92      0.00
   -5   18    4     -2.78      0.00
   -4   18    4     -3.71      0.00
   -3   18    4     -0.21      0.00
   -2   18    4      1.17      0.00
   -1   18    4      0.30      0.00
    0   18    4      2.05      0.00
    1   18    4     -2.42      0.00
    2   18    4      1.35      0.00
    3   18    4     -2.88      0.00
    4   18    4      2.48      0.00
    5   18    4      1.56      0.00
    6   18    4      2.63      0.00
    7   18    4     -1.21      0.00
    8   18    4     -0.87      0.00
    9   18    4     -0.33      0.00
   10   18    4      4.36      0.00
   11   18    4     -0.85      0.00
   12   18    4     -1.13      0.00
   13   18    4      1.96      0.00
  -11   19    4     -1.68      0.00
  -10   19    4     -2.00      0.00
   -9   19    4     -4.92      0.00
   -8   19    4      1.09      0.00
   -7   19    4     -1.19      0.00
   -6   19    4      0.12      0.00
   -5   19    4      1.48      0.00
   -4   19    4     -1.06      0.00
   -3   19    4     -3.04      0.00
   -2   19    4     -0.39      0.00
   -1   19    4     -0.47      0.00
    0   19    4      0.72      0.00
    1   19    4      0.70      0.00
    2   19    4      1.01      0.00
    3   19    4      2.76      0.00
    4   19    4     -1.99      0.00
    5   19    4      0.53      0.00
    6   19    4     -0.94      0.00
    7   19    4      0.82      0.00
    8   19    4      0.38      0.00
    9   19    4      5.90      0.00
   10   19    4      1.68      0.00
   11   19    4     -1.23      0.00
  -10   20    4      5.99      0.00
   -9   20    4     -0.55      0.00
   -8   20    4      3.74      0.00
   -7   20    4      0.90      0.00
   -6   20    4     -1.73      0.00
   -5   20    4     -0.71      0.00
   -4   20    4      0.78      0.00
   -3   20    4     -0.75      0.00
   -2   20    4     -0.78      0.00
   -1   20    4      0.49      0.00
    0   20    4     -0.60      0.00
    1   20    4      0.01      0.00
    2   20    4     -3.14      0.00
    3   20    4      1.98      0.00
    4   20    4      2.09      0.00
    5   20    4      2.44      0.00
    6   20    4      0.48      0.00
    7   20    4     -0.54      0.00
    8   20    4     -2.20      0.00
    9   20    4      0.78      0.00
   10   20    4     10.61      0.00
   -7   21    4      3.88      0.00
   -6   21    4     -0.16      0.00
   -5   21    4     -0.41      0.00
   -4   21    4      0.43      0.00
   -3   21    4     -1.99      0.00
   -2   21    4     -0.96      0.00
   -1   21    4      2.03      0.00
    0   21    4      0.81      0.00
    1   21    4      5.04      0.00
    2   21    4     -2.83      0.00
    3   21    4      1.32      0.00
    4   21    4     -1.00      0.00
    5   21    4      0.66      0.00
    6   21    4      0.01      0.00
    7   21    4     -4.16      0.00
   -4   22    4      1.94      0.00
   -3   22    4     -0.90      0.00
   -2   22    4     -5.05      0.00
   -1   22    4     -0.19      0.00
    0   22    4     -1.21      0.00
    1   22    4     -0.85      0.00
    2   22    4     -0.63      0.00
    3   22    4     -1.22      0.00
    4   22    4      3.37      0.00
    0    0    5     -2.96      0.00
    0    1    5      1.71      0.00
    1    1    5     -0.75      0.00
   -1    2    5     -2.59      0.00
    0    2    5     -2.94      0.00
    1    2    5      1.60      0.00
    2    2    5     -0.70      0.00
   -2    3    5      2.48      0.00
   -1    3    5      2.59      0.00
    0    3    5      0.93      0.00
    1    3    5     -2.39      0.00
    2    3    5      1.41      0.00
    3    3    5     -0.36      0.00
   -3    4    5      2.85      0.00
   -2    4    5     -1.37      0.00
   -1    4    5     -1.28      0.00
    0    4    5     -1.22      0.00
    1    4    5     -0.19      0.00
    2    4    5     -1.77      0.00
    3    4    5     -1.48      0.00
    4    4    5     -0.39      0.00
   -4    5    5     -0.38      0.00
   -3    5    5     -0.58      0.00
   -2    5    5      7.08      0.00
   -1    5    5      1.45      0.00
    0    5    5      2.98      0.00
    1    5    5     -2.03      0.00
    2    5    5      4.43      0.00
    3    5    5      0.26      0.00
    4    5    5     -0.77      0.00
    5    5    5      2.09      0.00
   -5    6    5     -0.33      0.00
   -4    6    5     -0.09      0.00
   -3    6    5     -0.20      0.00
   -2    6    5      0.90      0.00
   -1    6    5      1.54      0.00
    0    6    5      6.05      0.00
    1    6    5      0.84      0.00
    2    6    5      1.02      0.00
    3    6    5      1.32      0.00
    4    6    5      0.85      0.00
    5    6    5      0.97      0.00
    6    6    5     -0.51      0.00
   -6    7    5      0.67      0.00
   -5    7    5     -1.73      0.00
   -4    7    5      0.49      0.00
   -3    7    5     -2.19      0.00
   -2    7    5      3.90      0.00
   -1    7    5     -3.43      0.00
    0    7    5      1.20      0.00
    1    7    5      1.65      0.00
    2    7    5      2.90      0.00
    3    7    5      1.96      0.00
    4    7    5      0.63      0.00
    5    7    5      2.36      0.00
    6    7    5      0.91      0.00
    7    7    5      0.71      0.00
   -7    8    5      0.58      0.00
   -6    8    5      0.42      0.00
   -5    8    5      1.08      0.00
   -4    8    5      1.05      0.00
   -3    8    5      0.56      0.00
   -2    8    5      1.37      0.00
   -1    8    5      3.82      0.00
    0    8    5      2.15      0.00
    1    8    5     -1.91      0.00
    2    8    5     -0.49      0.00
    3    8    5     -1.13      0.00
    4    8    5      0.16      0.00
    5    8    5     -1.77      0.00
    6    8    5      0.39      0.00
    7    8    5     -1.30      0.00
    8    8    5     -1.21      0.00
   -8    9    5      0.19      0.00
   -7    9    5      0.41      0.00
   -6    9    5      0.69      0.00
   -5    9    5      0.35      0.00
   -4    9    5      1.11      0.00
   -3    9    5     -0.75      0.00
   -2    9    5      1.16      0.00
   -1    9    5     -2.24      0.00
    0    9    5      3.54      0.00
    1    9    5      2.32      0.00
    2    9    5      1.80      0.00
    3    9    5      0.43      0.00
    4    9    5      1.40      0.00
    5    9    5     -1.01      0.00
    6    9    5      0.17      0.00
    7    9    5      0.77      0.00
    8    9    5      0.30      0.00
    9    9    5     -0.35      0.00
   -9   10    5      0.18      0.00
   -8   10    5     -2.60      0.00
   -7   10    5      0.90      0.00
   -6   10    5     -0.31      0.00
   -5   10    5     -0.12      0.00
   -4   10    5      0.40      0.00
   -3   10    5     -1.30      0.00
   -2   10    5      0.37      0.00
   -1   10    5      1.29      0.00
    0   10    5      0.21      0.00
    1   10    5     -1.05      0.00
    2   10    5     -0.33      0.00
    3   10    5      0.06      0.00
    4   10    5      0.93      0.00
    5   10    5      0.17      0.00
    6   10    5      1.27      0.00
    7   10    5     -0.90      0.00
    8   10    5     -1.48      0.00
    9   10    5      1.10      0.00
   10   10    5     -1.59      0.00
  -10   11    5      0.09      0.00
   -9   11    5     -1.07      0.00
   -8   11    5     -1.25      0.00
   -7   11    5     -2.48      0.00
   -6   11    5     -0.61      0.00
   -5   11    5      1.58      0.00
   -4   11    5      0.82      0.00
   -3   11    5     -0.04      0.00
   -2   11    5     -1.75      0.00
   -1   11    5     -1.21      0.00
    0   11    5      0.67      0.00
    1   11    5      1.52      0.00
    2   11    5     -1.60      0.00
    3   11    5     -0.38      0.00
    4   11    5     -0.93      0.00
    5   11    5     -1.75      0.00
    6   11    5      0.46      0.00
    7   11    5      5.37      0.00
    8   11    5      0.17      0.00
    9   11    5      0.05      0.00
   10   11    5      1.80      0.00
   11   11    5      0.73      0.00
  -11   12    5      0.77      0.00
  -10   12    5      0.72      0.00
   -9   12    5      1.33      0.00
   -8   12    5     -0.31      0.00
   -7   12    5      2.26      0.00
   -6   12    5     -4.89      0.00
   -5   12    5      0.20      0.00
   -4   12    5     -0.19      0.00
   -3   12    5      0.99      0.00
   -2   12    5     -0.67      0.00
   -1   12    5      0.27      0.00
    0   12    5     -0.96      0.00
    1   12    5     -0.52      0.00
    2   12    5     -1.05      0.00
    3   12    5     -0.61      0.00
    4   12    5     -0.72      0.00
    5   12    5     -2.39      0.00
    6   12    5     -4.12      0.00
    7   12    5      0.02      0.00
    8   12    5      0.71      0.00
    9   12    5      0.27      0.00
   10   12    5      0.48      0.00
   11   12    5      1.53      0.00
   12   12    5     -0.42      0.00
  -12   13    5      0.20      0.00
  -11   13    5     -0.98      0.00
  -10   13    5      2.04      0.00
   -9   13    5     -0.74      0.00
   -8   13    5     -1.80      0.00
   -7   13    5      0.69      0.00
   -6   13    5      1.55      0.00
   -5   13    5     -1.14      0.00
   -4   13    5      1.43      0.00
   -3   13    5     -0.42      0.00
   -2   13    5      1.24      0.00
   -1   13    5     -0.56      0.00
    0   13    5      0.53      0.00
    1   13    5      0.16      0.00
    2   13    5      0.01      0.00
    3   13    5     -1.47      0.00
    4   13    5      1.38      0.00
    5   13    5     -1.85      0.00
    6   13    5     -1.72      0.00
    7   13    5     -0.56      0.00
    8   13    5     -0.69      0.00
    9   13    5     -1.67      0.00
   10   13    5     -0.15      0.00
   11   13    5      1.92      0.00
   12   13    5     -0.09      0.00
   13   13    5     -1.32      0.00
  -13   14    5      1.82      0.00
  -12   14    5     -0.61      0.00
  -11   14    5     -2.24      0.00
  -10   14    5      0.26      0.00
   -9   14    5      2.48      0.00
   -8   14    5     -1.83      0.00
   -7   14    5     -0.30      0.00
   -6   14    5     -3.10      0.00
   -5   14    5     -1.07      0.00
   -4   14    5     -1.03      0.00
   -3   14    5     -0.93      0.00
   -2   14    5     -1.97      0.00
   -1   14    5      0.04      0.00
    0   14    5     -1.08      0.00
    1   14    5     -1.31      0.00
    2   14    5     -0.05      0.00
    3   14    5     -0.44      0.00
    4   14    5      0.51      0.00
    5   14    5      2.81      0.00
    6   14    5     -1.63      0.00
    7   14    5      0.71      0.00
    8   14    5     -0.37      0.00
    9   14    5      0.08      0.00
   10   14    5     -0.81      0.00
   11   14    5     -0.14      0.00
   12   14    5      0.85      0.00
   13   14    5      0.49      0.00
   14   14    5     -3.76      0.00
  -14   15    5     -1.96      0.00
  -13   15    5     -1.88      0.00
  -12   15    5      2.45      0.00
  -11   15    5     -0.66      0.00
  -10   15    5     -1.34      0.00
   -9   15    5      3.04      0.00
   -8   15    5     -1.71      0.00
   -7   15    5      1.11      0.00
   -6   15    5      2.64      0.00
   -5   15    5      0.21      0.00
   -4   15    5      2.00      0.00
   -3   15    5     -0.73      0.00
   -2   15    5      1.25      0.00
   -1   15    5     -2.76      0.00
    0   15    5      1.49      0.00
    1   15    5     -2.24      0.00
    2   15    5     -0.03      0.00
    3   15    5     -1.59      0.00
    4   15    5     -1.56      0.00
    5   15    5      0.90      0.00
    6   15    5      1.73      0.00
    7   15    5      2.05      0.00
    8   15    5     -0.75      0.00
    9   15    5      1.43      0.00
   10   15    5      0.58      0.00
   11   15    5      0.65      0.00
   12   15    5      1.10      0.00
   13   15    5      1.17      0.00
   14   15    5     -0.50      0.00
   15   15    5      0.66      0.00
  -14   16    5     -3.33      0.00
  -13   16    5     -3.15      0.00
  -12   16    5     -1.31      0.00
  -11   16    5     -0.27      0.00
  -10   16    5      0.54      0.00
   -9   16    5      2.75      0.00
   -8   16    5      3.32      0.00
   -7   16    5     -1.28      0.00
   -6   16    5      0.09      0.00
   -5   16    5      0.85      0.00
   -4   16    5      2.30      0.00
   -3   16    5      1.70      0.00
   -2   16    5      1.18      0.00
   -1   16    5      1.05      0.00
    0   16    5     -0.33      0.00
    1   16    5      0.15      0.00
    2   16    5     -0.87      0.00
    3   16    5     -0.26      0.00
    4   16    5     -1.93      0.00
    5   16    5     -1.14      0.00
    6   16    5     -4.10      0.00
    7   16    5      2.63      0.00
    8   16    5     -1.66      0.00
    9   16    5      0.64      0.00
   10   16    5      2.75      0.00
   11   16    5     -1.06      0.00
   12   16    5     -0.70      0.00
   13   16    5      2.14      0.00
   14   16    5      0.29      0.00
  -13   17    5     -4.58      0.00
  -12   17    5     -1.76      0.00
  -11   17    5     -3.88      0.00
  -10   17    5     -3.88      0.00
   -9   17    5     -0.53      0.00
   -8   17    5     -0.63      0.00
   -7   17    5     -0.81      0.00
   -6   17    5      0.56      0.00
   -5   17    5     -1.51      0.00
   -4   17    5      0.65      0.00
   -3   17    5     -1.90      0.00
   -2   17    5      0.55      0.00
   -1   17    5     -1.48      0.00
    0   17    5      1.37      0.00
    1   17    5      0.68      0.00
    2   17    5     -0.25      0.00
    3   17    5      0.61      0.00
    4   17    5     -0.65      0.00
    5   17    5      2.86      0.00
    6   17    5     -0.18      0.00
    7   17    5     -2.67      0.00
    8   17    5      0.16      0.00
    9   17    5     -2.82      0.00
   10   17    5      4.11      0.00
   11   17    5      0.36      0.00
   12   17    5     -0.02      0.00
   13   17    5     -2.53      0.00
  -12   18    5     -2.13      0.00
  -11   18    5      0.98      0.00
  -10   18    5     -2.94      0.00
   -9   18    5      0.36      0.00
   -8   18    5      1.82      0.00
   -7   18    5     -1.50      0.00
   -6   18    5     -1.96      0.00
   -5   18    5     -1.40      0.00
   -4   18    5      0.19      0.00
   -3   18    5      0.39      0.00
   -2   18    5     -1.87      0.00
   -1   18    5     -0.73      0.00
    0   18    5     -5.03      0.00
    1   18    5      1.74      0.00
    2   18    5     -0.36      0.00
    3   18    5     -0.73      0.00
    4   18    5      0.16      0.00
    5   18    5     -2.61      0.00
    6   18    5      1.68      0.00
    7   18    5      0.52      0.00
    8   18    5     -0.98      0.00
    9   18    5     -2.11      0.00
   10   18    5      2.96      0.00
   11   18    5      2.35      0.00
   12   18    5     -0.01      0.00
  -10   19    5     -2.70      0.00
   -9   19    5     -3.02      0.00
   -8   19    5     -0.84      0.00
   -7   19    5     -1.05      0.00
   -6   19    5     -1.54      0.00
   -5   19    5     -2.17      0.00
   -4   19    5     -3.00      0.00
   -3   19    5     -0.06      0.00
   -2   19    5     -0.40      0.00
   -1   19    5      2.84      0.00
    0   19    5     -0.83      0.00
    1   19    5     -1.64      0.00
    2   19    5      1.16      0.00
    3   19    5     -0.40      0.00
    4   19    5      2.00      0.00
    5   19    5      4.51      0.00
    6   19    5     -1.09      0.00
    7   19    5     -0.03      0.00
    8   19    5     -0.71      0.00
    9   19    5     -2.68      0.00
   10   19    5     -0.83      0.00
   -8   20    5      4.33      0.00
   -7   20    5      0.68      0.00
   -6   20    5      1.49      0.00
   -5   20    5      0.82      0.00
   -4   20    5      0.47      0.00
   -3   20    5     -1.73      0.00
   -2   20    5     -1.45      0.00
   -1   20    5     -2.12      0.00
    0   20    5     -0.40      0.00
    1   20    5     -0.36      0.00
    2   20    5      0.77      0.00
    3   20    5     -3.16      0.00
    4   20    5     -0.93      0.00
    5   20    5     -1.06      0.00
    6   20    5      5.84      0.00
    7   20    5      2.21      0.00
    8   20    5      2.18      0.00
   -5   21    5     -1.46      0.00
   -4   21    5      1.66      0.00
   -3   21    5     -0.22      0.00
   -2   21    5      2.40      0.00
   -1   21    5      3.48      0.00
    0   21    5     -1.36      0.00
    1   21    5     -0.46      0.00
    2   21    5      2.78      0.00
    3   21    5      1.26      0.00
    4   21    5     -0.67      0.00
    5   21    5     -0.60      0.00
    0    0    6     -5.28      0.00
    0    1    6     -0.45      0.00
    1    1    6     -0.21      0.00
   -1    2    6      0.40      0.00
    0    2    6     -2.90      0.00
    1    2    6     -0.96      0.00
    2    2    6     -0.97      0.00
   -2    3    6     -0.90      0.00
   -1    3    6      0.45      0.00
    0    3    6     -0.29      0.00
    1    3    6     -0.22      0.00
    2    3    6      0.44      0.00
    3    3    6      1.51      0.00
   -3    4    6      1.83      0.00
   -2    4    6     -1.76      0.00
   -1    4    6      1.47      0.00
    0    4    6     -2.52      0.00
    1    4    6     -2.01      0.00
    2    4    6     -1.29      0.00
    3    4    6     -0.04      0.00
    4    4    6      0.10      0.00
   -4    5    6     -0.06      0.00
   -3    5    6     -1.03      0.00
   -2    5    6     -0.43      0.00
   -1    5    6      0.39      0.00
    0    5    6     -0.41      0.00
    1    5    6     -1.94      0.00
    2    5    6     -1.37      0.00
    3    5    6      0.17      0.00
    4    5    6     -1.53      0.00
    5    5    6      0.39      0.00
   -5    6    6     -0.24      0.00
   -4    6    6      0.49      0.00
   -3    6    6     -0.22      0.00
   -2    6    6     -0.07      0.00
   -1    6    6      1.08      0.00
    0    6    6      2.30      0.00
    1    6    6     -2.59      0.00
    2    6    6      0.41      0.00
    3    6    6     -0.28      0.00
    4    6    6      0.75      0.00
    5    6    6      1.40      0.00
    6    6    6     -0.65      0.00
   -6    7    6     -1.81      0.00
   -5    7    6     -1.74      0.00
   -4    7    6     -1.69      0.00
   -3    7    6     -2.14      0.00
   -2    7    6     -1.84      0.00
   -1    7    6     -1.10      0.00
    0    7    6      1.07      0.00
    1    7    6     -1.52      0.00
    2    7    6     -1.57      0.00
    3    7    6      0.51      0.00
    4    7    6     -2.06      0.00
    5    7    6      2.22      0.00
    6    7    6     -0.26      0.00
    7    7    6      2.78      0.00
   -7    8    6      1.54      0.00
   -6    8    6     -1.05      0.00
   -5    8    6     -0.46      0.00
   -4    8    6     -0.26      0.00
   -3    8    6     -0.18      0.00
   -2    8    6     -0.75      0.00
   -1    8    6      0.27      0.00
    0    8    6      2.11      0.00
    1    8    6     -0.38      0.00
    2    8    6     -0.26      0.00
    3    8    6      1.38      0.00
    4    8    6     -0.67      0.00
    5    8    6      2.37      0.00
    6    8    6     -0.41      0.00
    7    8    6     -0.20      0.00
    8    8    6      0.65      0.00
   -8    9    6     -0.88      0.00
   -7    9    6     -0.05      0.00
   -6    9    6     -0.46      0.00
   -5    9    6     -0.04      0.00
   -4    9    6     -0.19      0.00
   -3    9    6     -0.08      0.00
   -2    9    6      0.59      0.00
   -1    9    6     -0.74      0.00
    0    9    6      2.73      0.00
    1    9    6      0.08      0.00
    2    9    6      0.08      0.00
    3    9    6      1.04      0.00
    4    9    6     -1.08      0.00
    5    9    6      1.67      0.00
    6    9    6     -0.81      0.00
    7    9    6      1.53      0.00
    8    9    6      0.57      0.00
    9    9    6      0.26      0.00
   -9   10    6     -1.16      0.00
   -8   10    6      0.88      0.00
   -7   10    6      1.73      0.00
   -6   10    6     -1.35      0.00
   -5   10    6     -0.01      0.00
   -4   10    6     -1.27      0.00
   -3   10    6     -1.32      0.00
   -2   10    6      1.13      0.00
   -1   10    6     -0.73      0.00
    0   10    6      1.62      0.00
    1   10    6     -0.85      0.00
    2   10    6     -0.35      0.00
    3   10    6      0.65      0.00
    4   10    6     -1.25      0.00
    5   10    6      0.93      0.00
    6   10    6     -0.64      0.00
    7   10    6     -3.21      0.00
    8   10    6      1.40      0.00
    9   10    6     -0.60      0.00
   10   10    6      0.29      0.00
  -10   11    6     -0.25      0.00
   -9   11    6     -0.19      0.00
   -8   11    6     -2.41      0.00
   -7   11    6      3.51      0.00
   -6   11    6      0.48      0.00
   -5   11    6      0.83      0.00
   -4   11    6      1.02      0.00
   -3   11    6     -1.46      0.00
   -2   11    6      0.31      0.00
   -1   11    6      0.05      0.00
    0   11    6      1.98      0.00
    1   11    6      0.04      0.00
    2   11    6     -1.16      0.00
    3   11    6     -1.20      0.00
    4   11    6     -0.84      0.00
    5   11    6     -1.25      0.00
    6   11    6     -0.37      0.00
    7   11    6     -2.17      0.00
    8   11    6     -2.19      0.00
    9   11    6      0.72      0.00
   10   11    6      0.30      0.00
   11   11    6      2.70      0.00
  -11   12    6      0.74      0.00
  -10   12    6     -1.50      0.00
   -9   12    6     -0.04      0.00
   -8   12    6     -2.09      0.00
   -7   12    6      1.01      0.00
   -6   12    6     -0.89      0.00
   -5   12    6      2.46      0.00
   -4   12    6     -0.52      0.00
   -3   12    6      1.74      0.00
   -2   12    6     -0.39      0.00
   -1   12    6      2.02      0.00
    0   12    6      0.91      0.00
    1   12    6      1.61      0.00
    2   12    6     -0.71      0.00
    3   12    6     -0.58      0.00
    4   12    6     -1.15      0.00
    5   12    6      0.19      0.00
    6   12    6     -0.50      0.00
    7   12    6     -1.96      0.00
    8   12    6     -0.37      0.00
    9   12    6     -0.19      0.00
   10   12    6     -1.59      0.00
   11   12    6     -0.72      0.00
   12   12    6      0.94      0.00
  -12   13    6     -0.90      0.00
  -11   13    6      0.85      0.00
  -10   13    6      0.83      0.00
   -9   13    6      0.88      0.00
   -8   13    6     -3.55      0.00
   -7   13    6      1.59      0.00
   -6   13    6     -3.29      0.00
   -5   13    6     -0.95      0.00
   -4   13    6     -0.11      0.00
   -3   13    6     -1.22      0.00
   -2   13    6     -0.77      0.00
   -1   13    6     -0.38      0.00
    0   13    6      2.82      0.00
    1   13    6      2.49      0.00
    2   13    6      1.51      0.00
    3   13    6     -1.19      0.00
    4   13    6     -0.41      0.00
    5   13    6     -0.11      0.00
    6   13    6     -0.30      0.00
    7   13    6     -1.10      0.00
    8   13    6     -3.83      0.00
    9   13    6      1.46      0.00
   10   13    6      1.31      0.00
   11   13    6      0.22      0.00
   12   13    6     -1.52      0.00
   13   13    6      1.86      0.00
  -13   14    6      0.34      0.00
  -12   14    6     -1.43      0.00
  -11   14    6     -1.40      0.00
  -10   14    6     -0.09      0.00
   -9   14    6      1.87      0.00
   -8   14    6     -0.96      0.00
   -7   14    6      1.85      0.00
   -6   14    6      0.11      0.00
   -5   14    6     -0.24      0.00
   -4   14    6      0.25      0.00
   -3   14    6      0.64      0.00
   -2   14    6     -1.01      0.00
   -1   14    6     -0.63      0.00
    0   14    6     -1.37      0.00
    1   14    6      1.06      0.00
    2   14    6      0.30      0.00
    3   14    6      0.08      0.00
    4   14    6     -1.35      0.00
    5   14    6     -0.27      0.00
    6   14    6      0.53      0.00
    7   14    6     -0.72      0.00
    8   14    6     -0.18      0.00
    9   14    6     -2.83      0.00
   10   14    6     -0.18      0.00
   11   14    6      2.94      0.00
   12   14    6     -0.77      0.00
   13   14    6      4.00      0.00
   14   14    6     -0.05      0.00
  -14   15    6      2.98      0.00
  -13   15    6     -1.48      0.00
  -12   15    6     -0.96      0.00
  -11   15    6     -0.22      0.00
  -10   15    6     -1.01      0.00
   -9   15    6      1.03      0.00
   -8   15    6     -1.65      0.00
   -7   15    6     -0.42      0.00
   -6   15    6      0.43      0.00
   -5   15    6     -1.70      0.00
   -4   15    6      0.83      0.00
   -3   15    6     -0.42      0.00
   -2   15    6     -1.05      0.00
   -1   15    6     -1.74      0.00
    0   15    6     -0.02      0.00
    1   15    6     -0.09      0.00
    2   15    6     -0.35      0.00
    3   15    6     -1.03      0.00
    4   15    6     -0.24      0.00
    5   15    6     -0.46      0.00
    6   15    6      0.52      0.00
    7   15    6      1.48      0.00
    8   15    6     -0.66      0.00
    9   15    6      0.63      0.00
   10   15    6     -3.30      0.00
   11   15    6     -0.73      0.00
   12   15    6     -2.22      0.00
   13   15    6     -0.64      0.00
   14   15    6      2.28      0.00
  -13   16    6      0.87      0.00
  -12   16    6     -3.28      0.00
  -11   16    6      1.81      0.00
  -10   16    6     -0.34      0.00
   -9   16    6      2.70      0.00
   -8   16    6      0.53      0.00
   -7   16    6      2.50      0.00
   -6   16    6     -0.38      0.00
   -5   16    6      2.55      0.00
   -4   16    6     -0.90      0.00
   -3   16    6      3.94      0.00
   -2   16    6     -1.64      0.00
   -1   16    6     -0.59      0.00
    0   16    6     -1.55      0.00
    1   16    6     -0.69      0.00
    2   16    6     -0.60      0.00
    3   16    6     -2.30      0.00
    4   16    6     -0.79      0.00
    5   16    6     -1.41      0.00
    6   16    6     -2.50      0.00
    7   16    6      0.48      0.00
    8   16    6      1.42      0.00
    9   16    6      2.93      0.00
   10   16    6      0.54      0.00
   11   16    6     -0.04      0.00
   12   16    6      0.04      0.00
   13   16    6     -3.03      0.00
  -12   17    6     -5.65      0.00
  -11   17    6     -3.13      0.00
  -10   17    6     -2.18      0.00
   -9   17    6     -0.55      0.00
   -8   17    6     -2.18      0.00
   -7   17    6     -0.69      0.00
   -6   17    6     -2.04      0.00
   -5   17    6     -0.31      0.00
   -4   17    6     -0.48      0.00
   -3   17    6      1.31      0.00
   -2   17    6      2.09      0.00
   -1   17    6     -1.50      0.00
    0   17    6      1.06      0.00
    1   17    6     -0.06      0.00
    2   17    6     -0.05      0.00
    3   17    6     -0.29      0.00
    4   17    6     -0.64      0.00
    5   17    6      0.33      0.00
    6   17    6      0.09      0.00
    7   17    6     -1.85      0.00
    8   17    6     -0.33      0.00
    9   17    6     -0.67      0.00
   10   17    6      1.62      0.00
   11   17    6     -0.75      0.00
   12   17    6      2.32      0.00
  -10   18    6     -0.27      0.00
   -9   18    6      0.93      0.00
   -8   18    6      1.04      0.00
   -7   18    6      2.42      0.00
   -6   18    6      0.40      0.00
   -5   18    6      0.42      0.00
   -4   18    6     -0.40      0.00
   -3   18    6     -0.92      0.00
   -2   18    6      0.01      0.00
   -1   18    6     -0.84      0.00
    0   18    6     -1.49      0.00
    1   18    6      0.41      0.00
    2   18    6     -0.98      0.00
    3   18    6     -1.91      0.00
    4   18    6      2.96      0.00
    5   18    6     -1.54      0.00
    6   18    6     -0.33      0.00
    7   18    6      0.95      0.00
    8   18    6      1.23      0.00
    9   18    6      3.48      0.00
   10   18    6     -0.33      0.00
   -8   19    6     -2.18      0.00
   -7   19    6     -0.66      0.00
   -6   19    6     -2.02      0.00
   -5   19    6     -0.33      0.00
   -4   19    6      0.66      0.00
   -3   19    6      0.54      0.00
   -2   19    6     -1.26      0.00
   -1   19    6      0.58      0.00
    0   19    6     -2.77      0.00
    1   19    6      1.37      0.00
    2   19    6     -0.80      0.00
    3   19    6     -2.03      0.00
    4   19    6     -3.56      0.00
    5   19    6      5.71      0.00
    6   19    6     -4.02      0.00
    7   19    6      0.67      0.00
    8   19    6     -2.81      0.00
   -6   20    6     -0.04      0.00
   -5   20    6     -2.71      0.00
   -4   20    6     -1.80      0.00
   -3   20    6     -0.04      0.00
   -2   20    6     -0.83      0.00
   -1   20    6      0.37      0.00
    0   20    6     -2.17      0.00
    1   20    6     -1.86      0.00
    2   20    6      2.76      0.00
    3   20    6      0.04      0.00
    4   20    6     -1.73      0.00
    5   20    6     -1.48      0.00
    6   20    6      2.60      0.00
    0    0    7     -1.02      0.00
    0    1    7     -0.83      0.00
    1    1    7      0.46      0.00
   -1    2    7     -0.10      0.00
    0    2    7     -0.01      0.00
    1    2    7     -0.05      0.00
    2    2    7      1.00      0.00
   -2    3    7     -1.27      0.00
   -1    3    7     -0.58      0.00
    0    3    7     -4.35      0.00
    1    3    7     -1.06      0.00
    2    3    7     -1.34      0.00
    3    3    7     -1.10      0.00
   -3    4    7      3.12      0.00
   -2    4    7     -0.70      0.00
   -1    4    7      2.31      0.00
    0    4    7      0.32      0.00
    1    4    7     -1.86      0.00
    2    4    7     -0.65      0.00
    3    4    7     -0.88      0.00
    4    4    7      0.12      0.00
   -4    5    7     -2.89      0.00
   -3    5    7      1.65      0.00
   -2    5    7     -0.40      0.00
   -1    5    7     -1.05      0.00
    0    5    7      0.11      0.00
    1    5    7      0.93      0.00
    2    5    7     -1.06      0.00
    3    5    7     -0.51      0.00
    4    5    7     -0.61      0.00
    5    5    7      0.00      0.00
   -5    6    7     -0.53      0.00
   -4    6    7     -0.56      0.00
   -3    6    7     -2.08      0.00
   -2    6    7     -0.37      0.00
   -1    6    7     -1.76      0.00
    0    6    7     -0.24      0.00
    1    6    7     -0.14      0.00
    2    6    7      0.57      0.00
    3    6    7     -0.04      0.00
    4    6    7      0.32      0.00
    5    6    7     -0.71      0.00
    6    6    7      0.71      0.00
   -6    7    7      1.34      0.00
   -5    7    7     -0.71      0.00
   -4    7    7     -1.86      0.00
   -3    7    7     -0.80      0.00
   -2    7    7     -2.69      0.00
   -1    7    7     -2.54      0.00
    0    7    7     -2.97      0.00
    1    7    7     -1.46      0.00
    2    7    7     -1.63      0.00
    3    7    7      0.27      0.00
    4    7    7     -1.06      0.00
    5    7    7      0.63      0.00
    6    7    7     -3.29      0.00
    7    7    7      1.42      0.00
   -7    8    7     -1.21      0.00
   -6    8    7      0.75      0.00
   -5    8    7      0.73      0.00
   -4    8    7      0.21      0.00
   -3    8    7     -0.08      0.00
   -2    8    7      0.93      0.00
   -1    8    7     -1.39      0.00
    0    8    7     -1.81      0.00
    1    8    7     -0.95      0.00
    2    8    7     -1.22      0.00
    3    8    7     -0.63      0.00
    4    8    7      0.33      0.00
    5    8    7      2.04      0.00
    6    8    7      2.48      0.00
    7    8    7     -0.87      0.00
    8    8    7      2.69      0.00
   -8    9    7     -0.84      0.00
   -7    9    7     -0.30      0.00
   -6    9    7     -2.23      0.00
   -5    9    7     -0.27      0.00
   -4    9    7     -2.13      0.00
   -3    9    7     -1.05      0.00
   -2    9    7      0.88      0.00
   -1    9    7      1.30      0.00
    0    9    7      2.24      0.00
    1    9    7     -0.43      0.00
    2    9    7      2.34      0.00
    3    9    7      0.73      0.00
    4    9    7     -1.33      0.00
    5    9    7      0.79      0.00
    6    9    7     -3.10      0.00
    7    9    7      1.32      0.00
    8    9    7     -1.00      0.00
    9    9    7      0.38      0.00
   -9   10    7      0.96      0.00
   -8   10    7      1.35      0.00
   -7   10    7      0.71      0.00
   -6   10    7     -1.00      0.00
   -5   10    7      1.45      0.00
   -4   10    7     -0.38      0.00
   -3   10    7     -2.50      0.00
   -2   10    7      0.54      0.00
   -1   10    7     -2.49      0.00
    0   10    7      0.14      0.00
    1   10    7      1.61      0.00
    2   10    7     -0.07      0.00
    3   10    7      4.38      0.00
    4   10    7     -1.31      0.00
    5   10    7      7.17      0.00
    6   10    7     -0.01      0.00
    7   10    7     -1.44      0.00
    8   10    7      0.92      0.00
    9   10    7     -1.38      0.00
   10   10    7      0.57      0.00
  -10   11    7     -2.96      0.00
   -9   11    7      1.23      0.00
   -8   11    7      0.42      0.00
   -7   11    7      2.74      0.00
   -6   11    7     -0.86      0.00
   -5   11    7     -0.56      0.00
   -4   11    7     -0.15      0.00
   -3   11    7     -1.19      0.00
   -2   11    7     -0.56      0.00
   -1   11    7      0.99      0.00
    0   11    7     -2.38      0.00
    1   11    7     -0.41      0.00
    2   11    7     -1.13      0.00
    3   11    7      1.54      0.00
    4   11    7     -2.89      0.00
    5   11    7      1.44      0.00
    6   11    7      3.30      0.00
    7   11    7     -0.78      0.00
    8   11    7      0.25      0.00
    9   11    7     -0.09      0.00
   10   11    7      3.28      0.00
   11   11    7     -0.38      0.00
  -11   12    7     -2.23      0.00
  -10   12    7     -0.77      0.00
   -9   12    7      0.78      0.00
   -8   12    7      0.68      0.00
   -7   12    7      1.93      0.00
   -6   12    7      1.55      0.00
   -5   12    7      4.13      0.00
   -4   12    7     -0.04      0.00
   -3   12    7      0.86      0.00
   -2   12    7      0.31      0.00
   -1   12    7      0.23      0.00
    0   12    7      0.57      0.00
    1   12    7     -0.35      0.00
    2   12    7     -0.82      0.00
    3   12    7     -3.54      0.00
    4   12    7     -0.72      0.00
    5   12    7     -4.10      0.00
    6   12    7      2.97      0.00
    7   12    7     -2.70      0.00
    8   12    7      0.51      0.00
    9   12    7     -2.05      0.00
   10   12    7     -0.17      0.00
   11   12    7      1.54      0.00
   12   12    7     -0.26      0.00
  -12   13    7     -1.35      0.00
  -11   13    7      1.68      0.00
  -10   13    7     -4.68      0.00
   -9   13    7      0.10      0.00
   -8   13    7      0.21      0.00
   -7   13    7      1.28      0.00
   -6   13    7     -1.82      0.00
   -5   13    7     -0.22      0.00
   -4   13    7      1.39      0.00
   -3   13    7     -1.01      0.00
   -2   13    7      1.37      0.00
   -1   13    7      0.26      0.00
    0   13    7      0.94      0.00
    1   13    7      0.75      0.00
    2   13    7      5.48      0.00
    3   13    7     -0.39      0.00
    4   13    7     -0.80      0.00
    5   13    7     -0.11      0.00
    6   13    7     -1.69      0.00
    7   13    7      0.44      0.00
    8   13    7     -3.05      0.00
    9   13    7      0.12      0.00
   10   13    7     -6.42      0.00
   11   13    7     -1.59      0.00
   12   13    7     -4.82      0.00
   13   13    7      0.36      0.00
  -13   14    7      5.41      0.00
  -12   14    7     -2.06      0.00
  -11   14    7     -6.14      0.00
  -10   14    7      0.54      0.00
   -9   14    7     -1.00      0.00
   -8   14    7     -0.32      0.00
   -7   14    7      2.80      0.00
   -6   14    7     -0.35      0.00
   -5   14    7      3.78      0.00
   -4   14    7     -0.42      0.00
   -3   14    7      3.31      0.00
   -2   14    7      0.00      0.00
   -1   14    7      1.89      0.00
    0   14    7      1.68      0.00
    1   14    7     -0.97      0.00
    2   14    7      0.45      0.00
    3   14    7      0.04      0.00
    4   14    7     -0.74      0.00
    5   14    7     -1.09      0.00
    6   14    7      1.49      0.00
    7   14    7     -1.08      0.00
    8   14    7      0.26      0.00
    9   14    7      4.57      0.00
   10   14    7      0.07      0.00
   11   14    7     -2.69      0.00
   12   14    7     -2.82      0.00
   13   14    7     -2.60      0.00
   14   14    7      0.81      0.00
  -12   15    7     10.30      0.00
  -11   15    7     -2.40      0.00
  -10   15    7     -4.77      0.00
   -9   15    7     -0.30      0.00
   -8   15    7     -2.42      0.00
   -7   15    7      1.63      0.00
   -6   15    7     -4.16      0.00
   -5   15    7      0.99      0.00
   -4   15    7     -2.04      0.00
   -3   15    7      0.34      0.00
   -2   15    7      0.60      0.00
   -1   15    7     -0.84      0.00
    0   15    7      0.62      0.00
    1   15    7      1.24      0.00
    2   15    7      0.21      0.00
    3   15    7     -0.68      0.00
    4   15    7     -5.52      0.00
    5   15    7     -1.02      0.00
    6   15    7     -3.26      0.00
    7   15    7      0.29      0.00
    8   15    7     -0.62      0.00
    9   15    7      0.22      0.00
   10   15    7      7.02      0.00
   11   15    7      0.43      0.00
   12   15    7     -2.18      0.00
  -11   16    7      5.27      0.00
  -10   16    7     -1.37      0.00
   -9   16    7      4.24      0.00
   -8   16    7     -1.63      0.00
   -7   16    7      2.81      0.00
   -6   16    7     -1.97      0.00
   -5   16    7      2.80      0.00
   -4   16    7     -0.05      0.00
   -3   16    7      0.38      0.00
   -2   16    7     -0.08      0.00
   -1   16    7     -1.92      0.00
    0   16    7      0.69      0.00
    1   16    7      1.98      0.00
    2   16    7     -0.02      0.00
    3   16    7      4.59      0.00
    4   16    7      1.82      0.00
    5   16    7     -6.95      0.00
    6   16    7      1.20      0.00
    7   16    7     -6.64      0.00
    8   16    7     -0.09      0.00
    9   16    7      0.65      0.00
   10   16    7     -0.91      0.00
   11   16    7      6.36      0.00
  -10   17    7     -6.69      0.00
   -9   17    7     -0.01      0.00
   -8   17    7      0.31      0.00
   -7   17    7      0.57      0.00
   -6   17    7     -4.96      0.00
   -5   17    7     -1.36      0.00
   -4   17    7     -0.56      0.00
   -3   17    7     -1.01      0.00
   -2   17    7      2.83      0.00
   -1   17    7     -0.01      0.00
    0   17    7     -5.51      0.00
    1   17    7      0.89      0.00
    2   17    7     -1.09      0.00
    3   17    7     -3.04      0.00
    4   17    7      9.95      0.00
    5   17    7     -0.39      0.00
    6   17    7     -2.01      0.00
    7   17    7      2.07      0.00
    8   17    7     -5.27      0.00
    9   17    7      0.80      0.00
   10   17    7     -2.11      0.00
   -8   18    7     -0.25      0.00
   -7   18    7      4.58      0.00
   -6   18    7      0.73      0.00
   -5   18    7      0.21      0.00
   -4   18    7      0.74      0.00
   -3   18    7     -0.73      0.00
   -2   18    7     -3.39      0.00
   -1   18    7      4.16      0.00
    0   18    7      0.43      0.00
    1   18    7     -5.09      0.00
    2   18    7      1.26      0.00
    3   18    7     -7.66      0.00
    4   18    7      1.32      0.00
    5   18    7      4.43      0.00
    6   18    7     -0.12      0.00
    7   18    7      0.36      0.00
    8   18    7      1.67      0.00
   -5   19    7      2.61      0.00
   -4   19    7     -0.76      0.00
   -3   19    7      3.26      0.00
   -2   19    7     -3.08      0.00
   -1   19    7     -0.68      0.00
    0   19    7      1.37      0.00
    1   19    7     -1.27      0.00
    2   19    7     -3.95      0.00
    3   19    7     -1.51      0.00
    4   19    7     -6.17      0.00
    5   19    7      0.42      0.00
    0    0    8     -0.35      0.00
    0    1    8     -1.03      0.00
    1    1    8      1.82      0.00
   -1    2    8      1.30      0.00
    0    2    8     -1.46      0.00
    1    2    8     -0.10      0.00
    2    2    8      1.78      0.00
   -2    3    8      0.01      0.00
   -1    3    8     -0.70      0.00
    0    3    8      0.48      0.00
    1    3    8     -0.89      0.00
    2    3    8      0.78      0.00
    3    3    8     -0.23      0.00
   -3    4    8     -0.38      0.00
   -2    4    8     -0.57      0.00
   -1    4    8     -0.55      0.00
    0    4    8     -1.25      0.00
    1    4    8      0.46      0.00
    2    4    8     -0.03      0.00
    3    4    8      0.37      0.00
    4    4    8      0.04      0.00
   -4    5    8     -0.50      0.00
   -3    5    8      0.79      0.00
   -2    5    8     -1.12      0.00
   -1    5    8     -1.32      0.00
    0    5    8     -2.13      0.00
    1    5    8      0.22      0.00
    2    5    8     -1.07      0.00
    3    5    8     -0.25      0.00
    4    5    8     -0.61      0.00
    5    5    8      0.15      0.00
   -5    6    8      0.52      0.00
   -4    6    8      0.06      0.00
   -3    6    8      0.70      0.00
   -2    6    8      0.59      0.00
   -1    6    8     -1.90      0.00
    0    6    8     -1.91      0.00
    1    6    8      0.84      0.00
    2    6    8      0.25      0.00
    3    6    8     -1.01      0.00
    4    6    8      0.21      0.00
    5    6    8     -0.83      0.00
    6    6    8     -0.52      0.00
   -6    7    8      0.29      0.00
   -5    7    8     -1.54      0.00
   -4    7    8     -1.76      0.00
   -3    7    8      0.08      0.00
   -2    7    8      0.99      0.00
   -1    7    8     -0.11      0.00
    0    7    8     -3.48      0.00
    1    7    8     -0.99      0.00
    2    7    8      1.20      0.00
    3    7    8     -0.13      0.00
    4    7    8      0.53      0.00
    5    7    8     -0.14      0.00
    6    7    8     -0.22      0.00
    7    7    8      1.90      0.00
   -7    8    8      1.56      0.00
   -6    8    8     -0.33      0.00
   -5    8    8      2.88      0.00
   -4    8    8      0.52      0.00
   -3    8    8      0.11      0.00
   -2    8    8      0.46      0.00
   -1    8    8      0.73      0.00
    0    8    8     -1.50      0.00
    1    8    8     -1.18      0.00
    2    8    8     -0.99      0.00
    3    8    8     -0.78      0.00
    4    8    8      0.78      0.00
    5    8    8      1.25      0.00
    6    8    8     -0.43      0.00
    7    8    8      3.56      0.00
    8    8    8      1.22      0.00
   -8    9    8     -1.04      0.00
   -7    9    8     -0.18      0.00
   -6    9    8     -2.15      0.00
   -5    9    8     -2.41      0.00
   -4    9    8     -2.24      0.00
   -3    9    8      1.14      0.00
   -2    9    8      1.72      0.00
   -1    9    8      0.70      0.00
    0    9    8     -1.35      0.00
    1    9    8     -0.08      0.00
    2    9    8      0.06      0.00
    3    9    8     -1.02      0.00
    4    9    8     -1.15      0.00
    5    9    8     -0.61      0.00
    6    9    8     -0.53      0.00
    7    9    8      0.95      0.00
    8    9    8      1.72      0.00
    9    9    8     -1.23      0.00
   -9   10    8     -2.61      0.00
   -8   10    8      0.09      0.00
   -7   10    8      0.00      0.00
   -6   10    8      0.00      0.00
   -5   10    8      2.89      0.00
   -4   10    8     -2.42      0.00
   -3   10    8     -4.02      0.00
   -2   10    8      0.56      0.00
   -1   10    8      2.67      0.00
    0   10    8     -1.75      0.00
    1   10    8      0.60      0.00
    2   10    8      0.30      0.00
    3   10    8     -0.81      0.00
    4   10    8      0.11      0.00
    5   10    8     -0.14      0.00
    6   10    8     -0.79      0.00
    7   10    8      0.76      0.00
    8   10    8      3.26      0.00
    9   10    8     -2.09      0.00
   10   10    8      1.07      0.00
  -10   11    8      0.31      0.00
   -9   11    8      1.91      0.00
   -8   11    8     -1.66      0.00
   -7   11    8      1.16      0.00
   -6   11    8     -2.42      0.00
   -5   11    8      0.93      0.00
   -4   11    8      2.09      0.00
   -3   11    8     -0.20      0.00
   -2   11    8     -1.91      0.00
   -1   11    8      0.81      0.00
    0   11    8      1.03      0.00
    1   11    8     -0.63      0.00
    2   11    8      3.31      0.00
    3   11    8      2.28      0.00
    4   11    8     -0.91      0.00
    5   11    8      2.49      0.00
    6   11    8     -2.41      0.00
    7   11    8      2.50      0.00
    8   11    8      0.34      0.00
    9   11    8      0.74      0.00
   10   11    8      1.37      0.00
   11   11    8      1.03      0.00
  -11   12    8      0.79      0.00
  -10   12    8     -2.66      0.00
   -9   12    8      2.57      0.00
   -8   12    8     -1.41      0.00
   -7   12    8     -0.33      0.00
   -6   12    8     -2.10      0.00
   -5   12    8      1.96      0.00
   -4   12    8      0.12      0.00
   -3   12    8     -0.21      0.00
   -2   12    8      0.66      0.00
   -1   12    8     -1.78      0.00
    0   12    8     -1.10      0.00
    1   12    8     -2.12      0.00
    2   12    8     -1.84      0.00
    3   12    8     -1.07      0.00
    4   12    8     -0.44      0.00
    5   12    8      0.37      0.00
    6   12    8     -3.71      0.00
    7   12    8     -0.50      0.00
    8   12    8      2.35      0.00
    9   12    8      0.61      0.00
   10   12    8     -3.13      0.00
   11   12    8      3.64      0.00
   12   12    8     -0.99      0.00
  -12   13    8     -0.20      0.00
  -11   13    8      1.86      0.00
  -10   13    8     -2.27      0.00
   -9   13    8     -0.10      0.00
   -8   13    8      1.90      0.00
   -7   13    8      1.28      0.00
   -6   13    8     -1.70      0.00
   -5   13    8     -2.48      0.00
   -4   13    8      2.13      0.00
   -3   13    8     -0.67      0.00
   -2   13    8      0.36      0.00
   -1   13    8      0.78      0.00
    0   13    8     -1.56      0.00
    1   13    8     -1.29      0.00
    2   13    8      0.31      0.00
    3   13    8     -1.36      0.00
    4   13    8     -2.30      0.00
    5   13    8      2.17      0.00
    6   13    8     -1.37      0.00
    7   13    8     -4.11      0.00
    8   13    8      0.48      0.00
    9   13    8      2.67      0.00
   10   13    8      1.47      0.00
   11   13    8     -1.91      0.00
   12   13    8     -1.08      0.00
   13   13    8     -3.05      0.00
  -12   14    8     -0.91      0.00
  -11   14    8      1.25      0.00
  -10   14    8     -0.56      0.00
   -9   14    8      2.52      0.00
   -8   14    8      2.07      0.00
   -7   14    8      1.67      0.00
   -6   14    8      0.84      0.00
   -5   14    8      2.56      0.00
   -4   14    8     -1.19      0.00
   -3   14    8      4.09      0.00
   -2   14    8     -1.80      0.00
   -1   14    8      1.95      0.00
    0   14    8      1.06      0.00
    1   14    8      1.59      0.00
    2   14    8      0.66      0.00
    3   14    8     -0.29      0.00
    4   14    8      1.23      0.00
    5   14    8     -1.21      0.00
    6   14    8      0.68      0.00
    7   14    8     -5.32      0.00
    8   14    8     -1.57      0.00
    9   14    8     -1.06      0.00
   10   14    8     -0.95      0.00
   11   14    8      2.91      0.00
   12   14    8      1.18      0.00
  -10   15    8     -2.74      0.00
   -9   15    8     -4.37      0.00
   -8   15    8      2.02      0.00
   -7   15    8      5.10      0.00
   -6   15    8     -4.14      0.00
   -5   15    8      3.42      0.00
   -4   15    8     -2.08      0.00
   -3   15    8      2.71      0.00
   -2   15    8      3.63      0.00
   -1   15    8     -1.45      0.00
    0   15    8     -0.81      0.00
    1   15    8     -2.59      0.00
    2   15    8      1.94      0.00
    3   15    8     -4.69      0.00
    4   15    8     -1.39      0.00
    5   15    8      3.31      0.00
    6   15    8     -0.28      0.00
    7   15    8     -1.20      0.00
    8   15    8     -4.73      0.00
    9   15    8      4.57      0.00
   10   15    8     -1.70      0.00
   -9   16    8     -0.58      0.00
   -8   16    8     -6.05      0.00
   -7   16    8      4.36      0.00
   -6   16    8     -2.86      0.00
   -5   16    8     -0.13      0.00
   -4   16    8     -0.21      0.00
   -3   16    8     -1.43      0.00
   -2   16    8      2.60      0.00
   -1   16    8      1.81      0.00
    0   16    8      2.10      0.00
    1   16    8      0.36      0.00
    2   16    8      1.90      0.00
    3   16    8     -1.49      0.00
    4   16    8     -3.79      0.00
    5   16    8     -0.68      0.00
    6   16    8      1.80      0.00
    7   16    8     -1.09      0.00
    8   16    8     -4.19      0.00
    9   16    8     -1.91      0.00
   -7   17    8      0.69      0.00
   -6   17    8     -0.18      0.00
   -5   17    8     -2.47      0.00
   -4   17    8     -4.08      0.00
   -3   17    8     -2.92      0.00
   -2   17    8     -1.81      0.00
   -1   17    8      0.70      0.00
    0   17    8     -0.93      0.00
    1   17    8     -1.87      0.00
    2   17    8      1.86      0.00
    3   17    8      0.05      0.00
    4   17    8     -1.30      0.00
    5   17    8     -0.95      0.00
    6   17    8      1.58      0.00
    7   17    8      0.99      0.00
   -4   18    8      0.84      0.00
   -3   18    8      0.47      0.00
   -2   18    8     -1.60      0.00
   -1   18    8     -1.98      0.00
    0   18    8      2.80      0.00
    1   18    8      0.33      0.00
    2   18    8     -0.87      0.00
    3   18    8     -1.21      0.00
    4   18    8     -0.14      0.00
    0    0    9     -2.92      0.00
    0    1    9     -0.96      0.00
    1    1    9      1.09      0.00
   -1    2    9      0.92      0.00
    0    2    9     -3.46      0.00
    1    2    9     -0.98      0.00
    2    2    9     -0.10      0.00
   -2    3    9     -0.50      0.00
   -1    3    9     -0.65      0.00
    0    3    9     -0.17      0.00
    1    3    9     -1.67      0.00
    2    3    9      0.61      0.00
    3    3    9      3.22      0.00
   -3    4    9     -1.02      0.00
   -2    4    9     -1.28      0.00
   -1    4    9      0.14      0.00
    0    4    9     -0.78      0.00
    1    4    9     -1.05      0.00
    2    4    9     -1.78      0.00
    3    4    9      1.14      0.00
    4    4    9     -0.14      0.00
   -4    5    9      0.41      0.00
   -3    5    9     -2.99      0.00
   -2    5    9     -0.40      0.00
   -1    5    9     -0.17      0.00
    0    5    9     -0.79      0.00
    1    5    9      0.88      0.00
    2    5    9     -1.40      0.00
    3    5    9     -0.72      0.00
    4    5    9     -1.03      0.00
    5    5    9      0.61      0.00
   -5    6    9      0.65      0.00
   -4    6    9      0.80      0.00
   -3    6    9     -2.16      0.00
   -2    6    9     -1.20      0.00
   -1    6    9      1.12      0.00
    0    6    9     -0.79      0.00
    1    6    9     -0.47      0.00
    2    6    9      2.16      0.00
    3    6    9      1.18      0.00
    4    6    9     -1.05      0.00
    5    6    9      0.18      0.00
    6    6    9      0.14      0.00
   -6    7    9     -0.21      0.00
   -5    7    9      0.74      0.00
   -4    7    9     -0.17      0.00
   -3    7    9     -0.73      0.00
   -2    7    9     -2.94      0.00
   -1    7    9     -0.55      0.00
    0    7    9     -0.48      0.00
    1    7    9     -1.66      0.00
    2    7    9     -1.67      0.00
    3    7    9     -0.36      0.00
    4    7    9     -0.01      0.00
    5    7    9      0.52      0.00
    6    7    9     -0.93      0.00
    7    7    9      1.15      0.00
   -7    8    9      1.32      0.00
   -6    8    9     -2.59      0.00
   -5    8    9      1.27      0.00
   -4    8    9     -1.23      0.00
   -3    8    9      0.16      0.00
   -2    8    9      0.86      0.00
   -1    8    9      0.47      0.00
    0    8    9     -0.20      0.00
    1    8    9      0.06      0.00
    2    8    9      3.06      0.00
    3    8    9     -1.19      0.00
    4    8    9     -0.02      0.00
    5    8    9     -0.10      0.00
    6    8    9      0.00      0.00
    7    8    9     -0.95      0.00
    8    8    9     -0.38      0.00
   -8    9    9     -0.60      0.00
   -7    9    9      0.55      0.00
   -6    9    9      0.05      0.00
   -5    9    9      0.92      0.00
   -4    9    9      1.51      0.00
   -3    9    9     -1.26      0.00
   -2    9    9      0.02      0.00
   -1    9    9      2.36      0.00
    0    9    9      0.91      0.00
    1    9    9     -3.17      0.00
    2    9    9      0.00      0.00
    3    9    9     -0.21      0.00
    4    9    9     -0.93      0.00
    5    9    9     -0.13      0.00
    6    9    9     -0.64      0.00
    7    9    9      0.15      0.00
    8    9    9     -2.79      0.00
    9    9    9      1.29      0.00
   -9   10    9      1.39      0.00
   -8   10    9     -1.00      0.00
   -7   10    9     -0.73      0.00
   -6   10    9      0.01      0.00
   -5   10    9     -0.68      0.00
   -4   10    9      0.08      0.00
   -3   10    9      1.63      0.00
   -2   10    9      0.47      0.00
   -1   10    9      0.88      0.00
    0   10    9      2.36      0.00
    1   10    9      1.31      0.00
    2   10    9     -0.75      0.00
    3   10    9     -0.15      0.00
    4   10    9     -1.71      0.00
    5   10    9     -0.11      0.00
    6   10    9     -1.57      0.00
    7   10    9      1.38      0.00
    8   10    9     -1.84      0.00
    9   10    9     -1.31      0.00
   10   10    9      2.06      0.00
  -10   11    9     -0.76      0.00
   -9   11    9      0.28      0.00
   -8   11    9     -1.04      0.00
   -7   11    9     -2.56      0.00
   -6   11    9     -1.93      0.00
   -5   11    9     -0.46      0.00
   -4   11    9     -1.75      0.00
   -3   11    9     -4.73      0.00
   -2   11    9      0.35      0.00
   -1   11    9      0.35      0.00
    0   11    9     -1.41      0.00
    1   11    9      0.86      0.00
    2   11    9     -0.70      0.00
    3   11    9      0.51      0.00
    4   11    9     -0.90      0.00
    5   11    9      1.68      0.00
    6   11    9      0.84      0.00
    7   11    9      1.43      0.00
    8   11    9      0.95      0.00
    9   11    9      0.17      0.00
   10   11    9     -0.35      0.00
   11   11    9      1.41      0.00
  -11   12    9      2.24      0.00
  -10   12    9     -1.67      0.00
   -9   12    9      1.19      0.00
   -8   12    9     -2.69      0.00
   -7   12    9     -1.64      0.00
   -6   12    9     -3.24      0.00
   -5   12    9     -0.94      0.00
   -4   12    9      0.62      0.00
   -3   12    9     -0.27      0.00
   -2   12    9     -4.97      0.00
   -1   12    9      1.29      0.00
    0   12    9     -1.72      0.00
    1   12    9     -1.12      0.00
    2   12    9     -0.60      0.00
    3   12    9     -1.56      0.00
    4   12    9     -3.34      0.00
    5   12    9     -3.25      0.00
    6   12    9     -2.57      0.00
    7   12    9      3.10      0.00
    8   12    9     -3.76      0.00
    9   12    9      0.99      0.00
   10   12    9     -0.51      0.00
   11   12    9     -0.35      0.00
  -10   13    9      2.29      0.00
   -9   13    9      2.90      0.00
   -8   13    9      1.97      0.00
   -7   13    9      0.04      0.00
   -6   13    9     -0.48      0.00
   -5   13    9      2.98      0.00
   -4   13    9      1.36      0.00
   -3   13    9      3.47      0.00
   -2   13    9      0.53      0.00
   -1   13    9     -0.59      0.00
    0   13    9      0.91      0.00
    1   13    9     -2.51      0.00
    2   13    9     -0.62      0.00
    3   13    9     -2.94      0.00
    4   13    9      1.91      0.00
    5   13    9     -1.09      0.00
    6   13    9     -2.95      0.00
    7   13    9      0.71      0.00
    8   13    9      3.92      0.00
    9   13    9     -0.72      0.00
   10   13    9      3.28      0.00
   -9   14    9      2.02      0.00
   -8   14    9      1.53      0.00
   -7   14    9      1.37      0.00
   -6   14    9     -4.03      0.00
   -5   14    9     -1.14      0.00
   -4   14    9      0.51      0.00
   -3   14    9      2.88      0.00
   -2   14    9      0.22      0.00
   -1   14    9      1.84      0.00
    0   14    9     -1.30      0.00
    1   14    9      1.36      0.00
    2   14    9      1.58      0.00
    3   14    9     -1.11      0.00
    4   14    9     -4.73      0.00
    5   14    9      2.48      0.00
    6   14    9     -1.40      0.00
    7   14    9     -1.40      0.00
    8   14    9     -3.03      0.00
    9   14    9      0.48      0.00
   -7   15    9      1.51      0.00
   -6   15    9      0.17      0.00
   -5   15    9     -2.03      0.00
   -4   15    9     -3.23      0.00
   -3   15    9     -1.89      0.00
   -2   15    9     -0.32      0.00
   -1   15    9     -0.04      0.00
    0   15    9      0.86      0.00
    1   15    9     -5.89      0.00
    2   15    9     -0.36      0.00
    3   15    9      0.64      0.00
    4   15    9     -3.20      0.00
    5   15    9     -2.64      0.00
    6   15    9     -2.00      0.00
    7   15    9      3.48      0.00
   -5   16    9      3.06      0.00
   -4   16    9      0.25      0.00
   -3   16    9      1.91      0.00
   -2   16    9     -1.77      0.00
   -1   16    9      0.27      0.00
    0   16    9      2.14      0.00
    1   16    9      0.75      0.00
    2   16    9     -1.09      0.00
    3   16    9     -0.48      0.00
    4   16    9     -1.58      0.00
    5   16    9     -1.84      0.00
    0    0   10      2.61      0.00
    0    1   10      0.67      0.00
    1    1   10      1.88      0.00
   -1    2   10     -1.33      0.00
    0    2   10     -1.47      0.00
    1    2   10      1.70      0.00
    2    2   10     -1.88      0.00
   -2    3   10     -0.44      0.00
   -1    3   10     -0.67      0.00
    0    3   10     -5.06      0.00
    1    3   10      0.90      0.00
    2    3   10     -0.32      0.00
    3    3   10     -0.77      0.00
   -3    4   10     -1.05      0.00
   -2    4   10     -0.73      0.00
   -1    4   10      0.00      0.00
    0    4   10      0.33      0.00
    1    4   10     -2.92      0.00
    2    4   10      1.86      0.00
    3    4   10      0.35      0.00
    4    4   10      2.55      0.00
   -4    5   10      0.20      0.00
   -3    5   10     -2.20      0.00
   -2    5   10     -0.90      0.00
   -1    5   10     -2.73      0.00
    0    5   10     -0.84      0.00
    1    5   10     -2.60      0.00
    2    5   10     -1.54      0.00
    3    5   10     -3.45      0.00
    4    5   10     -0.51      0.00
    5    5   10      3.14      0.00
   -5    6   10     -1.08      0.00
   -4    6   10      1.81      0.00
   -3    6   10     -0.60      0.00
   -2    6   10      1.63      0.00
   -1    6   10     -0.23      0.00
    0    6   10      0.78      0.00
    1    6   10     -1.00      0.00
    2    6   10      0.72      0.00
    3    6   10      1.38      0.00
    4    6   10     -5.86      0.00
    5    6   10      0.12      0.00
    6    6   10      0.94      0.00
   -6    7   10      1.94      0.00
   -5    7   10      1.28      0.00
   -4    7   10     -0.01      0.00
   -3    7   10     -3.56      0.00
   -2    7   10      1.32      0.00
   -1    7   10      4.44      0.00
    0    7   10      0.47      0.00
    1    7   10      2.35      0.00
    2    7   10     -1.93      0.00
    3    7   10      5.46      0.00
    4    7   10     -1.85      0.00
    5    7   10     -1.62      0.00
    6    7   10     -1.19      0.00
    7    7   10     -3.23      0.00
   -7    8   10      0.93      0.00
   -6    8   10      0.90      0.00
   -5    8   10     -0.09      0.00
   -4    8   10      3.87      0.00
   -3    8   10     -1.11      0.00
   -2    8   10     -6.81      0.00
   -1    8   10      0.49      0.00
    0    8   10      2.77      0.00
    1    8   10      2.35      0.00
    2    8   10      4.02      0.00
    3    8   10      0.98      0.00
    4    8   10      6.97      0.00
    5    8   10     -0.08      0.00
    6    8   10      1.94      0.00
    7    8   10     -0.35      0.00
    8    8   10      2.16      0.00
   -8    9   10     -1.58      0.00
   -7    9   10     -1.31      0.00
   -6    9   10     -1.17      0.00
   -5    9   10     -4.53      0.00
   -4    9   10     -2.50      0.00
   -3    9   10      0.40      0.00
   -2    9   10     -1.37      0.00
   -1    9   10     -4.81      0.00
    0    9   10     -3.39      0.00
    1    9   10     -4.93      0.00
    2    9   10     -0.72      0.00
    3    9   10     -1.64      0.00
    4    9   10     -2.51      0.00
    5    9   10      2.14      0.00
    6    9   10     -1.00      0.00
    7    9   10     -4.31      0.00
    8    9   10     -1.24      0.00
    9    9   10      3.58      0.00
   -9   10   10      0.55      0.00
   -8   10   10      3.81      0.00
   -7   10   10      1.01      0.00
   -6   10   10      2.48      0.00
   -5   10   10     -1.80      0.00
   -4   10   10      0.81      0.00
   -3   10   10     -0.26      0.00
   -2   10   10     -0.64      0.00
   -1   10   10      0.89      0.00
    0   10   10      1.82      0.00
    1   10   10     -0.73      0.00
    2   10   10      0.20      0.00
    3   10   10     -1.40      0.00
    4   10   10     -0.21      0.00
    5   10   10     -1.83      0.00
    6   10   10      1.17      0.00
    7   10   10     -1.70      0.00
    8   10   10     -7.89      0.00
    9   10   10     -1.65      0.00
   10   10   10      1.58      0.00
  -10   11   10      4.34      0.00
   -9   11   10      0.11      0.00
   -8   11   10      1.58      0.00
   -7   11   10      3.02      0.00
   -6   11   10      2.99      0.00
   -5   11   10     -3.24      0.00
   -4   11   10     -2.54      0.00
   -3   11   10      3.79      0.00
   -2   11   10     -0.36      0.00
   -1   11   10     -0.67      0.00
    0   11   10     -0.49      0.00
    1   11   10     -3.73      0.00
    2   11   10      1.48      0.00
    3   11   10     -1.80      0.00
    4   11   10     -0.44      0.00
    5   11   10      0.73      0.00
    6   11   10     -0.41      0.00
    7   11   10      4.62      0.00
    8   11   10     -0.90      0.00
    9   11   10     -1.64      0.00
   10   11   10     -2.74      0.00
   -9   12   10      0.90      0.00
   -8   12   10     -0.83      0.00
   -7   12   10     -0.39      0.00
   -6   12   10      4.72      0.00
   -5   12   10      1.41      0.00
   -4   12   10     -5.10      0.00
   -3   12   10      0.34      0.00
   -2   12   10      1.91      0.00
   -1   12   10      0.29      0.00
    0   12   10      4.93      0.00
    1   12   10     -0.27      0.00
    2   12   10     -3.08      0.00
    3   12   10      1.35      0.00
    4   12   10     -6.12      0.00
    5   12   10      2.81      0.00
    6   12   10     -4.91      0.00
    7   12   10     -0.12      0.00
    8   12   10     -3.19      0.00
    9   12   10     -1.36      0.00
   -7   13   10     -3.60      0.00
   -6   13   10     -0.75      0.00
   -5   13   10      1.37      0.00
   -4   13   10     -0.16      0.00
   -3   13   10      0.66      0.00
   -2   13   10      0.77      0.00
   -1   13   10     -1.70      0.00
    0   13   10      0.65      0.00
    1   13   10      2.03      0.00
    2   13   10     -0.90      0.00
    3   13   10     -1.11      0.00
    4   13   10     -0.52      0.00
    5   13   10     -2.63      0.00
    6   13   10      2.20      0.00
    7   13   10      2.68      0.00
   -5   14   10      0.68      0.00
   -4   14   10     -6.52      0.00
   -3   14   10      2.31      0.00
   -2   14   10     -0.05      0.00
   -1   14   10      0.63      0.00
    0   14   10      1.00      0.00
    1   14   10      0.75      0.00
    2   14   10     -1.23      0.00
    3   14   10      0.14      0.00
    4   14   10     -3.64      0.00
    5   14   10      2.06      0.00
    0   15   10      0.93      0.00
    0    0   11      4.93      0.00
    0    1   11     -0.20      0.00
    1    1   11      3.22      0.00
   -1    2   11      1.14      0.00
    0    2   11     -0.68      0.00
    1    2   11     -1.11      0.00
    2    2   11      2.14      0.00
   -2    3   11     -2.62      0.00
   -1    3   11      0.73      0.00
    0    3   11      3.01      0.00
    1    3   11     -0.73      0.00
    2    3   11     -1.12      0.00
    3    3   11     -4.17      0.00
   -3    4   11      1.31      0.00
   -2    4   11      0.09      0.00
   -1    4   11     -5.07      0.00
    0    4   11      1.47      0.00
    1    4   11      0.35      0.00
    2    4   11      2.17      0.00
    3    4   11     -0.73      0.00
    4    4   11      1.60      0.00
   -4    5   11      0.59      0.00
   -3    5   11      3.26      0.00
   -2    5   11      3.48      0.00
   -1    5   11     -2.91      0.00
    0    5   11      1.45      0.00
    1    5   11      1.62      0.00
    2    5   11      0.56      0.00
    3    5   11      2.36      0.00
    4    5   11      0.50      0.00
    5    5   11      7.09      0.00
   -5    6   11     -0.39      0.00
   -4    6   11     -3.93      0.00
   -3    6   11      0.70      0.00
   -2    6   11      0.84      0.00
   -1    6   11     -1.30      0.00
    0    6   11     -2.59      0.00
    1    6   11      0.35      0.00
    2    6   11     -1.54      0.00
    3    6   11     -0.15      0.00
    4    6   11      0.81      0.00
    5    6   11     -0.48      0.00
    6    6   11      8.47      0.00
   -6    7   11     -0.25      0.00
   -5    7   11      2.71      0.00
   -4    7   11     -0.34      0.00
   -3    7   11     -0.11      0.00
   -2    7   11      1.01      0.00
   -1    7   11     -0.59      0.00
    0    7   11     -0.80      0.00
    1    7   11      0.20      0.00
    2    7   11     -1.98      0.00
    3    7   11     -0.52      0.00
    4    7   11     -0.45      0.00
    5    7   11     -2.56      0.00
    6    7   11     -0.89      0.00
    7    7   11      1.43      0.00
   -7    8   11      1.27      0.00
   -6    8   11      2.45      0.00
   -5    8   11     -0.71      0.00
   -4    8   11      1.25      0.00
   -3    8   11      0.03      0.00
   -2    8   11      2.75      0.00
   -1    8   11     -1.46      0.00
    0    8   11      1.39      0.00
    1    8   11      1.03      0.00
    2    8   11      0.92      0.00
    3    8   11     -0.12      0.00
    4    8   11      3.78      0.00
    5    8   11      1.96      0.00
    6    8   11      1.31      0.00
    7    8   11     -0.65      0.00
    8    8   11      5.79      0.00
   -8    9   11      0.40      0.00
   -7    9   11      4.21      0.00
   -6    9   11      2.58      0.00
   -5    9   11     -3.36      0.00
   -4    9   11     -1.68      0.00
   -3    9   11     -4.97      0.00
   -2    9   11      0.10      0.00
   -1    9   11     -0.11      0.00
    0    9   11     -3.01      0.00
    1    9   11      1.66      0.00
    2    9   11     -1.64      0.00
    3    9   11     -2.08      0.00
    4    9   11     -3.00      0.00
    5    9   11      0.95      0.00
    6    9   11      1.93      0.00
    7    9   11      0.07      0.00
    8    9   11      1.76      0.00
   -7   10   11      0.86      0.00
   -6   10   11      9.68      0.00
   -5   10   11      1.98      0.00
   -4   10   11      1.16      0.00
   -3   10   11     -0.23      0.00
   -2   10   11     -4.20      0.00
   -1   10   11     -0.08      0.00
    0   10   11      1.21      0.00
    1   10   11     -0.86      0.00
    2   10   11      6.23      0.00
    3   10   11      0.21      0.00
    4   10   11     -1.26      0.00
    5   10   11     -1.60      0.00
    6   10   11     -2.60      0.00
    7   10   11     -2.66      0.00
   -5   11   11      3.93      0.00
   -4   11   11     -2.25      0.00
   -3   11   11      3.13      0.00
   -2   11   11     -0.87      0.00
   -1   11   11     -6.89      0.00
    0   11   11     -0.83      0.00
    1   11   11     -3.11      0.00
    2   11   11     -0.74      0.00
    3   11   11      3.20      0.00
    4   11   11     -1.03      0.00
    5   11   11      0.64      0.00
   -3   12   11     -0.80      0.00
   -2   12   11      5.13      0.00
   -1   12   11      0.14      0.00
    0   12   11     -4.21      0.00
    1   12   11      1.15      0.00
    2   12   11     -2.35      0.00
    3   12   11      1.95      0.00
    0    0   12      0.91      0.00
    0    1   12      0.43      0.00
    1    1   12     -0.13      0.00
   -1    2   12     -0.11      0.00
    0    2   12      0.05      0.00
    1    2   12     -0.01      0.00
    2    2   12     -1.76      0.00
   -2    3   12     -0.39      0.00
   -1    3   12     -1.37      0.00
    0    3   12      3.60      0.00
    1    3   12     -1.83      0.00
    2    3   12      2.10      0.00
    3    3   12     -3.19      0.00
   -3    4   12      0.74      0.00
   -2    4   12      1.78      0.00
   -1    4   12     -3.76      0.00
    0    4   12      1.68      0.00
    1    4   12      0.59      0.00
    2    4   12     -2.98      0.00
    3    4   12     -0.79      0.00
    4    4   12     -0.52      0.00
   -4    5   12      2.42      0.00
   -3    5   12      0.74      0.00
   -2    5   12      4.39      0.00
   -1    5   12      0.04      0.00
    0    5   12      0.32      0.00
    1    5   12      5.63      0.00
    2    5   12      1.95      0.00
    3    5   12      1.14      0.00
    4    5   12      0.84      0.00
    5    5   12      2.74      0.00
   -5    6   12     -0.42      0.00
   -4    6   12     -0.64      0.00
   -3    6   12      3.68      0.00
   -2    6   12     -1.60      0.00
   -1    6   12      0.89      0.00
    0    6   12     -3.18      0.00
    1    6   12     -1.21      0.00
    2    6   12      0.69      0.00
    3    6   12     -2.62      0.00
    4    6   12      0.29      0.00
    5    6   12      1.47      0.00
    6    6   12      2.54      0.00
   -5    7   12     -0.41      0.00
   -4    7   12     -2.84      0.00
   -3    7   12      1.04      0.00
   -2    7   12      0.05      0.00
   -1    7   12     -1.04      0.00
    0    7   12     -0.43      0.00
    1    7   12     -1.48      0.00
    2    7   12     -1.15      0.00
    3    7   12      1.89      0.00
    4    7   12     -1.55      0.00
    5    7   12     -1.62      0.00
   -4    8   12      2.83      0.00
   -3    8   12      2.77      0.00
   -2    8   12      2.28      0.00
   -1    8   12     -1.03      0.00
    0    8   12      0.44      0.00
    1    8   12      0.23      0.00
    2    8   12     -3.23      0.00
    3    8   12     -0.45      0.00
    1    1    0    153.65      0.00
  -11   21    0     -2.65      0.00
   -3   21    0     -2.87      0.00
   11   21    0      5.62      0.00
    0    0    1      5.88      0.00
  -14   19    1      1.53      0.00
   14   19    1      1.52      0.00
   -5   23    1      0.21      0.00
    5   23    1     -1.99      0.00
  -16   17    2     -0.12      0.00
   16   17    2      3.33      0.00
  -15   18    2     -0.02      0.00
   15   18    2     -4.55      0.00
  -12   20    2      0.78      0.00
   12   20    2     -2.03      0.00
   -8   22    2      2.43      0.00
    8   22    2      1.33      0.00
   -4   23    2      0.75      0.00
    4   23    2      0.36      0.00
  -13   19    3      0.59      0.00
   13   19    3      2.64      0.00
   -1   23    3     -0.32      0.00
    0   23    3      2.68      0.00
    1   23    3      2.81      0.00
  -12   19    4     -0.04      0.00
   12   19    4     -0.85      0.00
   -8   21    4     -0.22      0.00
    8   21    4     -0.57      0.00
   -5   22    4     -0.16      0.00
    5   22    4     -2.57      0.00
   -6   21    5     -0.11      0.00
    6   21    5     -3.89      0.00
   -9   19    6      0.31      0.00
    9   19    6      0.67      0.00
   -1   21    6      1.35      0.00
    0   21    6      1.02      0.00
    1   21    6     -2.79      0.00
  -13   15    7      1.10      0.00
   13   15    7     -1.83      0.00
  -12   16    7      0.75      0.00
   12   16    7     -0.14      0.00
   -6   19    7      0.19      0.00
    6   19    7     -1.98      0.00
    0   20    7      2.19      0.00
  -11   15    8     -0.43      0.00
   11   15    8     -0.69      0.00
   -5   18    8      4.79      0.00
    5   18    8     -2.06      0.00
   12   12    9     -0.38      0.00
  -11   13    9      0.79      0.00
   11   13    9      0.87      0.00
   -8   15    9     -0.26      0.00
    8   15    9     -1.72      0.00
   -6   16    9     -1.17      0.00
    6   16    9     -3.73      0.00
   -2   17    9      0.86      0.00
   -1   17    9     -0.62      0.00
    0   17    9      1.57      0.00
    1   17    9     -1.83      0.00
    2   17    9      2.25      0.00
   -6   14   10     -2.49      0.00
    6   14   10     -5.11      0.00
   -2   15   10      0.67      0.00
   -1   15   10     -5.03      0.00
    1   15   10      1.79      0.00
    2   15   10     -1.57      0.00
    9    9   11      2.86      0.00
   -6   11   11      1.13      0.00
    6   11   11      1.74      0.00
   -4   12   11     -0.96      0.00
    4   12   11     -2.36      0.00
   -6    7   12     -1.02      0.00
    6    7   12      1.98      0.00
    4    8   12      2.87      0.00
   -2    9   12      2.88      0.00
   -1    9   12      0.26      0.00
    0    9   12      0.10      0.00
    1    9   12      2.04      0.00
    2    9   12     -1.03      0.00
    0    0   13      3.21      0.00
    0    1   13      0.01      0.00
    1    1   13      2.32      0.00
    0    2   13     -2.30      0.00
    0    0    0      0.00      0.00
# SQUEEZE RESULTS (Version = 230318)
# Note: Data are Listed for all Voids in the P1 Unit Cell
# i.e. Centre of Gravity, Solvent Accessible Volume,
# Recovered number of Electrons in the Void and
# Details about the Squeezed Material
loop_
  _platon_squeeze_void_nr
  _platon_squeeze_void_average_x
  _platon_squeeze_void_average_y
  _platon_squeeze_void_average_z
  _platon_squeeze_void_volume
  _platon_squeeze_void_count_electrons
  _platon_squeeze_void_content
   1 -0.002  0.002 -0.020      2063       383 ' '
# Missing Reflections Below sin(th)/lambda = 0.25
loop_
  _platon_missing_refln_index_h
  _platon_missing_refln_index_k
  _platon_missing_refln_index_l
  _platon_missing_refln_theta
    1    1    0     1.587
    0    0    1     2.040
_platon_squeeze_void_probe_radius                  1.20
_platon_squeeze_details
)
TITL 20181121ZH_ZJU7_0m_a.res in P4/n
CELL   18.1416   18.1416    9.9851     90.00     90.00     90.00
SPGR P4/n
# Solvent Accessible Volume =      2065
# Electrons Found in S.A.V. =       374
# Note: Atoms in Void are Labelled as Cxxx and Qxxx for all Others
Q101 0.750 0.748 0.125 !       1.54 eA-3
Q102 0.250 0.254 0.656 !       1.47 eA-3
Q103 0.252 0.218 0.708 !       1.38 eA-3
Q104 0.250 0.255 0.500 !       1.38 eA-3
C105 0.960 0.970 0.064 !       1.15 eA-3
C106 0.040 0.030 0.936 !       1.15 eA-3
Q107 0.250 0.241 0.156 !       1.10 eA-3
C108 0.375 0.642 0.530 !       1.07 eA-3
C109 0.687 0.047 0.259 !       1.07 eA-3
Q110 1.002 0.496 0.712 !       1.03 eA-3
C111 0.825 0.409 0.682 !       1.00 eA-3
Q112 0.312 0.532 0.688 !       0.96 eA-3
C113 0.283 0.939 0.305 !       0.95 eA-3
C114 0.738 0.418 0.751 !       0.94 eA-3
C115 0.452 0.721 0.746 !       0.93 eA-3
Q116 0.594 0.766 0.931 !       0.92 eA-3
Q117 0.934 0.936 0.275 !       0.92 eA-3
C118 0.373 0.610 0.351 !       0.90 eA-3
Q119 0.330 0.161 0.732 !       0.89 eA-3
C120 0.078 0.735 0.624 !       0.88 eA-3
C121 0.186 0.920 0.637 !       0.87 eA-3
C122 0.829 0.126 0.526 !       0.86 eA-3
C123 0.378 0.847 0.723 !       0.86 eA-3
C124 0.290 0.550 0.196 !       0.86 eA-3
C125 0.710 0.450 0.804 !       0.86 eA-3
C126 0.030 0.792 0.841 !       0.85 eA-3
Q127 0.750 0.755 0.969 !       0.85 eA-3
C128 0.578 0.161 0.696 !       0.85 eA-3
C129 0.880 0.109 0.249 !       0.83 eA-3
C130 0.387 0.844 0.438 !       0.83 eA-3
C131 0.089 0.686 0.726 !       0.83 eA-3
C132 0.045 0.747 0.897 !       0.82 eA-3
C133 0.861 0.144 0.340 !       0.82 eA-3
Q134 0.216 0.311 0.900 !       0.82 eA-3
C135 0.263 0.953 0.820 !       0.82 eA-3
C136 0.307 0.938 0.155 !       0.82 eA-3
C137 0.892 0.168 0.408 !       0.82 eA-3
C138 0.106 0.897 0.244 !       0.80 eA-3
Q139 0.175 0.536 0.689 !       0.80 eA-3
C140 0.264 0.763-0.006 !       0.80 eA-3
C141 0.279 0.527 0.922 !       0.79 eA-3
C142 0.315 0.591 0.215 !       0.79 eA-3
C143 0.516 0.500 0.974 !       0.79 eA-3
C144 0.780 0.382 0.762 !       0.78 eA-3
C145 0.872 0.112 0.545 !       0.78 eA-3
C146 0.887 0.388 0.693 !       0.78 eA-3
C147 0.949 0.263 0.282 !       0.78 eA-3
C148 0.888 0.102 0.355 !       0.78 eA-3
C149 0.926 0.156 0.690 !       0.75 eA-3
C150 0.644 0.108 0.454 !       0.74 eA-3
Q151 0.748 0.827-0.003 !       0.74 eA-3
C152 0.395 0.784 0.473 !       0.74 eA-3
C153 0.276 0.912 0.384 !       0.73 eA-3
C154 0.913 0.200 0.682 !       0.73 eA-3
C155 0.895 0.499-0.005 !       0.73 eA-3
Q156 0.593 0.747 0.215 !       0.72 eA-3
C157 0.908 0.276 0.698 !       0.72 eA-3
C158 0.704 0.442 0.266 !       0.72 eA-3
C159 0.296 0.558 0.734 !       0.72 eA-3
C160 0.363 0.824 0.628 !       0.72 eA-3
C161 0.851 0.358 0.410 !       0.71 eA-3
C162 0.285 0.541 0.783 !       0.70 eA-3
C163 0.601 0.153 0.409 !       0.70 eA-3
Q164 0.299 0.213 0.001 !       0.70 eA-3
C165 0.690 0.377 0.372 !       0.69 eA-3
C166 0.767 0.424 0.517 !       0.68 eA-3
C167 0.573 0.497 0.108 !       0.68 eA-3
Q168 0.669 0.781 0.108 !       0.67 eA-3
C169 0.876 0.202 0.656 !       0.66 eA-3
Q170 0.360 0.915 0.360 !       0.66 eA-3
C171 0.031 0.564 0.034 !       0.66 eA-3
Q172 0.375 0.168 0.628 !       0.66 eA-3
C173 0.715 0.061 0.589 !       0.66 eA-3
Q174 0.421 0.068 0.660 !       0.65 eA-3
C175 0.285 0.623 0.403 !       0.65 eA-3
C176 0.281 0.848 0.538 !       0.65 eA-3
C177 0.621 0.296 0.342 !       0.65 eA-3
C178 0.951 0.400 0.094 !       0.65 eA-3
C179 0.857 0.411 0.182 !       0.65 eA-3
C180 0.531 0.252 0.147 !       0.64 eA-3
C181 0.555 0.014 0.979 !       0.64 eA-3
C182 0.438 0.640 0.911 !       0.64 eA-3
C183 0.341 0.871 0.685 !       0.64 eA-3
C184 0.237 0.879 0.191 !       0.63 eA-3
C185 0.097 0.847 0.781 !       0.63 eA-3
C186 0.784 0.182 0.468 !       0.62 eA-3
Q187 0.204 0.267 0.840 !       0.62 eA-3
Q188 0.595 0.546 0.341 !       0.62 eA-3
C189 0.438 0.593 0.901 !       0.61 eA-3
C190 0.861 0.499 0.197 !       0.61 eA-3
C191 0.387 0.559 0.738 !       0.61 eA-3
C192 0.078 0.993 0.056 !       0.60 eA-3
C193 0.644 0.044 0.141 !       0.60 eA-3
C194 0.764 0.370 0.574 !       0.60 eA-3
C195 0.882 0.247 0.351 !       0.59 eA-3
C196 0.159 0.944 0.125 !       0.59 eA-3
C197 0.914 0.327 0.506 !       0.59 eA-3
C198 0.049 0.780 0.353 !       0.59 eA-3
C199 0.091 0.677 0.176 !       0.58 eA-3
)
;
_shelx_fab_checksum              60008
loop_
_space_group_symop_operation_xyz
'x, y, z'
'-x+1/2, -y+1/2, z'
'-y+1/2, x, z'
'y, -x+1/2, z'
'-x, -y, -z'
'x-1/2, y-1/2, -z'
'y-1/2, -x, -z'
'-y, x-1/2, -z'
loop_
_atom_site_label
_atom_site_type_symbol
_atom_site_fract_x
_atom_site_fract_y
_atom_site_fract_z
_atom_site_U_iso_or_equiv
_atom_site_adp_type
_atom_site_occupancy
_atom_site_site_symmetry_order
_atom_site_calc_flag
_atom_site_refinement_flags_posn
_atom_site_refinement_flags_adp
_atom_site_refinement_flags_occupancy
_atom_site_disorder_assembly
_atom_site_disorder_group
B1 B 0.750000 0.750000 -0.0942(9) 0.043(2) Uani 1 4 d S TU P . .
B2 B 0.7234(10) 0.6737(6) -0.0086(9) 0.059(3) Uani 0.6 1 d . U P . .
B3 B 0.6753(6) 0.7162(10) -0.0072(8) 0.051(3) Uani 0.55 1 d . U P A .
B4 B 0.6692(5) 0.7414(11) 0.1411(9) 0.056(3) Uani 0.55 1 d . U P . .
B5 B 0.6985(9) 0.6874(8) 0.1412(9) 0.054(3) Uani 0.55 1 d . U P A .
C1 C 0.6198(4) 0.6722(4) 0.4709(7) 0.0276(17) Uani 0.498(4) 1 d . . P A 1
H1A H 0.620445 0.710866 0.406797 0.033 Uiso 0.498(4) 1 calc R U P A 1
C2 C 0.5670(4) 0.6198(4) 0.4603(7) 0.0321(18) Uani 0.498(4) 1 d . . P A 1
H2A H 0.532511 0.620187 0.388777 0.039 Uiso 0.498(4) 1 calc R U P A 1
C3 C 0.5654(2) 0.5653(2) 0.5589(3) 0.0337(9) Uani 0.498(4) 1 d . . P A 1
C4 C 0.6155(5) 0.5652(4) 0.6598(7) 0.037(2) Uani 0.498(4) 1 d . . P A 1
H4A H 0.613855 0.528401 0.727508 0.044 Uiso 0.498(4) 1 calc R U P A 1
C5 C 0.6699(4) 0.6202(4) 0.6627(7) 0.0266(17) Uani 0.498(4) 1 d . . P A 1
H5A H 0.705539 0.620370 0.732409 0.032 Uiso 0.498(4) 1 calc R U P A 1
N1 N 0.67191(14) 0.67217(14) 0.5685(3) 0.0205(6) Uani 0.498(4) 1 d . . P A 1
B6' B 0.750000 0.750000 0.2384(10) 0.018(3) Uani 1 4 d S TU P A 2
C1' C 0.6718(4) 0.6192(4) 0.4712(7) 0.0281(17) Uani 0.502(4) 1 d . . P A 2
H1'A H 0.710913 0.619403 0.407872 0.034 Uiso 0.502(4) 1 calc R U P A 2
C2' C 0.6195(4) 0.5668(4) 0.4596(7) 0.0342(19) Uani 0.502(4) 1 d . . P A 2
H2'A H 0.619496 0.532566 0.387498 0.041 Uiso 0.502(4) 1 calc R U P A 2
C3' C 0.5654(2) 0.5653(2) 0.5589(3) 0.0337(9) Uani 0.502(4) 1 d . . P A 2
C4' C 0.5647(4) 0.6152(4) 0.6618(7) 0.036(2) Uani 0.502(4) 1 d . . P A 2
H4'A H 0.528277 0.613020 0.730157 0.044 Uiso 0.502(4) 1 calc R U P A 2
C5' C 0.6192(4) 0.6694(4) 0.6629(7) 0.0291(18) Uani 0.502(4) 1 d . . P A 2
H5'A H 0.619025 0.705341 0.732084 0.035 Uiso 0.502(4) 1 calc R U P A 2
N1' N 0.67191(14) 0.67217(14) 0.5685(3) 0.0205(6) Uani 0.502(4) 1 d . . P A 2
Cu1 Cu 0.750000 0.750000 0.57136(7) 0.0157(3) Uani 1 4 d S T P . .
N2 N 0.5098(2) 0.5095(2) 0.5593(3) 0.0455(9) Uani 1 1 d . . . . .
B6 B 0.750000 0.750000 0.2904(12) 0.020(3) Uani 1 4 d S TU P A .
loop_
_atom_site_aniso_label
_atom_site_aniso_U_11
_atom_site_aniso_U_22
_atom_site_aniso_U_33
_atom_site_aniso_U_23
_atom_site_aniso_U_13
_atom_site_aniso_U_12
B1 0.046(3) 0.046(3) 0.036(5) 0.000 0.000 0.000
B2 0.100(7) 0.042(5) 0.034(4) -0.001(4) -0.004(6) -0.031(6)
B3 0.040(5) 0.091(7) 0.022(4) -0.007(5) 0.000(4) -0.035(6)
B4 0.034(5) 0.109(7) 0.024(4) 0.003(6) 0.004(4) -0.014(6)
B5 0.080(7) 0.061(6) 0.023(4) -0.003(5) 0.001(5) -0.045(5)
C1 0.030(4) 0.024(4) 0.028(4) 0.005(3) 0.002(3) -0.007(3)
C2 0.034(4) 0.029(4) 0.034(4) 0.000(3) -0.008(3) -0.008(3)
C3 0.033(2) 0.032(2) 0.036(2) -0.0027(17) -0.0003(17) -0.0164(15)
C4 0.058(5) 0.021(4) 0.032(4) 0.003(3) 0.002(4) -0.009(4)
C5 0.029(4) 0.024(4) 0.027(4) 0.000(3) -0.005(3) -0.009(3)
N1 0.0183(13) 0.0178(13) 0.0254(15) 0.0012(12) 0.0021(12) -0.0038(10)
B6' 0.022(3) 0.022(3) 0.010(5) 0.000 0.000 0.000
C1' 0.024(4) 0.026(4) 0.034(4) -0.003(3) 0.004(3) -0.007(3)
C2' 0.037(4) 0.036(4) 0.030(4) -0.014(3) 0.007(3) -0.020(3)
C3' 0.033(2) 0.032(2) 0.036(2) -0.0027(17) -0.0003(17) -0.0164(15)
C4' 0.025(4) 0.051(5) 0.033(4) -0.004(4) 0.011(3) -0.018(4)
C5' 0.020(4) 0.038(4) 0.029(4) -0.002(3) 0.003(3) -0.007(3)
N1' 0.0183(13) 0.0178(13) 0.0254(15) 0.0012(12) 0.0021(12) -0.0038(10)
Cu1 0.0119(3) 0.0119(3) 0.0234(5) 0.000 0.000 0.000
N2 0.043(2) 0.048(2) 0.046(2) 0.0000(17) -0.0001(17) -0.0287(16)
B6 0.012(3) 0.012(3) 0.035(7) 0.000 0.000 0.000
loop_
_atom_type_symbol
_atom_type_description
_atom_type_scat_dispersion_real
_atom_type_scat_dispersion_imag
_atom_type_scat_source
C C 0.0033 0.0016 'International Tables Vol C Tables 4.2.6.8 and 6.1.1.4'
H H 0.0000 0.0000 'International Tables Vol C Tables 4.2.6.8 and 6.1.1.4'
B B 0.0013 0.0007 'International Tables Vol C Tables 4.2.6.8 and 6.1.1.4'
Cu Cu 0.3201 1.2651 'International Tables Vol C Tables 4.2.6.8 and 6.1.1.4'
N N 0.0061 0.0033 'International Tables Vol C Tables 4.2.6.8 and 6.1.1.4'
loop_
_geom_angle_atom_site_label_1
_geom_angle_atom_site_label_2
_geom_angle_atom_site_label_3
_geom_angle
_geom_angle_site_symmetry_1
_geom_angle_site_symmetry_3
_geom_angle_publ_flag
B2 B1 B2 75.3(4) 2_665 3_655 ?
B2 B1 B2 75.3(4) 2_665 4_565 ?
B2 B1 B2 119.5(8) 3_655 4_565 ?
B2 B1 B2 119.5(8) 2_665 . ?
B2 B1 B2 75.3(4) 3_655 . ?
B2 B1 B2 75.3(4) 4_565 . ?
B2 B1 B3 105.1(5) 2_665 . ?
B2 B1 B3 106.6(6) 3_655 . ?
B2 B1 B3 37.4(4) 4_565 . ?
B2 B1 B3 39.8(4) . . ?
B2 B1 B3 39.8(4) 2_665 2_665 ?
B2 B1 B3 37.4(4) 3_655 2_665 ?
B2 B1 B3 106.6(6) 4_565 2_665 ?
B2 B1 B3 105.1(5) . 2_665 ?
B3 B1 B3 119.4(8) . 2_665 ?
B2 B1 B3 37.4(4) 2_665 4_565 ?
B2 B1 B3 105.1(5) 3_655 4_565 ?
B2 B1 B3 39.8(4) 4_565 4_565 ?
B2 B1 B3 106.6(6) . 4_565 ?
B3 B1 B3 75.3(3) . 4_565 ?
B3 B1 B3 75.3(3) 2_665 4_565 ?
B2 B1 B3 106.6(6) 2_665 3_655 ?
B2 B1 B3 39.8(4) 3_655 3_655 ?
B2 B1 B3 105.1(5) 4_565 3_655 ?
B2 B1 B3 37.4(4) . 3_655 ?
B3 B1 B3 75.3(3) . 3_655 ?
B3 B1 B3 75.3(3) 2_665 3_655 ?
B3 B1 B3 119.4(8) 4_565 3_655 ?
B3 B2 B3 137.1(13) 3_655 . ?
B3 B2 B5 105.6(11) 3_655 . ?
B3 B2 B5 70.7(11) . . ?
B3 B2 B4 66.2(10) 3_655 3_655 ?
B3 B2 B4 108.5(10) . 3_655 ?
B5 B2 B4 41.6(5) . 3_655 ?
B3 B2 B1 72.6(7) 3_655 . ?
B3 B2 B1 71.3(7) . . ?
B5 B2 B1 115.4(8) . . ?
B4 B2 B1 113.1(8) 3_655 . ?
B3 B2 B2 24.3(7) 3_655 3_655 ?
B3 B2 B2 112.8(7) . 3_655 ?
B5 B2 B2 100.9(5) . 3_655 ?
B4 B2 B2 70.7(9) 3_655 3_655 ?
B1 B2 B2 52.35(18) . 3_655 ?
B3 B2 B2 114.3(7) 3_655 4_565 ?
B3 B2 B2 22.8(7) . 4_565 ?
B5 B2 B2 74.6(9) . 4_565 ?
B4 B2 B2 102.5(5) 3_655 4_565 ?
B1 B2 B2 52.35(18) . 4_565 ?
B2 B2 B2 89.999(1) 3_655 4_565 ?
B2 B3 B2 132.9(13) 4_565 . ?
B2 B3 B4 73.5(11) 4_565 . ?
B2 B3 B4 105.1(11) . . ?
B2 B3 B5 109.8(10) 4_565 . ?
B2 B3 B5 66.7(11) . . ?
B4 B3 B5 40.9(5) . . ?
B2 B3 B1 70.0(7) 4_565 . ?
B2 B3 B1 68.9(7) . . ?
B4 B3 B1 115.6(7) . . ?
B5 B3 B1 111.7(8) . . ?
B2 B3 B3 22.1(7) 4_565 4_565 ?
B2 B3 B3 110.8(7) . 4_565 ?
B4 B3 B3 75.5(9) . 4_565 ?
B5 B3 B3 102.1(4) . 4_565 ?
B1 B3 B3 52.37(17) . 4_565 ?
B2 B3 B3 112.1(7) 4_565 3_655 ?
B2 B3 B3 20.8(7) . 3_655 ?
B4 B3 B3 99.8(6) . 3_655 ?
B5 B3 B3 69.2(9) . 3_655 ?
B1 B3 B3 52.37(17) . 3_655 ?
B3 B3 B3 90.002(4) 4_565 3_655 ?
B5 B4 B5 134.6(14) . 4_565 ?
B5 B4 B3 73.0(12) . . ?
B5 B4 B3 105.2(11) 4_565 . ?
B5 B4 B2 108.7(11) . 4_565 ?
B5 B4 B2 67.1(11) 4_565 4_565 ?
B3 B4 B2 40.2(5) . 4_565 ?
B5 B4 B6' 71.4(8) . . ?
B5 B4 B6' 70.9(7) 4_565 . ?
B3 B4 B6' 119.4(8) . . ?
B2 B4 B6' 115.3(8) 4_565 . ?
B5 B4 B4 22.6(7) . 3_655 ?
B5 B4 B4 112.0(7) 4_565 3_655 ?
B3 B4 B4 76.1(9) . 3_655 ?
B2 B4 B4 101.9(5) 4_565 3_655 ?
B6' B4 B4 53.81(19) . 3_655 ?
B5 B4 B4 112.6(7) . 4_565 ?
B5 B4 B4 22.0(7) 4_565 4_565 ?
B3 B4 B4 100.6(5) . 4_565 ?
B2 B4 B4 70.3(9) 4_565 4_565 ?
B4 B4 B4 90.001(3) 3_655 4_565 ?
B4 B5 B4 135.4(14) . 3_655 ?
B4 B5 B2 105.9(11) . . ?
B4 B5 B2 71.3(11) 3_655 . ?
B4 B5 B3 66.1(11) . . ?
B4 B5 B3 109.9(10) 3_655 . ?
B2 B5 B3 42.5(5) . . ?
B4 B5 B6' 71.8(8) . . ?
B4 B5 B6' 71.4(7) 3_655 . ?
B2 B5 B6' 118.1(8) . . ?
B3 B5 B6' 115.6(8) . . ?
B4 B5 B5 23.0(7) . 4_565 ?
B4 B5 B5 112.4(7) 3_655 4_565 ?
B2 B5 B5 100.6(5) . 4_565 ?
B3 B5 B5 69.9(9) . 4_565 ?
B4 B5 B5 113.0(7) . 3_655 ?
B4 B5 B5 22.4(7) 3_655 3_655 ?
B2 B5 B5 74.4(9) . 3_655 ?
B3 B5 B5 103.1(4) . 3_655 ?
B6' B5 B5 53.84(19) . 3_655 ?
B5 B5 B5 90.002(2) 4_565 3_655 ?
N1 C1 C2 123.3(6) . . ?
N1 C1 H1A 118.4 . . ?
C2 C1 H1A 118.4 . . ?
C1 C2 C3 117.3(6) . . ?
C1 C2 H2A 121.4 . . ?
C3 C2 H2A 121.4 . . ?
C4 C3 C2 120.6(5) . . ?
C4 C3 N2 118.0(4) . . ?
C2 C3 N2 121.3(4) . . ?
C3 C4 C5 119.0(6) . . ?
C3 C4 H4A 120.5 . . ?
C5 C4 H4A 120.5 . . ?
N1 C5 C4 120.5(6) . . ?
N1 C5 H5A 119.7 . . ?
C4 C5 H5A 119.7 . . ?
C5 N1 C1 119.2(4) . . ?
C5 N1 Cu1 120.6(3) . . ?
C1 N1 Cu1 120.2(3) . . ?
B6 B6' B4 123.4(4) . . ?
B6 B6' B4 123.4(4) . 3_655 ?
B4 B6' B4 72.4(4) . 3_655 ?
B6 B6' B4 123.4(4) . 4_565 ?
B4 B6' B4 72.4(4) . 4_565 ?
B4 B6' B4 113.2(8) 3_655 4_565 ?
B6 B6' B4 123.4(4) . 2_665 ?
B4 B6' B4 113.2(8) . 2_665 ?
B4 B6' B4 72.4(4) 3_655 2_665 ?
B4 B6' B4 72.4(4) 4_565 2_665 ?
B6 B6' B5 123.4(4) . . ?
B4 B6' B5 36.8(4) . . ?
B4 B6' B5 37.7(4) 3_655 . ?
B4 B6' B5 100.6(6) 4_565 . ?
B4 B6' B5 101.2(6) 2_665 . ?
B6 B6' B5 123.4(4) . 4_565 ?
B4 B6' B5 37.7(4) . 4_565 ?
B4 B6' B5 101.2(6) 3_655 4_565 ?
B4 B6' B5 36.8(4) 4_565 4_565 ?
B4 B6' B5 100.6(6) 2_665 4_565 ?
B5 B6' B5 72.3(4) . 4_565 ?
B6 B6' B5 123.4(4) . 3_655 ?
B4 B6' B5 100.6(6) . 3_655 ?
B4 B6' B5 36.8(4) 3_655 3_655 ?
B4 B6' B5 101.2(6) 4_565 3_655 ?
B4 B6' B5 37.7(4) 2_665 3_655 ?
B5 B6' B5 72.3(4) . 3_655 ?
B5 B6' B5 113.1(8) 4_565 3_655 ?
B6 B6' B5 123.4(4) . 2_665 ?
B4 B6' B5 101.2(6) . 2_665 ?
B4 B6' B5 100.6(6) 3_655 2_665 ?
B4 B6' B5 37.7(4) 4_565 2_665 ?
B4 B6' B5 36.8(4) 2_665 2_665 ?
B5 B6' B5 113.1(8) . 2_665 ?
B5 B6' B5 72.3(4) 4_565 2_665 ?
B5 B6' B5 72.3(4) 3_655 2_665 ?
C2' C1' N1' 123.9(6) . . ?
C2' C1' H1'A 118.0 . . ?
N1' C1' H1'A 118.0 . . ?
C1' C2' C3' 116.6(6) . . ?
C1' C2' H2'A 121.7 . . ?
C3' C2' H2'A 121.7 . . ?
C4' C3' C2' 121.8(5) . . ?
C4' C3' N2 117.3(4) . . ?
C2' C3' N2 120.8(4) . . ?
C3' C4' C5' 117.7(6) . . ?
C3' C4' H4'A 121.2 . . ?
C5' C4' H4'A 121.2 . . ?
N1' C5' C4' 121.7(6) . . ?
N1' C5' H5'A 119.1 . . ?
C4' C5' H5'A 119.1 . . ?
C5' N1' C1' 118.2(5) . . ?
C5' N1' Cu1 121.4(3) . . ?
C1' N1' Cu1 120.5(3) . . ?
N1 Cu1 N1 89.988(3) 2_665 4_565 ?
N1 Cu1 N1 89.988(3) 2_665 3_655 ?
N1 Cu1 N1 178.35(15) 4_565 3_655 ?
N1 Cu1 N1 178.35(15) 2_665 . ?
N1 Cu1 N1 89.989(3) 4_565 . ?
N1 Cu1 N1 89.987(3) 3_655 . ?
N1 Cu1 B6 89.18(8) 2_665 . ?
N1 Cu1 B6 89.18(8) 4_565 . ?
N1 Cu1 B6 89.18(8) 3_655 . ?
N1' Cu1 B6 89.18(8) . . ?
N1 Cu1 B6 89.18(8) . . ?
N2 N2 C3 112.5(4) 5_666 . ?
N2 N2 C3' 112.5(4) 5_666 . ?
B6' B6 Cu1 180.0 . . ?
loop_
_geom_bond_atom_site_label_1
_geom_bond_atom_site_label_2
_geom_bond_distance
_geom_bond_site_symmetry_2
_geom_bond_publ_flag
B1 B2 1.696(10) 2_665 ?
B1 B2 1.696(10) 3_655 ?
B1 B2 1.696(10) 4_565 ?
B1 B2 1.696(10) . ?
B1 B3 1.723(10) . ?
B1 B3 1.723(10) 2_665 ?
B1 B3 1.723(10) 4_565 ?
B1 B3 1.723(10) 3_655 ?
B2 B3 1.096(12) 3_655 ?
B2 B3 1.164(13) . ?
B2 B5 1.582(15) . ?
B2 B4 1.628(15) 3_655 ?
B2 B2 2.072(12) 3_655 ?
B2 B2 2.072(12) 4_565 ?
B3 B4 1.554(14) . ?
B3 B5 1.626(16) . ?
B3 B3 2.104(12) 4_565 ?
B3 B3 2.104(12) 3_655 ?
B4 B5 1.114(13) . ?
B4 B5 1.140(13) 4_565 ?
B4 B6' 1.766(11) . ?
B4 B4 2.086(13) 3_655 ?
B4 B4 2.086(13) 4_565 ?
B5 B6' 1.762(10) . ?
B5 B5 2.079(12) 4_565 ?
B5 B5 2.079(12) 3_655 ?
C1 N1 1.358(7) . ?
C1 C2 1.352(10) . ?
C1 H1A 0.9500 . ?
C2 C3 1.396(8) . ?
C2 H2A 0.9500 . ?
C3 C4 1.358(9) . ?
C3 N2 1.428(4) . ?
C4 C5 1.403(9) . ?
C4 H4A 0.9500 . ?
C5 N1 1.333(7) . ?
C5 H5A 0.9500 . ?
N1 Cu1 2.000(3) . ?
B6' B6 0.519(13) . ?
C1' C2' 1.350(9) . ?
C1' N1' 1.366(7) . ?
C1' H1'A 0.9500 . ?
C2' C3' 1.395(8) . ?
C2' H2'A 0.9500 . ?
C3' C4' 1.371(8) . ?
C3' N2 1.428(4) . ?
C4' C5' 1.394(9) . ?
C4' H4'A 0.9500 . ?
C5' N1' 1.344(7) . ?
C5' H5'A 0.9500 . ?
N1' Cu1 2.000(3) . ?
Cu1 B6 2.806(12) . ?
N2 N2 1.283(6) 5_666 ?
