#------------------------------------------------------------------------------
#$Date: 2020-03-17 04:32:56 +0200 (Tue, 17 Mar 2020) $
#$Revision: 249423 $
#$URL: file:///home/coder/svn-repositories/cod/cif/7/24/01/7240132.cif $
#------------------------------------------------------------------------------
#
# This file is available in the Crystallography Open Database (COD),
# http://www.crystallography.net/
#
# All data on this site have been placed in the public domain by the
# contributors.
#
data_7240132
loop_
_publ_author_name
'Zhang, Yuanbin'
'Wang, Lingyao'
'Hu, Jianbo'
'Duttwyler, Simon'
'Cui, Xili'
'Xing, Huabin'
_publ_section_title
;
 Solvent dependant supramolecular self-assembly of boron cage pillared
 metal-organic frameworks for selective gas separation
;
_journal_name_full               CrystEngComm
_journal_paper_doi               10.1039/D0CE00142B
_journal_year                    2020
_chemical_formula_sum            'C32 H40 B12 Cu N4'
_chemical_formula_weight         673.94
_space_group_crystal_system      tetragonal
_space_group_IT_number           83
_space_group_name_Hall           '-P 4'
_space_group_name_H-M_alt        'P 4/m'
_atom_sites_solution_hydrogens   difmap
_audit_creation_method           SHELXL-2018/3
_audit_update_record
;
2019-05-21 deposited with the CCDC.	2020-03-16 downloaded from the CCDC.
;
_cell_angle_alpha                90
_cell_angle_beta                 90
_cell_angle_gamma                90
_cell_formula_units_Z            1
_cell_length_a                   15.3693(12)
_cell_length_b                   15.3693(12)
_cell_length_c                   10.1723(8)
_cell_measurement_reflns_used    6211
_cell_measurement_temperature    173(2)
_cell_measurement_theta_max      25.12
_cell_measurement_theta_min      2.40
_cell_volume                     2402.9(3)
_computing_structure_refinement  'SHELXL-2018/3 (Sheldrick, 2018)'
_computing_structure_solution    'SHELXT 2014/5 (Sheldrick, 2014)'
_diffrn_ambient_temperature      173(2)
_diffrn_measured_fraction_theta_full 0.997
_diffrn_measured_fraction_theta_max 0.997
_diffrn_measurement_device_type  'Bruker APEX-II CCD'
_diffrn_measurement_method       '\f and \w scans'
_diffrn_radiation_type           MoK\a
_diffrn_radiation_wavelength     0.71073
_diffrn_reflns_av_R_equivalents  0.0455
_diffrn_reflns_av_unetI/netI     0.0311
_diffrn_reflns_Laue_measured_fraction_full 0.997
_diffrn_reflns_Laue_measured_fraction_max 0.997
_diffrn_reflns_limit_h_max       18
_diffrn_reflns_limit_h_min       -17
_diffrn_reflns_limit_k_max       17
_diffrn_reflns_limit_k_min       -18
_diffrn_reflns_limit_l_max       12
_diffrn_reflns_limit_l_min       -10
_diffrn_reflns_number            14474
_diffrn_reflns_point_group_measured_fraction_full 0.997
_diffrn_reflns_point_group_measured_fraction_max 0.997
_diffrn_reflns_theta_full        25.008
_diffrn_reflns_theta_max         25.008
_diffrn_reflns_theta_min         2.401
_exptl_absorpt_coefficient_mu    0.238
_exptl_crystal_density_diffrn    0.466
_exptl_crystal_description       block
_exptl_crystal_F_000             349
_exptl_crystal_size_max          0.120
_exptl_crystal_size_mid          0.090
_exptl_crystal_size_min          0.070
_refine_diff_density_max         0.542
_refine_diff_density_min         -0.273
_refine_diff_density_rms         0.049
_refine_ls_extinction_method     none
_refine_ls_goodness_of_fit_ref   1.102
_refine_ls_hydrogen_treatment    constr
_refine_ls_matrix_type           full
_refine_ls_number_parameters     108
_refine_ls_number_reflns         2260
_refine_ls_number_restraints     19
_refine_ls_restrained_S_all      1.166
_refine_ls_R_factor_all          0.0529
_refine_ls_R_factor_gt           0.0492
_refine_ls_shift/su_max          0.081
_refine_ls_shift/su_mean         0.004
_refine_ls_structure_factor_coef Fsqd
_refine_ls_weighting_details
'w=1/[\s^2^(Fo^2^)+(0.1170P)^2^+0.1050P] where P=(Fo^2^+2Fc^2^)/3'
_refine_ls_weighting_scheme      calc
_refine_ls_wR_factor_gt          0.1479
_refine_ls_wR_factor_ref         0.1535
_reflns_Friedel_coverage         0.000
_reflns_number_gt                2099
_reflns_number_total             2260
_reflns_threshold_expression     'I > 2\s(I)'
_cod_data_source_file            d0ce00142b2.cif
_cod_data_source_block           20181016zju_eg_0m_a_sq
_cod_original_cell_volume        2402.9(4)
_cod_database_code               7240132
_shelx_shelxl_version_number     2018/3
_shelx_space_group_comment
;
The symmetry employed for this shelxl refinement is uniquely defined
by the following loop, which should always be used as a source of
symmetry information in preference to the above space-group names.
They are only intended as comments.
;
_shelx_estimated_absorpt_t_min   0.972
_shelx_estimated_absorpt_t_max   0.983
_shelx_res_file
;
TITL 20181016ZJU_EG_0m_a.res in P4/m
    20181016zju_eg_0m_a_sq.res
    created by SHELXL-2018/3 at 17:30:54 on 17-Oct-2018
CELL  0.71073  15.3693  15.3693  10.1723   90.000   90.000   90.000
ZERR   1.000   0.0012   0.0012   0.0008    0.000    0.000    0.000
LATT 1
SYMM -X, -Y, Z
SYMM -Y, X, Z
SYMM Y, -X, Z
SFAC C  H  B  Cu N
UNIT 32 40 12 1 4
OMIT  -3.00  50.02
omit 3 3 0
L.S. 20
ACTA
BOND $H
FMAP 2
abin
PLAN 20
SUMP 1 .001 1 2 1 3 1 4
SIMU .01 .01 3.8 $B
size .12 .09 .07
TEMP -100
WGHT    0.117000    0.105000
FVAR       0.98418   0.42485   0.27952   0.29563
B1    3    0.500000    0.500000    0.163698    10.25000    0.04644    0.04644 =
         0.02372    0.00000    0.00000    0.00000
AFIX   3
H1F   2    0.500000    0.500000    0.247768    10.25000   -1.20000
AFIX   0
B2    3    0.523310    0.407777    0.074126    10.62500    0.15221    0.04165 =
         0.03831    0.00782    0.00286    0.02514
B3    3    0.449241    0.419296    0.075415    10.62500    0.13098    0.06561 =
         0.03710    0.00505   -0.00215   -0.05051
PART 1
C1    1    0.675815    0.457858    0.593385    10.50000    0.02383    0.04954 =
         0.03704    0.00831    0.00259    0.00276
AFIX   3
H1A   2    0.644445    0.427708    0.661095    10.50000   -1.20000
AFIX   0
C2    1    0.764849    0.456288    0.596252    10.50000    0.02472    0.06438 =
         0.04487    0.01972   -0.00130    0.00207
AFIX   3
H2A   2    0.794879    0.425478    0.664672    10.50000   -1.20000
PART 0
AFIX   0
C3    1    0.812624    0.500063    0.500000    10.50000    0.02118    0.05979 =
         0.03739    0.00000    0.00000   -0.00035
AFIX   3
H3A   2    0.786184    0.500372    0.414500    10.50000   -1.20000
AFIX   0
C4    1    0.908494    0.499807    0.500000    10.50000    0.02045    0.06931 =
         0.04724    0.00000    0.00000   -0.00049
PART 1
C5    1    0.955186    0.500522    0.615889    21.00000    0.02230    0.14207 =
         0.03636   -0.00074    0.00489   -0.00056
AFIX   3
H5A   2    0.924226    0.501522    0.697839    21.00000   -1.20000
PART 2
AFIX   0
C1'   1    0.675935    0.542035    0.593277    10.50000    0.02584    0.05011 =
         0.03542   -0.00909    0.00214   -0.00313
AFIX   3
H1'A  2    0.644526    0.572635    0.660487    10.50000   -1.20000
AFIX   0
C2'   1    0.764890    0.543826    0.596628    10.50000    0.02482    0.06329 =
         0.04368   -0.01808   -0.00230   -0.00232
AFIX   3
H2'A  2    0.794878    0.574096    0.665638    10.50000   -1.20000
AFIX   0
C5A   1    0.954830    0.566884    0.556865    31.00000    0.02739    0.06004 =
         0.08148   -0.03049    0.00104    0.00405
AFIX   3
H5AA  2    0.923610    0.614104    0.596765    31.00000   -1.20000
PART 3
AFIX   0
C5B   1    0.955155    0.433895    0.557398    41.00000    0.02539    0.06461 =
         0.07966    0.03380   -0.00158   -0.00679
AFIX   3
H5BB  2    0.923924    0.387235    0.598738    41.00000   -1.20000
PART 0
AFIX   0
CU1   4    0.500000    0.500000    0.500000    10.12500    0.01479    0.01479 =
         0.04559    0.00000    0.00000    0.00000
N1    5    0.630438    0.499939    0.500000    10.50000    0.01757    0.02620 =
         0.03813    0.00000    0.00000    0.00004
HKLF 4




REM  20181016ZJU_EG_0m_a.res in P4/m
REM wR2 = 0.1535, GooF = S = 1.102, Restrained GooF = 1.166 for all data
REM R1 = 0.0492 for 2099 Fo > 4sig(Fo) and 0.0529 for all 2260 data
REM 108 parameters refined using 19 restraints

END

WGHT      0.1075      0.1885

REM Highest difference peak  0.542,  deepest hole -0.273,  1-sigma level  0.049
Q1    1   0.3783  0.3782  0.1250  11.00000  0.05    0.54
Q2    1   0.5469  0.4932  0.5000  10.50000  0.05    0.47
Q3    1   0.5000  0.5000  0.2893  10.25000  0.05    0.43
Q4    1   0.4972  0.4678  0.1031  11.00000  0.05    0.29
Q5    1   0.5000  0.5000  0.4111  10.25000  0.05    0.28
Q6    1   0.4308  0.4471  0.0000  10.50000  0.05    0.27
Q7    1   0.4789  0.3938  0.0804  11.00000  0.05    0.26
Q8    1   0.4903  0.4411  0.1232  11.00000  0.05    0.24
Q9    1   0.7799  0.5410  0.5000  10.50000  0.05    0.22
Q10   1   0.8589  0.5006  0.5000  10.50000  0.05    0.22
Q11   1   0.7908  0.4622  0.5000  10.50000  0.05    0.21
Q12   1   0.9215  0.5348  0.5000  10.50000  0.05    0.17
Q13   1   0.4843  0.4191  0.0000  10.50000  0.05    0.17
Q14   1   0.9247  0.5008  0.4549  11.00000  0.05    0.17
Q15   1   0.9174  0.4560  0.5000  10.50000  0.05    0.15
Q16   1   0.6584  0.5077  0.5586  11.00000  0.05    0.14
Q17   1   0.7180  0.4281  0.5536  11.00000  0.05    0.13
Q18   1   0.6570  0.5403  0.5000  10.50000  0.05    0.12
Q19   1   0.6572  0.4865  0.5536  11.00000  0.05    0.11
Q20   1   0.6696  0.6458  0.5241  11.00000  0.05    0.11
;
_shelx_res_checksum              80893
_shelx_fab_file
;
   -1    2    0    -19.22      0.00
    0    2    0    -80.79      0.00
    1    2    0    -18.78      0.00
    2    2    0     36.16      0.00
   -2    3    0     14.91      0.00
   -1    3    0     13.29      0.00
    1    3    0     13.31      0.00
    2    3    0     15.42      0.00
    3    3    0      9.11      0.00
   -3    4    0     -3.06      0.00
   -2    4    0    -11.17      0.00
   -1    4    0     20.39      0.00
    0    4    0     16.07      0.00
    1    4    0     20.48      0.00
    2    4    0    -10.82      0.00
    3    4    0     -3.48      0.00
    4    4    0      2.94      0.00
   -4    5    0      0.81      0.00
   -3    5    0      1.33      0.00
   -2    5    0     -1.72      0.00
   -1    5    0      1.79      0.00
    0    5    0      3.06      0.00
    1    5    0      1.61      0.00
    2    5    0     -1.47      0.00
    3    5    0      1.02      0.00
    4    5    0      0.70      0.00
    5    5    0     -1.91      0.00
   -5    6    0     -0.13      0.00
   -4    6    0      0.96      0.00
   -3    6    0      2.48      0.00
   -2    6    0      4.50      0.00
   -1    6    0     -7.00      0.00
    0    6    0     -4.81      0.00
    1    6    0     -7.08      0.00
    2    6    0      4.66      0.00
    3    6    0      2.08      0.00
    4    6    0      0.52      0.00
    5    6    0     -0.46      0.00
    6    6    0      0.12      0.00
   -6    7    0      0.56      0.00
   -5    7    0     -0.57      0.00
   -4    7    0      1.54      0.00
   -3    7    0     -2.10      0.00
   -2    7    0      0.23      0.00
   -1    7    0     -0.63      0.00
    0    7    0      0.45      0.00
    1    7    0     -0.65      0.00
    2    7    0      0.27      0.00
    3    7    0     -2.12      0.00
    4    7    0      1.69      0.00
    5    7    0     -0.40      0.00
    6    7    0      0.51      0.00
    7    7    0      1.63      0.00
   -7    8    0      0.43      0.00
   -6    8    0      2.00      0.00
   -5    8    0     -1.64      0.00
   -4    8    0     -0.13      0.00
   -3    8    0      0.12      0.00
   -2    8    0     -3.18      0.00
   -1    8    0      2.76      0.00
    0    8    0      2.91      0.00
    1    8    0      2.70      0.00
    2    8    0     -2.96      0.00
    3    8    0      0.14      0.00
    4    8    0     -0.32      0.00
    5    8    0     -1.63      0.00
    6    8    0      1.88      0.00
    7    8    0      0.44      0.00
    8    8    0     -0.61      0.00
   -8    9    0      0.66      0.00
   -7    9    0     -0.29      0.00
   -6    9    0      0.58      0.00
   -5    9    0      0.26      0.00
   -4    9    0     -0.03      0.00
   -3    9    0      2.35      0.00
   -2    9    0     -2.56      0.00
   -1    9    0      0.01      0.00
    0    9    0     -0.18      0.00
    1    9    0     -0.15      0.00
    2    9    0     -2.57      0.00
    3    9    0      2.35      0.00
    4    9    0     -0.28      0.00
    5    9    0      0.17      0.00
    6    9    0      0.52      0.00
    7    9    0     -0.41      0.00
    8    9    0     -0.10      0.00
    9    9    0     -0.24      0.00
   -9   10    0      0.10      0.00
   -8   10    0     -0.02      0.00
   -7   10    0     -0.68      0.00
   -6   10    0     -0.71      0.00
   -5   10    0      1.01      0.00
   -4   10    0      0.18      0.00
   -3   10    0      0.35      0.00
   -2   10    0      0.43      0.00
   -1   10    0      0.32      0.00
    0   10    0      1.06      0.00
    1   10    0      0.49      0.00
    2   10    0      0.20      0.00
    3   10    0      0.00      0.00
    4   10    0     -0.28      0.00
    5   10    0      0.96      0.00
    6   10    0     -0.76      0.00
    7   10    0     -0.16      0.00
    8   10    0     -0.56      0.00
    9   10    0     -0.14      0.00
   10   10    0      0.18      0.00
  -10   11    0     -0.81      0.00
   -9   11    0      0.37      0.00
   -8   11    0      0.98      0.00
   -7   11    0      0.06      0.00
   -6   11    0     -0.10      0.00
   -5   11    0     -0.13      0.00
   -4   11    0     -0.39      0.00
   -3   11    0     -0.33      0.00
   -2   11    0      1.39      0.00
   -1   11    0     -0.76      0.00
    0   11    0      0.43      0.00
    1   11    0     -0.92      0.00
    2   11    0      1.34      0.00
    3   11    0     -0.66      0.00
    4   11    0     -0.60      0.00
    5   11    0      0.51      0.00
    6   11    0     -0.60      0.00
    7   11    0      0.18      0.00
    8   11    0      0.32      0.00
    9   11    0     -0.15      0.00
   10   11    0     -0.52      0.00
   11   11    0     -0.09      0.00
  -11   12    0      0.95      0.00
  -10   12    0      0.61      0.00
   -9   12    0     -0.59      0.00
   -8   12    0      0.23      0.00
   -7   12    0      0.40      0.00
   -6   12    0     -0.80      0.00
   -5   12    0     -0.20      0.00
   -4   12    0      0.41      0.00
   -3   12    0     -1.38      0.00
   -2   12    0      0.16      0.00
   -1   12    0     -0.36      0.00
    0   12    0     -0.20      0.00
    1   12    0     -0.81      0.00
    2   12    0      0.55      0.00
    3   12    0     -1.48      0.00
    4   12    0      0.26      0.00
    5   12    0      0.62      0.00
    6   12    0     -0.51      0.00
    7   12    0      0.75      0.00
    8   12    0      0.29      0.00
    9   12    0     -0.69      0.00
   10   12    0     -0.11      0.00
   11   12    0     -0.66      0.00
   12   12    0     -0.20      0.00
  -12   13    0      0.82      0.00
  -11   13    0      0.03      0.00
  -10   13    0      0.27      0.00
   -9   13    0      0.44      0.00
   -8   13    0     -0.52      0.00
   -7   13    0      0.41      0.00
   -6   13    0     -0.35      0.00
   -5   13    0     -0.55      0.00
   -4   13    0      0.68      0.00
   -3   13    0     -0.38      0.00
   -2   13    0     -0.33      0.00
   -1   13    0      0.24      0.00
    0   13    0     -0.19      0.00
    1   13    0     -0.18      0.00
    2   13    0     -0.16      0.00
    3   13    0     -0.18      0.00
    4   13    0      1.10      0.00
    5   13    0     -0.63      0.00
    6   13    0     -0.23      0.00
    7   13    0      0.47      0.00
    8   13    0     -0.54      0.00
    9   13    0      0.44      0.00
   10   13    0      0.10      0.00
   11   13    0     -0.27      0.00
   12   13    0      0.65      0.00
   13   13    0     -0.59      0.00
  -13   14    0     -0.79      0.00
  -12   14    0     -0.03      0.00
  -11   14    0     -0.31      0.00
  -10   14    0     -0.89      0.00
   -9   14    0      0.32      0.00
   -8   14    0      0.06      0.00
   -7   14    0     -0.13      0.00
   -6   14    0      0.64      0.00
   -5   14    0      0.24      0.00
   -4   14    0     -0.14      0.00
   -3   14    0      0.36      0.00
   -2   14    0     -0.42      0.00
   -1   14    0      0.21      0.00
    0   14    0      0.82      0.00
    1   14    0      0.01      0.00
    2   14    0      0.05      0.00
    3   14    0      0.71      0.00
    4   14    0     -0.15      0.00
    5   14    0     -0.74      0.00
    6   14    0      0.17      0.00
    7   14    0     -0.36      0.00
    8   14    0     -0.06      0.00
    9   14    0      0.41      0.00
   10   14    0     -0.34      0.00
   11   14    0      0.14      0.00
   12   14    0     -0.85      0.00
   13   14    0     -1.13      0.00
   14   14    0      0.12      0.00
  -13   15    0      1.16      0.00
  -12   15    0     -0.40      0.00
  -11   15    0     -1.12      0.00
  -10   15    0      0.15      0.00
   -9   15    0      0.01      0.00
   -8   15    0      0.32      0.00
   -7   15    0      0.07      0.00
   -6   15    0     -0.13      0.00
   -5   15    0      0.63      0.00
   -4   15    0     -0.22      0.00
   -3   15    0     -0.42      0.00
   -2   15    0     -0.26      0.00
   -1   15    0     -0.19      0.00
    0   15    0      0.02      0.00
    1   15    0     -0.33      0.00
    2   15    0      0.15      0.00
    3   15    0     -0.19      0.00
    4   15    0      0.16      0.00
    5   15    0      0.88      0.00
    6   15    0     -0.13      0.00
    7   15    0     -0.24      0.00
    8   15    0      0.22      0.00
    9   15    0     -0.51      0.00
   10   15    0     -0.18      0.00
   11   15    0     -0.21      0.00
   12   15    0      0.11      0.00
   13   15    0      1.56      0.00
  -11   16    0     -0.96      0.00
  -10   16    0     -0.13      0.00
   -9   16    0      0.41      0.00
   -8   16    0     -0.20      0.00
   -7   16    0      0.10      0.00
   -6   16    0      0.01      0.00
   -5   16    0      0.35      0.00
   -4   16    0      0.42      0.00
   -3   16    0     -0.55      0.00
   -2   16    0     -0.75      0.00
   -1   16    0     -0.36      0.00
    0   16    0     -0.16      0.00
    1   16    0     -0.13      0.00
    2   16    0      0.11      0.00
    3   16    0     -0.33      0.00
    4   16    0      0.54      0.00
    5   16    0      0.79      0.00
    6   16    0      0.53      0.00
    7   16    0      0.24      0.00
    8   16    0     -0.03      0.00
    9   16    0      0.07      0.00
   10   16    0     -0.42      0.00
   11   16    0     -0.57      0.00
  -10   17    0     -0.02      0.00
   -9   17    0      0.69      0.00
   -8   17    0     -0.28      0.00
   -7   17    0     -0.58      0.00
   -6   17    0      0.35      0.00
   -5   17    0     -0.01      0.00
   -4   17    0      0.57      0.00
   -3   17    0      0.36      0.00
   -2   17    0     -0.31      0.00
   -1   17    0      0.35      0.00
    0   17    0      0.00      0.00
    1   17    0     -0.24      0.00
    2   17    0     -0.07      0.00
    3   17    0     -0.01      0.00
    4   17    0     -0.39      0.00
    5   17    0     -0.86      0.00
    6   17    0     -0.19      0.00
    7   17    0     -0.13      0.00
    8   17    0      0.05      0.00
    9   17    0     -0.28      0.00
   10   17    0     -0.12      0.00
   -8   18    0     -0.54      0.00
   -7   18    0      0.06      0.00
   -6   18    0      0.31      0.00
   -5   18    0     -1.50      0.00
   -4   18    0     -1.30      0.00
   -3   18    0     -0.16      0.00
   -2   18    0      0.25      0.00
   -1   18    0      0.81      0.00
    0   18    0     -0.37      0.00
    1   18    0     -0.43      0.00
    2   18    0     -0.12      0.00
    3   18    0      0.17      0.00
    4   18    0     -0.10      0.00
    5   18    0     -0.16      0.00
    6   18    0     -0.39      0.00
    7   18    0      0.08      0.00
    8   18    0      0.62      0.00
   -6   19    0      0.59      0.00
   -5   19    0     -0.01      0.00
   -4   19    0     -0.50      0.00
   -3   19    0     -0.11      0.00
   -2   19    0      0.02      0.00
   -1   19    0      0.00      0.00
    0   19    0     -0.40      0.00
    1   19    0      0.33      0.00
    2   19    0      0.34      0.00
    3   19    0     -0.17      0.00
    4   19    0     -0.24      0.00
    5   19    0      0.48      0.00
    6   19    0     -0.25      0.00
    0    1    1    -19.94      0.00
    1    1    1    -26.89      0.00
   -1    2    1     21.48      0.00
    0    2    1     26.00      0.00
    1    2    1     21.49      0.00
    2    2    1     -5.43      0.00
   -2    3    1    -13.72      0.00
   -1    3    1     19.87      0.00
    0    3    1     10.60      0.00
    1    3    1     19.91      0.00
    2    3    1    -13.59      0.00
    3    3    1     -4.45      0.00
   -3    4    1      5.21      0.00
   -2    4    1     -4.49      0.00
   -1    4    1      0.03      0.00
    0    4    1    -19.48      0.00
    1    4    1      0.58      0.00
    2    4    1     -4.41      0.00
    3    4    1      4.65      0.00
    4    4    1      2.91      0.00
   -4    5    1     -0.86      0.00
   -3    5    1      1.92      0.00
   -2    5    1      1.26      0.00
   -1    5    1     -2.11      0.00
    0    5    1     -5.80      0.00
    1    5    1     -2.05      0.00
    2    5    1      1.24      0.00
    3    5    1      1.87      0.00
    4    5    1     -0.20      0.00
    5    5    1      0.97      0.00
   -5    6    1      2.50      0.00
   -4    6    1     -0.24      0.00
   -3    6    1     -3.24      0.00
   -2    6    1      1.31      0.00
   -1    6    1      0.30      0.00
    0    6    1      7.72      0.00
    1    6    1      0.34      0.00
    2    6    1      1.44      0.00
    3    6    1     -3.55      0.00
    4    6    1     -0.63      0.00
    5    6    1      2.11      0.00
    6    6    1      1.54      0.00
   -6    7    1     -0.85      0.00
   -5    7    1     -0.90      0.00
   -4    7    1      1.49      0.00
   -3    7    1     -2.02      0.00
   -2    7    1      0.97      0.00
   -1    7    1     -0.41      0.00
    0    7    1     -0.32      0.00
    1    7    1     -0.21      0.00
    2    7    1      1.16      0.00
    3    7    1     -1.99      0.00
    4    7    1      1.38      0.00
    5    7    1     -0.82      0.00
    6    7    1     -0.74      0.00
    7    7    1      0.59      0.00
   -7    8    1     -0.32      0.00
   -6    8    1     -0.09      0.00
   -5    8    1     -2.10      0.00
   -4    8    1      0.94      0.00
   -3    8    1      2.16      0.00
   -2    8    1     -0.59      0.00
   -1    8    1      0.60      0.00
    0    8    1     -2.38      0.00
    1    8    1      0.80      0.00
    2    8    1     -0.60      0.00
    3    8    1      2.26      0.00
    4    8    1      1.05      0.00
    5    8    1     -1.88      0.00
    6    8    1      0.05      0.00
    7    8    1     -0.11      0.00
    8    8    1     -0.12      0.00
   -8    9    1      0.72      0.00
   -7    9    1     -0.88      0.00
   -6    9    1      0.36      0.00
   -5    9    1      0.31      0.00
   -4    9    1     -0.87      0.00
   -3    9    1      1.60      0.00
   -2    9    1     -0.74      0.00
   -1    9    1      0.96      0.00
    0    9    1     -0.97      0.00
    1    9    1      0.82      0.00
    2    9    1     -0.94      0.00
    3    9    1      1.71      0.00
    4    9    1     -0.98      0.00
    5    9    1      0.25      0.00
    6    9    1      0.34      0.00
    7    9    1     -0.85      0.00
    8    9    1      0.40      0.00
    9    9    1      0.47      0.00
   -9   10    1     -0.31      0.00
   -8   10    1     -0.04      0.00
   -7   10    1     -0.16      0.00
   -6   10    1     -0.38      0.00
   -5   10    1      0.53      0.00
   -4   10    1     -0.88      0.00
   -3   10    1     -0.83      0.00
   -2   10    1     -0.30      0.00
   -1   10    1      0.14      0.00
    0   10    1      0.26      0.00
    1   10    1      0.01      0.00
    2   10    1     -0.35      0.00
    3   10    1     -0.77      0.00
    4   10    1     -1.13      0.00
    5   10    1      0.64      0.00
    6   10    1     -0.64      0.00
    7   10    1      0.18      0.00
    8   10    1      0.06      0.00
    9   10    1     -0.24      0.00
   10   10    1      0.34      0.00
  -10   11    1     -0.07      0.00
   -9   11    1     -0.12      0.00
   -8   11    1      0.42      0.00
   -7   11    1      0.93      0.00
   -6   11    1      0.36      0.00
   -5   11    1     -0.30      0.00
   -4   11    1      0.28      0.00
   -3   11    1      0.02      0.00
   -2   11    1      0.05      0.00
   -1   11    1     -1.26      0.00
    0   11    1      0.75      0.00
    1   11    1     -1.32      0.00
    2   11    1      0.12      0.00
    3   11    1     -0.19      0.00
    4   11    1      0.17      0.00
    5   11    1      0.19      0.00
    6   11    1     -0.95      0.00
    7   11    1      0.51      0.00
    8   11    1      0.58      0.00
    9   11    1      0.04      0.00
   10   11    1      0.30      0.00
   11   11    1      0.22      0.00
  -11   12    1      0.17      0.00
  -10   12    1      0.32      0.00
   -9   12    1     -0.32      0.00
   -8   12    1     -0.19      0.00
   -7   12    1      0.24      0.00
   -6   12    1      0.09      0.00
   -5   12    1      0.11      0.00
   -4   12    1      0.42      0.00
   -3   12    1     -0.40      0.00
   -2   12    1      0.93      0.00
   -1   12    1      0.07      0.00
    0   12    1      0.89      0.00
    1   12    1      0.29      0.00
    2   12    1      1.19      0.00
    3   12    1     -0.83      0.00
    4   12    1      0.01      0.00
    5   12    1      0.32      0.00
    6   12    1     -0.43      0.00
    7   12    1      0.13      0.00
    8   12    1      0.05      0.00
    9   12    1      0.00      0.00
   10   12    1      0.28      0.00
   11   12    1     -0.74      0.00
   12   12    1     -0.98      0.00
  -12   13    1     -0.24      0.00
  -11   13    1     -0.22      0.00
  -10   13    1      0.08      0.00
   -9   13    1      0.16      0.00
   -8   13    1     -0.46      0.00
   -7   13    1      0.09      0.00
   -6   13    1     -0.28      0.00
   -5   13    1     -0.15      0.00
   -4   13    1      0.42      0.00
   -3   13    1     -0.36      0.00
   -2   13    1      0.36      0.00
   -1   13    1      0.02      0.00
    0   13    1     -0.74      0.00
    1   13    1     -0.14      0.00
    2   13    1      0.30      0.00
    3   13    1     -0.50      0.00
    4   13    1      0.52      0.00
    5   13    1     -0.28      0.00
    6   13    1     -0.04      0.00
    7   13    1      0.06      0.00
    8   13    1     -0.75      0.00
    9   13    1      0.13      0.00
   10   13    1      0.16      0.00
   11   13    1     -0.31      0.00
   12   13    1      0.00      0.00
   13   13    1     -0.36      0.00
  -13   14    1     -0.23      0.00
  -12   14    1     -0.02      0.00
  -11   14    1      0.27      0.00
  -10   14    1     -0.11      0.00
   -9   14    1      0.03      0.00
   -8   14    1     -0.07      0.00
   -7   14    1      0.19      0.00
   -6   14    1      0.23      0.00
   -5   14    1      0.14      0.00
   -4   14    1      0.42      0.00
   -3   14    1      0.33      0.00
   -2   14    1     -0.50      0.00
   -1   14    1     -0.16      0.00
    0   14    1      0.02      0.00
    1   14    1     -0.56      0.00
    2   14    1     -0.33      0.00
    3   14    1      0.13      0.00
    4   14    1     -0.02      0.00
    5   14    1     -0.16      0.00
    6   14    1      0.48      0.00
    7   14    1      0.03      0.00
    8   14    1      0.00      0.00
    9   14    1      0.14      0.00
   10   14    1     -0.17      0.00
   11   14    1      0.28      0.00
   12   14    1     -0.36      0.00
   13   14    1     -0.31      0.00
   14   14    1      0.37      0.00
  -13   15    1      0.84      0.00
  -12   15    1      0.12      0.00
  -11   15    1     -0.40      0.00
  -10   15    1      0.45      0.00
   -9   15    1      0.22      0.00
   -8   15    1      0.02      0.00
   -7   15    1     -0.17      0.00
   -6   15    1     -0.14      0.00
   -5   15    1      0.22      0.00
   -4   15    1     -0.21      0.00
   -3   15    1      0.15      0.00
   -2   15    1      0.32      0.00
   -1   15    1      0.23      0.00
    0   15    1      0.52      0.00
    1   15    1      0.01      0.00
    2   15    1      0.29      0.00
    3   15    1      0.00      0.00
    4   15    1     -0.53      0.00
    5   15    1      0.05      0.00
    6   15    1      0.05      0.00
    7   15    1     -0.04      0.00
    8   15    1      0.19      0.00
    9   15    1     -0.25      0.00
   10   15    1     -0.06      0.00
   11   15    1     -0.05      0.00
   12   15    1      0.08      0.00
   13   15    1      0.86      0.00
  -11   16    1     -0.92      0.00
  -10   16    1     -0.34      0.00
   -9   16    1      0.38      0.00
   -8   16    1     -0.22      0.00
   -7   16    1     -0.39      0.00
   -6   16    1     -0.34      0.00
   -5   16    1     -0.26      0.00
   -4   16    1     -0.25      0.00
   -3   16    1     -0.17      0.00
   -2   16    1      0.11      0.00
   -1   16    1     -0.04      0.00
    0   16    1      0.05      0.00
    1   16    1     -0.04      0.00
    2   16    1      0.15      0.00
    3   16    1      0.37      0.00
    4   16    1      0.20      0.00
    5   16    1     -0.43      0.00
    6   16    1      0.00      0.00
    7   16    1      0.24      0.00
    8   16    1     -0.25      0.00
    9   16    1      0.00      0.00
   10   16    1      0.13      0.00
   11   16    1     -0.51      0.00
  -10   17    1     -0.20      0.00
   -9   17    1      0.43      0.00
   -8   17    1      0.05      0.00
   -7   17    1     -0.05      0.00
   -6   17    1      0.02      0.00
   -5   17    1     -0.22      0.00
   -4   17    1      0.58      0.00
   -3   17    1      0.39      0.00
   -2   17    1     -0.05      0.00
   -1   17    1      0.24      0.00
    0   17    1     -0.33      0.00
    1   17    1     -0.27      0.00
    2   17    1     -0.12      0.00
    3   17    1      0.13      0.00
    4   17    1      0.49      0.00
    5   17    1      0.08      0.00
    6   17    1     -0.06      0.00
    7   17    1     -0.21      0.00
    8   17    1     -0.02      0.00
    9   17    1     -0.20      0.00
   10   17    1      0.31      0.00
   -8   18    1      0.19      0.00
   -7   18    1      0.89      0.00
   -6   18    1      0.14      0.00
   -5   18    1     -0.77      0.00
   -4   18    1      0.06      0.00
   -3   18    1      0.34      0.00
   -2   18    1      0.03      0.00
   -1   18    1      0.64      0.00
    0   18    1     -0.05      0.00
    1   18    1      0.10      0.00
    2   18    1      0.36      0.00
    3   18    1     -0.19      0.00
    4   18    1     -0.07      0.00
    5   18    1      0.99      0.00
    6   18    1      0.40      0.00
    7   18    1     -0.09      0.00
    8   18    1      0.57      0.00
   -5   19    1      0.67      0.00
   -4   19    1      0.79      0.00
   -3   19    1     -0.10      0.00
   -2   19    1     -1.21      0.00
   -1   19    1     -0.38      0.00
    0   19    1      0.29      0.00
    1   19    1      0.22      0.00
    2   19    1      0.35      0.00
    3   19    1     -0.25      0.00
    4   19    1     -1.27      0.00
    5   19    1     -0.27      0.00
    0    1    2     -7.55      0.00
    1    1    2     -8.36      0.00
   -1    2    2     13.92      0.00
    1    2    2     14.08      0.00
    2    2    2     -9.37      0.00
   -2    3    2     -7.51      0.00
   -1    3    2     -1.47      0.00
    0    3    2    -12.53      0.00
    1    3    2     -1.58      0.00
    2    3    2     -7.25      0.00
    3    3    2     12.31      0.00
   -3    4    2      6.50      0.00
   -2    4    2      1.17      0.00
   -1    4    2     -0.67      0.00
    0    4    2    -15.19      0.00
    1    4    2     -0.70      0.00
    2    4    2      0.75      0.00
    3    4    2      6.88      0.00
    4    4    2     -4.03      0.00
   -4    5    2     -5.04      0.00
   -3    5    2     -5.71      0.00
   -2    5    2     -0.97      0.00
   -1    5    2      4.69      0.00
    0    5    2      7.14      0.00
    1    5    2      4.85      0.00
    2    5    2     -2.03      0.00
    3    5    2     -4.73      0.00
    4    5    2     -1.55      0.00
    5    5    2      2.53      0.00
   -5    6    2     -0.16      0.00
   -4    6    2      2.51      0.00
   -3    6    2     -0.22      0.00
   -2    6    2     -0.15      0.00
   -1    6    2     -0.99      0.00
    0    6    2      5.49      0.00
    1    6    2     -0.92      0.00
    2    6    2     -0.48      0.00
    3    6    2     -0.22      0.00
    4    6    2      3.66      0.00
    5    6    2      0.62      0.00
    6    6    2     -2.23      0.00
   -6    7    2     -0.58      0.00
   -5    7    2     -1.68      0.00
   -4    7    2      2.27      0.00
   -3    7    2      1.56      0.00
   -2    7    2      1.55      0.00
   -1    7    2     -1.68      0.00
    0    7    2     -1.61      0.00
    1    7    2     -2.00      0.00
    2    7    2      1.56      0.00
    3    7    2      1.72      0.00
    4    7    2      1.87      0.00
    5    7    2     -1.72      0.00
    6    7    2     -0.38      0.00
    7    7    2      0.80      0.00
   -7    8    2     -0.27      0.00
   -6    8    2      0.37      0.00
   -5    8    2      0.27      0.00
   -4    8    2     -0.04      0.00
   -3    8    2     -1.94      0.00
   -2    8    2     -0.64      0.00
   -1    8    2      1.57      0.00
    0    8    2     -1.54      0.00
    1    8    2      1.69      0.00
    2    8    2     -1.10      0.00
    3    8    2     -1.83      0.00
    4    8    2      0.00      0.00
    5    8    2      0.11      0.00
    6    8    2      0.32      0.00
    7    8    2     -0.06      0.00
    8    8    2     -0.06      0.00
   -8    9    2      0.30      0.00
   -7    9    2      0.03      0.00
   -6    9    2      0.33      0.00
   -5    9    2      0.38      0.00
   -4    9    2     -0.48      0.00
   -3    9    2     -0.29      0.00
   -2    9    2     -0.97      0.00
   -1    9    2      1.20      0.00
    0    9    2     -1.49      0.00
    1    9    2      1.32      0.00
    2    9    2     -1.24      0.00
    3    9    2     -0.21      0.00
    4    9    2     -0.67      0.00
    5    9    2      0.26      0.00
    6    9    2      0.27      0.00
    7    9    2      0.03      0.00
    8    9    2      0.35      0.00
    9    9    2      0.00      0.00
   -9   10    2      0.09      0.00
   -8   10    2      0.21      0.00
   -7   10    2     -0.16      0.00
   -6   10    2      0.05      0.00
   -5   10    2     -0.27      0.00
   -4   10    2     -0.51      0.00
   -3   10    2      1.37      0.00
   -2   10    2      0.15      0.00
   -1   10    2      0.06      0.00
    0   10    2     -0.02      0.00
    1   10    2     -0.04      0.00
    2   10    2      0.04      0.00
    3   10    2      1.35      0.00
    4   10    2     -0.68      0.00
    5   10    2      0.08      0.00
    6   10    2      0.11      0.00
    7   10    2      0.22      0.00
    8   10    2      0.26      0.00
    9   10    2     -0.13      0.00
   10   10    2     -0.37      0.00
  -10   11    2     -0.57      0.00
   -9   11    2      0.06      0.00
   -8   11    2      0.04      0.00
   -7   11    2      0.10      0.00
   -6   11    2      0.17      0.00
   -5   11    2     -0.19      0.00
   -4   11    2      0.19      0.00
   -3   11    2      0.47      0.00
   -2   11    2      0.31      0.00
   -1   11    2     -0.46      0.00
    0   11    2      0.88      0.00
    1   11    2     -0.64      0.00
    2   11    2      0.14      0.00
    3   11    2      0.29      0.00
    4   11    2      0.23      0.00
    5   11    2      0.36      0.00
    6   11    2     -0.70      0.00
    7   11    2      0.04      0.00
    8   11    2      0.22      0.00
    9   11    2     -0.08      0.00
   10   11    2      0.00      0.00
   11   11    2     -0.06      0.00
  -11   12    2      0.63      0.00
  -10   12    2     -0.19      0.00
   -9   12    2     -0.38      0.00
   -8   12    2     -0.05      0.00
   -7   12    2      0.25      0.00
   -6   12    2      0.08      0.00
   -5   12    2     -0.12      0.00
   -4   12    2      0.18      0.00
   -3   12    2     -0.56      0.00
   -2   12    2      0.59      0.00
   -1   12    2     -0.18      0.00
    0   12    2      0.48      0.00
    1   12    2     -0.27      0.00
    2   12    2      0.68      0.00
    3   12    2     -0.47      0.00
    4   12    2     -0.04      0.00
    5   12    2      0.01      0.00
    6   12    2     -0.35      0.00
    7   12    2      0.22      0.00
    8   12    2     -0.04      0.00
    9   12    2     -0.54      0.00
   10   12    2      0.75      0.00
   11   12    2      1.51      0.00
   12   12    2      0.23      0.00
  -12   13    2     -0.28      0.00
  -11   13    2      0.53      0.00
  -10   13    2     -0.11      0.00
   -9   13    2      0.17      0.00
   -8   13    2      0.24      0.00
   -7   13    2     -0.07      0.00
   -6   13    2      0.17      0.00
   -5   13    2      0.43      0.00
   -4   13    2     -0.04      0.00
   -3   13    2     -0.43      0.00
   -2   13    2      0.69      0.00
   -1   13    2     -0.34      0.00
    0   13    2     -0.58      0.00
    1   13    2     -0.36      0.00
    2   13    2      0.43      0.00
    3   13    2     -0.34      0.00
    4   13    2      0.20      0.00
    5   13    2      0.01      0.00
    6   13    2     -0.01      0.00
    7   13    2      0.04      0.00
    8   13    2      0.01      0.00
    9   13    2     -0.20      0.00
   10   13    2      0.38      0.00
   11   13    2      1.02      0.00
   12   13    2      0.24      0.00
   13   13    2     -0.09      0.00
  -13   14    2     -0.22      0.00
  -12   14    2      0.14      0.00
  -11   14    2      0.19      0.00
  -10   14    2      0.06      0.00
   -9   14    2      0.15      0.00
   -8   14    2     -0.24      0.00
   -7   14    2      0.08      0.00
   -6   14    2      0.24      0.00
   -5   14    2      0.01      0.00
   -4   14    2     -0.16      0.00
   -3   14    2     -0.06      0.00
   -2   14    2      0.24      0.00
   -1   14    2     -0.06      0.00
    0   14    2      0.00      0.00
    1   14    2      0.05      0.00
    2   14    2     -0.07      0.00
    3   14    2     -0.45      0.00
    4   14    2      0.13      0.00
    5   14    2      0.22      0.00
    6   14    2      0.12      0.00
    7   14    2      0.01      0.00
    8   14    2      0.24      0.00
    9   14    2      0.28      0.00
   10   14    2     -0.29      0.00
   11   14    2     -0.33      0.00
   12   14    2      0.11      0.00
   13   14    2     -0.03      0.00
  -12   15    2     -0.35      0.00
  -11   15    2     -0.16      0.00
  -10   15    2      0.07      0.00
   -9   15    2     -0.17      0.00
   -8   15    2     -0.05      0.00
   -7   15    2      0.27      0.00
   -6   15    2     -0.03      0.00
   -5   15    2     -0.42      0.00
   -4   15    2     -0.30      0.00
   -3   15    2      0.01      0.00
   -2   15    2      0.27      0.00
   -1   15    2      0.07      0.00
    0   15    2      0.19      0.00
    1   15    2      0.07      0.00
    2   15    2     -0.09      0.00
    3   15    2     -0.02      0.00
    4   15    2     -0.24      0.00
    5   15    2     -0.10      0.00
    6   15    2      0.03      0.00
    7   15    2      0.23      0.00
    8   15    2      0.25      0.00
    9   15    2     -0.20      0.00
   10   15    2     -0.35      0.00
   11   15    2     -0.10      0.00
   12   15    2      0.01      0.00
  -11   16    2     -0.52      0.00
  -10   16    2     -0.46      0.00
   -9   16    2      0.02      0.00
   -8   16    2      0.28      0.00
   -7   16    2     -0.07      0.00
   -6   16    2      0.11      0.00
   -5   16    2      0.04      0.00
   -4   16    2     -0.21      0.00
   -3   16    2     -0.10      0.00
   -2   16    2      0.33      0.00
   -1   16    2      0.00      0.00
    0   16    2     -0.05      0.00
    1   16    2      0.05      0.00
    2   16    2     -0.07      0.00
    3   16    2      0.47      0.00
    4   16    2      0.01      0.00
    5   16    2     -0.34      0.00
    6   16    2      0.26      0.00
    7   16    2      0.60      0.00
    8   16    2      0.27      0.00
    9   16    2     -0.01      0.00
   10   16    2      0.21      0.00
   11   16    2     -0.17      0.00
   -9   17    2      0.03      0.00
   -8   17    2     -0.45      0.00
   -7   17    2     -0.04      0.00
   -6   17    2     -0.02      0.00
   -5   17    2     -0.23      0.00
   -4   17    2      0.17      0.00
   -3   17    2     -0.16      0.00
   -2   17    2     -0.37      0.00
   -1   17    2      0.10      0.00
    0   17    2     -0.02      0.00
    1   17    2     -0.01      0.00
    2   17    2     -0.29      0.00
    3   17    2     -0.35      0.00
    4   17    2      0.02      0.00
    5   17    2      0.08      0.00
    6   17    2      0.27      0.00
    7   17    2      0.02      0.00
    8   17    2      0.14      0.00
    9   17    2      0.16      0.00
   -8   18    2     -0.67      0.00
   -7   18    2      0.25      0.00
   -6   18    2     -0.78      0.00
   -5   18    2     -1.00      0.00
   -4   18    2     -0.19      0.00
   -3   18    2      0.42      0.00
   -2   18    2      0.24      0.00
   -1   18    2      0.02      0.00
    0   18    2     -0.63      0.00
    1   18    2     -0.27      0.00
    2   18    2      0.44      0.00
    3   18    2     -0.47      0.00
    4   18    2      0.14      0.00
    5   18    2      1.02      0.00
    6   18    2      0.10      0.00
    7   18    2     -0.47      0.00
    8   18    2      0.48      0.00
   -5   19    2      0.84      0.00
   -4   19    2      0.19      0.00
   -3   19    2      0.34      0.00
   -2   19    2      0.19      0.00
   -1   19    2     -0.34      0.00
    0   19    2     -0.28      0.00
    1   19    2      0.02      0.00
    2   19    2      0.86      0.00
    3   19    2      0.14      0.00
    4   19    2      0.03      0.00
    5   19    2      0.74      0.00
    0    0    3     13.83      0.00
    0    1    3      0.49      0.00
    1    1    3     -3.20      0.00
   -1    2    3      3.69      0.00
    0    2    3     -2.76      0.00
    1    2    3      3.81      0.00
    2    2    3      5.06      0.00
   -2    3    3     -1.13      0.00
   -1    3    3     -0.65      0.00
    0    3    3    -11.18      0.00
    1    3    3     -0.36      0.00
    2    3    3     -0.97      0.00
    3    3    3      2.02      0.00
   -3    4    3      0.25      0.00
   -2    4    3     -4.38      0.00
   -1    4    3      3.95      0.00
    0    4    3      6.80      0.00
    1    4    3      4.12      0.00
    2    4    3     -4.44      0.00
    3    4    3     -0.11      0.00
    4    4    3     -3.94      0.00
   -4    5    3      0.08      0.00
   -3    5    3      2.14      0.00
   -2    5    3     -1.80      0.00
   -1    5    3     -0.21      0.00
    0    5    3      5.21      0.00
    1    5    3     -0.06      0.00
    2    5    3     -2.03      0.00
    3    5    3      1.95      0.00
    4    5    3      0.93      0.00
    5    5    3      0.26      0.00
   -5    6    3     -0.75      0.00
   -4    6    3      2.65      0.00
   -3    6    3      2.01      0.00
   -2    6    3      1.32      0.00
   -1    6    3     -3.68      0.00
    0    6    3     -3.22      0.00
    1    6    3     -3.65      0.00
    2    6    3      1.30      0.00
    3    6    3      1.69      0.00
    4    6    3      2.28      0.00
    5    6    3     -1.19      0.00
    6    6    3     -2.20      0.00
   -6    7    3      0.76      0.00
   -5    7    3     -0.29      0.00
   -4    7    3     -1.34      0.00
   -3    7    3     -2.61      0.00
   -2    7    3      0.55      0.00
   -1    7    3      0.08      0.00
    0    7    3      0.40      0.00
    1    7    3      0.14      0.00
    2    7    3      0.72      0.00
    3    7    3     -2.26      0.00
    4    7    3     -1.25      0.00
    5    7    3     -0.19      0.00
    6    7    3      0.67      0.00
    7    7    3      0.89      0.00
   -7    8    3      0.40      0.00
   -6    8    3      0.37      0.00
   -5    8    3      0.03      0.00
   -4    8    3     -0.17      0.00
   -3    8    3     -1.39      0.00
   -2    8    3      0.10      0.00
   -1    8    3      1.52      0.00
    0    8    3     -0.51      0.00
    1    8    3      1.80      0.00
    2    8    3      0.30      0.00
    3    8    3     -1.09      0.00
    4    8    3     -0.20      0.00
    5    8    3      0.24      0.00
    6    8    3      0.67      0.00
    7    8    3      0.67      0.00
    8    8    3     -0.59      0.00
   -8    9    3     -0.72      0.00
   -7    9    3      0.06      0.00
   -6    9    3      0.30      0.00
   -5    9    3     -0.60      0.00
   -4    9    3      0.53      0.00
   -3    9    3      1.28      0.00
   -2    9    3     -0.26      0.00
   -1    9    3      1.02      0.00
    0    9    3     -1.68      0.00
    1    9    3      0.97      0.00
    2    9    3     -0.09      0.00
    3    9    3      1.43      0.00
    4    9    3      0.13      0.00
    5    9    3     -0.63      0.00
    6    9    3      0.39      0.00
    7    9    3     -0.02      0.00
    8    9    3     -0.46      0.00
    9    9    3      0.31      0.00
   -9   10    3     -0.03      0.00
   -8   10    3      0.25      0.00
   -7   10    3     -0.48      0.00
   -6   10    3      0.39      0.00
   -5   10    3      0.18      0.00
   -4   10    3     -0.51      0.00
   -3   10    3      0.73      0.00
   -2   10    3     -0.67      0.00
   -1   10    3      0.57      0.00
    0   10    3      0.20      0.00
    1   10    3      0.53      0.00
    2   10    3     -0.60      0.00
    3   10    3      0.71      0.00
    4   10    3     -0.54      0.00
    5   10    3      0.42      0.00
    6   10    3      0.25      0.00
    7   10    3     -0.57      0.00
    8   10    3      0.31      0.00
    9   10    3      0.40      0.00
   10   10    3      0.13      0.00
  -10   11    3      0.23      0.00
   -9   11    3      0.06      0.00
   -8   11    3      0.06      0.00
   -7   11    3     -0.42      0.00
   -6   11    3     -0.11      0.00
   -5   11    3      0.62      0.00
   -4   11    3      0.42      0.00
   -3   11    3      0.04      0.00
   -2   11    3      0.02      0.00
   -1   11    3     -0.32      0.00
    0   11    3     -0.32      0.00
    1   11    3     -0.10      0.00
    2   11    3      0.48      0.00
    3   11    3      0.15      0.00
    4   11    3      0.05      0.00
    5   11    3      0.59      0.00
    6   11    3     -0.23      0.00
    7   11    3      0.09      0.00
    8   11    3      0.07      0.00
    9   11    3     -0.02      0.00
   10   11    3      0.39      0.00
   11   11    3     -0.25      0.00
  -11   12    3      0.32      0.00
  -10   12    3     -0.14      0.00
   -9   12    3      0.72      0.00
   -8   12    3      0.07      0.00
   -7   12    3     -0.25      0.00
   -6   12    3      0.45      0.00
   -5   12    3     -0.05      0.00
   -4   12    3      0.08      0.00
   -3   12    3     -0.03      0.00
   -2   12    3      0.57      0.00
   -1   12    3     -0.47      0.00
    0   12    3      0.06      0.00
    1   12    3     -0.65      0.00
    2   12    3      0.67      0.00
    3   12    3      0.17      0.00
    4   12    3     -0.24      0.00
    5   12    3      0.13      0.00
    6   12    3      0.32      0.00
    7   12    3     -0.39      0.00
    8   12    3     -0.15      0.00
    9   12    3      0.08      0.00
   10   12    3     -0.67      0.00
   11   12    3     -0.08      0.00
   12   12    3      0.43      0.00
  -12   13    3     -0.37      0.00
  -11   13    3      0.33      0.00
  -10   13    3     -0.22      0.00
   -9   13    3      0.00      0.00
   -8   13    3      0.43      0.00
   -7   13    3      0.06      0.00
   -6   13    3      0.05      0.00
   -5   13    3     -0.02      0.00
   -4   13    3      0.07      0.00
   -3   13    3     -0.08      0.00
   -2   13    3      0.16      0.00
   -1   13    3     -0.44      0.00
    0   13    3      0.63      0.00
    1   13    3     -0.55      0.00
    2   13    3      0.00      0.00
    3   13    3     -0.14      0.00
    4   13    3     -0.07      0.00
    5   13    3      0.06      0.00
    6   13    3     -0.20      0.00
    7   13    3     -0.47      0.00
    8   13    3      0.60      0.00
    9   13    3      0.31      0.00
   10   13    3     -0.12      0.00
   11   13    3     -0.06      0.00
   12   13    3     -0.48      0.00
   13   13    3      0.83      0.00
  -13   14    3      0.54      0.00
  -12   14    3     -0.04      0.00
  -11   14    3     -0.19      0.00
  -10   14    3      0.45      0.00
   -9   14    3      0.04      0.00
   -8   14    3     -0.32      0.00
   -7   14    3      0.37      0.00
   -6   14    3     -0.34      0.00
   -5   14    3     -0.38      0.00
   -4   14    3      0.39      0.00
   -3   14    3     -0.15      0.00
   -2   14    3     -0.22      0.00
   -1   14    3     -0.22      0.00
    0   14    3      0.09      0.00
    1   14    3     -0.03      0.00
    2   14    3      0.04      0.00
    3   14    3      0.05      0.00
    4   14    3      0.71      0.00
    5   14    3     -0.12      0.00
    6   14    3     -0.50      0.00
    7   14    3      0.29      0.00
    8   14    3     -0.03      0.00
    9   14    3      0.37      0.00
   10   14    3      0.90      0.00
   11   14    3     -0.20      0.00
   12   14    3     -0.09      0.00
   13   14    3      0.63      0.00
  -12   15    3     -0.01      0.00
  -11   15    3      0.26      0.00
  -10   15    3     -0.11      0.00
   -9   15    3      0.30      0.00
   -8   15    3      0.10      0.00
   -7   15    3     -0.09      0.00
   -6   15    3      0.07      0.00
   -5   15    3     -0.35      0.00
   -4   15    3     -0.05      0.00
   -3   15    3     -0.29      0.00
   -2   15    3     -0.29      0.00
   -1   15    3      0.00      0.00
    0   15    3     -0.10      0.00
    1   15    3      0.00      0.00
    2   15    3     -0.18      0.00
    3   15    3      0.06      0.00
    4   15    3     -0.09      0.00
    5   15    3     -0.02      0.00
    6   15    3      0.15      0.00
    7   15    3     -0.17      0.00
    8   15    3     -0.37      0.00
    9   15    3      0.33      0.00
   10   15    3     -0.18      0.00
   11   15    3     -0.29      0.00
   12   15    3      0.38      0.00
  -10   16    3      0.03      0.00
   -9   16    3     -0.47      0.00
   -8   16    3      0.16      0.00
   -7   16    3     -0.37      0.00
   -6   16    3      0.12      0.00
   -5   16    3      0.04      0.00
   -4   16    3      0.09      0.00
   -3   16    3     -0.07      0.00
   -2   16    3     -0.08      0.00
   -1   16    3      0.16      0.00
    0   16    3      0.12      0.00
    1   16    3     -0.04      0.00
    2   16    3     -0.64      0.00
    3   16    3      0.06      0.00
    4   16    3     -0.09      0.00
    5   16    3      0.12      0.00
    6   16    3      0.30      0.00
    7   16    3     -0.01      0.00
    8   16    3      0.13      0.00
    9   16    3      0.02      0.00
   10   16    3     -0.40      0.00
   11   16    3     -0.91      0.00
   -9   17    3     -0.45      0.00
   -8   17    3     -0.55      0.00
   -7   17    3      0.34      0.00
   -6   17    3      0.02      0.00
   -5   17    3     -0.15      0.00
   -4   17    3      0.74      0.00
   -3   17    3      0.30      0.00
   -2   17    3     -0.41      0.00
   -1   17    3     -0.04      0.00
    0   17    3      0.11      0.00
    1   17    3      0.35      0.00
    2   17    3      0.02      0.00
    3   17    3      0.03      0.00
    4   17    3      0.64      0.00
    5   17    3     -0.23      0.00
    6   17    3      0.02      0.00
    7   17    3      0.43      0.00
    8   17    3     -0.10      0.00
    9   17    3     -0.20      0.00
   -7   18    3      0.34      0.00
   -6   18    3     -0.32      0.00
   -5   18    3     -0.61      0.00
   -4   18    3     -0.69      0.00
   -3   18    3      0.13      0.00
   -2   18    3      0.20      0.00
   -1   18    3     -0.32      0.00
    0   18    3     -0.56      0.00
    1   18    3      0.32      0.00
    2   18    3      0.85      0.00
    3   18    3     -0.93      0.00
    4   18    3      0.01      0.00
    5   18    3     -0.01      0.00
    6   18    3     -0.17      0.00
    7   18    3     -0.09      0.00
   -4   19    3     -2.86      0.00
   -3   19    3     -1.44      0.00
   -2   19    3      0.30      0.00
   -1   19    3      0.26      0.00
    0   19    3      0.06      0.00
    1   19    3     -0.08      0.00
    2   19    3      0.38      0.00
    3   19    3     -1.22      0.00
    4   19    3     -0.99      0.00
    0    0    4     11.02      0.00
    0    1    4      3.43      0.00
    1    1    4      0.24      0.00
   -1    2    4      0.16      0.00
    0    2    4     -2.57      0.00
    1    2    4      0.19      0.00
    2    2    4      1.16      0.00
   -2    3    4     -1.95      0.00
   -1    3    4     -0.18      0.00
    0    3    4     -1.38      0.00
    1    3    4      0.13      0.00
    2    3    4     -1.94      0.00
    3    3    4     -0.15      0.00
   -3    4    4      2.65      0.00
   -2    4    4     -0.74      0.00
   -1    4    4      0.63      0.00
    0    4    4      4.72      0.00
    1    4    4      0.64      0.00
    2    4    4     -0.73      0.00
    3    4    4      2.50      0.00
    4    4    4     -2.34      0.00
   -4    5    4     -1.11      0.00
   -3    5    4      2.51      0.00
   -2    5    4      1.43      0.00
   -1    5    4     -2.32      0.00
    0    5    4     -1.46      0.00
    1    5    4     -2.35      0.00
    2    5    4      1.61      0.00
    3    5    4      2.53      0.00
    4    5    4     -0.68      0.00
    5    5    4      0.44      0.00
   -5    6    4      0.53      0.00
   -4    6    4      0.29      0.00
   -3    6    4     -1.57      0.00
   -2    6    4      0.02      0.00
   -1    6    4     -0.51      0.00
    0    6    4      0.01      0.00
    1    6    4     -0.80      0.00
    2    6    4     -0.03      0.00
    3    6    4     -1.57      0.00
    4    6    4      0.38      0.00
    5    6    4      0.45      0.00
    6    6    4     -0.39      0.00
   -6    7    4      0.34      0.00
   -5    7    4     -0.01      0.00
   -4    7    4     -0.78      0.00
   -3    7    4     -1.46      0.00
   -2    7    4     -0.10      0.00
   -1    7    4      0.21      0.00
    0    7    4      1.64      0.00
    1    7    4      0.21      0.00
    2    7    4     -0.11      0.00
    3    7    4     -1.39      0.00
    4    7    4     -0.68      0.00
    5    7    4      0.23      0.00
    6    7    4      0.26      0.00
    7    7    4      0.48      0.00
   -7    8    4      0.29      0.00
   -6    8    4     -0.52      0.00
   -5    8    4     -0.18      0.00
   -4    8    4      0.87      0.00
   -3    8    4      0.84      0.00
   -2    8    4      0.80      0.00
   -1    8    4     -0.22      0.00
    0    8    4     -2.03      0.00
    1    8    4     -0.16      0.00
    2    8    4      0.95      0.00
    3    8    4      0.75      0.00
    4    8    4      0.58      0.00
    5    8    4     -0.12      0.00
    6    8    4     -0.40      0.00
    7    8    4      0.46      0.00
    8    8    4     -0.39      0.00
   -8    9    4     -0.53      0.00
   -7    9    4     -0.33      0.00
   -6    9    4      0.19      0.00
   -5    9    4     -0.40      0.00
   -4    9    4      0.17      0.00
   -3    9    4      0.24      0.00
   -2    9    4     -0.74      0.00
   -1    9    4      1.08      0.00
    0    9    4     -0.64      0.00
    1    9    4      1.08      0.00
    2    9    4     -0.81      0.00
    3    9    4      0.19      0.00
    4    9    4      0.39      0.00
    5    9    4     -0.34      0.00
    6    9    4      0.12      0.00
    7    9    4     -0.21      0.00
    8    9    4     -0.48      0.00
    9    9    4      0.63      0.00
   -9   10    4     -0.05      0.00
   -8   10    4      0.47      0.00
   -7   10    4     -0.32      0.00
   -6   10    4      0.90      0.00
   -5   10    4      0.27      0.00
   -4   10    4     -0.94      0.00
   -3   10    4      0.27      0.00
   -2   10    4     -0.65      0.00
   -1   10    4      0.82      0.00
    0   10    4      0.07      0.00
    1   10    4      0.98      0.00
    2   10    4     -1.00      0.00
    3   10    4      0.09      0.00
    4   10    4     -0.41      0.00
    5   10    4      0.39      0.00
    6   10    4      0.56      0.00
    7   10    4     -0.50      0.00
    8   10    4      0.20      0.00
    9   10    4      0.08      0.00
   10   10    4     -0.14      0.00
  -10   11    4      0.47      0.00
   -9   11    4     -0.40      0.00
   -8   11    4      0.08      0.00
   -7   11    4      0.12      0.00
   -6   11    4     -0.25      0.00
   -5   11    4     -0.06      0.00
   -4   11    4      0.07      0.00
   -3   11    4      0.21      0.00
   -2   11    4      0.11      0.00
   -1   11    4     -0.23      0.00
    0   11    4     -1.07      0.00
    1   11    4      0.02      0.00
    2   11    4      0.28      0.00
    3   11    4      0.23      0.00
    4   11    4     -0.12      0.00
    5   11    4     -0.08      0.00
    6   11    4      0.01      0.00
    7   11    4      0.67      0.00
    8   11    4      0.03      0.00
    9   11    4     -0.39      0.00
   10   11    4      0.46      0.00
   11   11    4     -0.21      0.00
  -11   12    4      0.21      0.00
  -10   12    4     -0.04      0.00
   -9   12    4      0.53      0.00
   -8   12    4      0.03      0.00
   -7   12    4      0.05      0.00
   -6   12    4      0.29      0.00
   -5   12    4     -0.32      0.00
   -4   12    4      0.17      0.00
   -3   12    4     -0.29      0.00
   -2   12    4     -0.24      0.00
   -1   12    4     -0.35      0.00
    0   12    4      0.57      0.00
    1   12    4     -0.57      0.00
    2   12    4     -0.16      0.00
    3   12    4      0.08      0.00
    4   12    4      0.08      0.00
    5   12    4     -0.18      0.00
    6   12    4      0.05      0.00
    7   12    4     -0.20      0.00
    8   12    4     -0.30      0.00
    9   12    4      0.19      0.00
   10   12    4     -0.30      0.00
   11   12    4     -0.38      0.00
   12   12    4      0.47      0.00
  -12   13    4     -0.20      0.00
  -11   13    4     -0.10      0.00
  -10   13    4     -0.57      0.00
   -9   13    4      0.37      0.00
   -8   13    4      0.68      0.00
   -7   13    4     -0.14      0.00
   -6   13    4     -0.04      0.00
   -5   13    4      0.04      0.00
   -4   13    4      0.27      0.00
   -3   13    4      0.14      0.00
   -2   13    4     -0.07      0.00
   -1   13    4     -0.70      0.00
    0   13    4      0.93      0.00
    1   13    4     -0.24      0.00
    2   13    4      0.35      0.00
    3   13    4      0.12      0.00
    4   13    4     -0.40      0.00
    5   13    4     -0.07      0.00
    6   13    4     -0.06      0.00
    7   13    4     -0.52      0.00
    8   13    4      0.35      0.00
    9   13    4      0.20      0.00
   10   13    4     -0.08      0.00
   11   13    4      0.25      0.00
   12   13    4     -0.63      0.00
   13   13    4      0.27      0.00
  -12   14    4      0.00      0.00
  -11   14    4     -0.32      0.00
  -10   14    4      0.65      0.00
   -9   14    4      0.19      0.00
   -8   14    4     -0.50      0.00
   -7   14    4      0.10      0.00
   -6   14    4     -0.03      0.00
   -5   14    4     -0.10      0.00
   -4   14    4      0.08      0.00
   -3   14    4      0.00      0.00
   -2   14    4      0.33      0.00
   -1   14    4     -0.21      0.00
    0   14    4     -0.09      0.00
    1   14    4      0.05      0.00
    2   14    4      0.16      0.00
    3   14    4     -0.03      0.00
    4   14    4      0.58      0.00
    5   14    4     -0.08      0.00
    6   14    4     -0.32      0.00
    7   14    4      0.37      0.00
    8   14    4     -0.76      0.00
    9   14    4     -0.53      0.00
   10   14    4      0.79      0.00
   11   14    4      0.17      0.00
   12   14    4     -0.88      0.00
  -11   15    4     -0.02      0.00
  -10   15    4     -0.11      0.00
   -9   15    4      0.26      0.00
   -8   15    4     -0.11      0.00
   -7   15    4     -0.05      0.00
   -6   15    4      0.53      0.00
   -5   15    4     -0.15      0.00
   -4   15    4      0.02      0.00
   -3   15    4      0.11      0.00
   -2   15    4      0.09      0.00
   -1   15    4      0.25      0.00
    0   15    4     -0.09      0.00
    1   15    4      0.28      0.00
    2   15    4     -0.41      0.00
    3   15    4     -0.23      0.00
    4   15    4      0.18      0.00
    5   15    4     -0.21      0.00
    6   15    4      0.08      0.00
    7   15    4      0.40      0.00
    8   15    4     -0.85      0.00
    9   15    4     -0.35      0.00
   10   15    4      0.11      0.00
   11   15    4     -0.06      0.00
  -10   16    4     -0.45      0.00
   -9   16    4     -0.03      0.00
   -8   16    4      0.46      0.00
   -7   16    4     -0.80      0.00
   -6   16    4      0.34      0.00
   -5   16    4      0.16      0.00
   -4   16    4     -0.25      0.00
   -3   16    4     -0.21      0.00
   -2   16    4     -0.16      0.00
   -1   16    4      0.01      0.00
    0   16    4     -0.21      0.00
    1   16    4      0.18      0.00
    2   16    4     -0.47      0.00
    3   16    4     -0.33      0.00
    4   16    4     -0.57      0.00
    5   16    4     -0.18      0.00
    6   16    4      0.19      0.00
    7   16    4      0.14      0.00
    8   16    4      0.24      0.00
    9   16    4     -0.12      0.00
   10   16    4     -0.27      0.00
   -8   17    4      0.32      0.00
   -7   17    4     -0.28      0.00
   -6   17    4     -0.31      0.00
   -5   17    4     -0.27      0.00
   -4   17    4     -0.21      0.00
   -3   17    4     -0.66      0.00
   -2   17    4     -0.29      0.00
   -1   17    4      0.18      0.00
    0   17    4     -0.53      0.00
    1   17    4      0.01      0.00
    2   17    4      0.14      0.00
    3   17    4     -0.47      0.00
    4   17    4      0.37      0.00
    5   17    4     -0.18      0.00
    6   17    4     -0.05      0.00
    7   17    4      0.31      0.00
    8   17    4      0.10      0.00
   -6   18    4     -0.96      0.00
   -5   18    4      0.13      0.00
   -4   18    4      0.94      0.00
   -3   18    4      0.21      0.00
   -2   18    4      0.11      0.00
   -1   18    4      0.22      0.00
    0   18    4     -1.23      0.00
    1   18    4     -0.30      0.00
    2   18    4      1.04      0.00
    3   18    4     -1.02      0.00
    4   18    4      0.81      0.00
    5   18    4      0.31      0.00
    6   18    4     -0.26      0.00
    0    0    5     -6.96      0.00
    0    1    5      0.45      0.00
    1    1    5      1.61      0.00
   -1    2    5     -0.15      0.00
    0    2    5      1.80      0.00
    1    2    5     -0.18      0.00
    2    2    5     -0.49      0.00
   -2    3    5      0.48      0.00
   -1    3    5     -1.14      0.00
    0    3    5     -0.54      0.00
    1    3    5     -0.95      0.00
    2    3    5      0.42      0.00
    3    3    5      0.26      0.00
   -3    4    5      0.35      0.00
   -2    4    5      0.42      0.00
   -1    4    5     -0.70      0.00
    0    4    5      0.63      0.00
    1    4    5     -1.05      0.00
    2    4    5      0.30      0.00
    3    4    5      0.70      0.00
    4    4    5      0.01      0.00
   -4    5    5     -0.61      0.00
   -3    5    5     -0.44      0.00
   -2    5    5      0.00      0.00
   -1    5    5     -1.26      0.00
    0    5    5     -0.36      0.00
    1    5    5     -1.29      0.00
    2    5    5      0.13      0.00
    3    5    5     -0.18      0.00
    4    5    5     -0.11      0.00
    5    5    5      0.64      0.00
   -5    6    5     -0.06      0.00
   -4    6    5     -1.08      0.00
   -3    6    5     -0.77      0.00
   -2    6    5      0.45      0.00
   -1    6    5     -0.30      0.00
    0    6    5      0.28      0.00
    1    6    5     -0.30      0.00
    2    6    5      0.25      0.00
    3    6    5     -0.99      0.00
    4    6    5     -0.93      0.00
    5    6    5     -0.07      0.00
    6    6    5      0.40      0.00
   -6    7    5      0.19      0.00
   -5    7    5     -0.05      0.00
   -4    7    5      0.05      0.00
   -3    7    5      0.49      0.00
   -2    7    5      0.29      0.00
   -1    7    5     -0.70      0.00
    0    7    5      0.43      0.00
    1    7    5     -0.68      0.00
    2    7    5      0.48      0.00
    3    7    5      0.53      0.00
    4    7    5     -0.25      0.00
    5    7    5      0.06      0.00
    6    7    5      0.41      0.00
    7    7    5      0.13      0.00
   -7    8    5     -0.35      0.00
   -6    8    5     -0.38      0.00
   -5    8    5      0.43      0.00
   -4    8    5      0.34      0.00
   -3    8    5     -0.33      0.00
   -2    8    5     -0.09      0.00
   -1    8    5      0.18      0.00
    0    8    5      0.23      0.00
    1    8    5      0.01      0.00
    2    8    5      0.18      0.00
    3    8    5     -0.21      0.00
    4    8    5      0.12      0.00
    5    8    5      0.62      0.00
    6    8    5     -0.13      0.00
    7    8    5     -0.45      0.00
    8    8    5     -0.49      0.00
   -8    9    5      0.13      0.00
   -7    9    5     -0.18      0.00
   -6    9    5      0.05      0.00
   -5    9    5      0.19      0.00
   -4    9    5     -0.42      0.00
   -3    9    5     -0.80      0.00
   -2    9    5     -0.31      0.00
   -1    9    5      1.00      0.00
    0    9    5     -0.51      0.00
    1    9    5      1.14      0.00
    2    9    5     -0.28      0.00
    3    9    5     -0.75      0.00
    4    9    5      0.00      0.00
    5    9    5      0.19      0.00
    6    9    5     -0.17      0.00
    7    9    5     -0.18      0.00
    8    9    5      0.10      0.00
    9    9    5      0.14      0.00
   -9   10    5     -0.25      0.00
   -8   10    5      0.45      0.00
   -7   10    5      0.21      0.00
   -6   10    5      0.12      0.00
   -5   10    5      0.11      0.00
   -4   10    5      0.31      0.00
   -3   10    5      0.44      0.00
   -2   10    5     -0.73      0.00
   -1   10    5      0.39      0.00
    0   10    5     -1.07      0.00
    1   10    5      0.47      0.00
    2   10    5     -0.46      0.00
    3   10    5      0.82      0.00
    4   10    5      0.20      0.00
    5   10    5     -0.06      0.00
    6   10    5      0.11      0.00
    7   10    5     -0.07      0.00
    8   10    5      0.36      0.00
    9   10    5     -0.40      0.00
   10   10    5     -0.18      0.00
  -10   11    5      0.49      0.00
   -9   11    5     -0.34      0.00
   -8   11    5     -0.19      0.00
   -7   11    5     -0.13      0.00
   -6   11    5     -0.85      0.00
   -5   11    5     -0.21      0.00
   -4   11    5      0.75      0.00
   -3   11    5      0.46      0.00
   -2   11    5     -0.27      0.00
   -1   11    5      0.46      0.00
    0   11    5      0.06      0.00
    1   11    5      0.39      0.00
    2   11    5     -0.25      0.00
    3   11    5      0.57      0.00
    4   11    5     -0.10      0.00
    5   11    5     -0.11      0.00
    6   11    5      0.26      0.00
    7   11    5      0.15      0.00
    8   11    5     -0.33      0.00
    9   11    5     -0.41      0.00
   10   11    5      0.29      0.00
   11   11    5     -0.10      0.00
  -11   12    5      0.07      0.00
  -10   12    5     -0.35      0.00
   -9   12    5      0.05      0.00
   -8   12    5     -0.25      0.00
   -7   12    5     -0.17      0.00
   -6   12    5      0.21      0.00
   -5   12    5     -0.02      0.00
   -4   12    5      0.00      0.00
   -3   12    5     -0.06      0.00
   -2   12    5      0.55      0.00
   -1   12    5      0.20      0.00
    0   12    5      0.66      0.00
    1   12    5     -0.03      0.00
    2   12    5     -0.37      0.00
    3   12    5     -0.11      0.00
    4   12    5      0.32      0.00
    5   12    5      0.00      0.00
    6   12    5     -0.13      0.00
    7   12    5     -0.08      0.00
    8   12    5     -0.62      0.00
    9   12    5     -0.06      0.00
   10   12    5      0.36      0.00
   11   12    5     -0.50      0.00
   12   12    5      0.14      0.00
  -12   13    5      0.03      0.00
  -11   13    5     -0.60      0.00
  -10   13    5     -0.78      0.00
   -9   13    5      0.67      0.00
   -8   13    5      0.58      0.00
   -7   13    5     -0.07      0.00
   -6   13    5      0.22      0.00
   -5   13    5      0.02      0.00
   -4   13    5      0.05      0.00
   -3   13    5      0.05      0.00
   -2   13    5      0.38      0.00
   -1   13    5     -0.46      0.00
    0   13    5      0.41      0.00
    1   13    5     -0.10      0.00
    2   13    5      0.47      0.00
    3   13    5     -0.04      0.00
    4   13    5     -0.21      0.00
    5   13    5     -0.20      0.00
    6   13    5     -0.21      0.00
    7   13    5     -0.12      0.00
    8   13    5      0.49      0.00
    9   13    5      0.74      0.00
   10   13    5      0.16      0.00
   11   13    5     -0.23      0.00
   12   13    5     -0.60      0.00
   13   13    5      0.01      0.00
  -12   14    5     -0.17      0.00
  -11   14    5      0.13      0.00
  -10   14    5      0.62      0.00
   -9   14    5      0.02      0.00
   -8   14    5     -0.42      0.00
   -7   14    5     -0.16      0.00
   -6   14    5      0.01      0.00
   -5   14    5      0.34      0.00
   -4   14    5      0.21      0.00
   -3   14    5     -0.28      0.00
   -2   14    5      0.22      0.00
   -1   14    5      0.22      0.00
    0   14    5      0.09      0.00
    1   14    5     -0.11      0.00
    2   14    5      0.22      0.00
    3   14    5     -0.25      0.00
    4   14    5      0.09      0.00
    5   14    5      0.10      0.00
    6   14    5     -0.27      0.00
    7   14    5     -0.14      0.00
    8   14    5      0.34      0.00
    9   14    5      0.68      0.00
   10   14    5     -0.34      0.00
   11   14    5     -0.18      0.00
   12   14    5     -0.12      0.00
  -10   15    5      0.00      0.00
   -9   15    5     -0.28      0.00
   -8   15    5      0.06      0.00
   -7   15    5      0.04      0.00
   -6   15    5     -0.09      0.00
   -5   15    5     -0.24      0.00
   -4   15    5      0.24      0.00
   -3   15    5      0.25      0.00
   -2   15    5     -0.05      0.00
   -1   15    5      0.33      0.00
    0   15    5      0.01      0.00
    1   15    5      0.16      0.00
    2   15    5     -0.29      0.00
    3   15    5      0.22      0.00
    4   15    5      0.38      0.00
    5   15    5     -0.25      0.00
    6   15    5      0.20      0.00
    7   15    5      0.76      0.00
    8   15    5     -0.30      0.00
    9   15    5     -0.49      0.00
   10   15    5     -0.54      0.00
   -9   16    5     -0.24      0.00
   -8   16    5      0.42      0.00
   -7   16    5     -0.15      0.00
   -6   16    5      0.35      0.00
   -5   16    5     -0.26      0.00
   -4   16    5     -0.09      0.00
   -3   16    5     -0.03      0.00
   -2   16    5     -0.68      0.00
   -1   16    5     -0.18      0.00
    0   16    5     -0.05      0.00
    1   16    5      0.05      0.00
    2   16    5     -0.41      0.00
    3   16    5      0.73      0.00
    4   16    5      0.11      0.00
    5   16    5     -0.85      0.00
    6   16    5      0.08      0.00
    7   16    5      0.85      0.00
    8   16    5     -0.29      0.00
    9   16    5     -1.37      0.00
   -7   17    5      0.27      0.00
   -6   17    5      0.06      0.00
   -5   17    5     -0.35      0.00
   -4   17    5      0.04      0.00
   -3   17    5     -0.41      0.00
   -2   17    5     -0.24      0.00
   -1   17    5      0.36      0.00
    0   17    5     -0.22      0.00
    1   17    5      0.11      0.00
    2   17    5      0.23      0.00
    3   17    5     -0.12      0.00
    4   17    5      0.61      0.00
    5   17    5     -0.25      0.00
    6   17    5     -0.44      0.00
    7   17    5      0.46      0.00
   -4   18    5      2.26      0.00
   -3   18    5      0.92      0.00
   -2   18    5      0.06      0.00
   -1   18    5      0.48      0.00
    0   18    5     -0.34      0.00
    1   18    5      0.31      0.00
    2   18    5      0.44      0.00
    3   18    5     -1.76      0.00
    4   18    5      0.88      0.00
    0    0    6     -6.34      0.00
    0    1    6      0.22      0.00
    1    1    6      2.39      0.00
   -1    2    6     -0.66      0.00
    0    2    6      0.02      0.00
    1    2    6     -0.56      0.00
    2    2    6      0.04      0.00
   -2    3    6      0.69      0.00
   -1    3    6     -1.15      0.00
    0    3    6     -0.07      0.00
    1    3    6     -0.88      0.00
    2    3    6      0.71      0.00
    3    3    6     -0.66      0.00
   -3    4    6     -0.64      0.00
   -2    4    6      0.42      0.00
   -1    4    6      0.01      0.00
    0    4    6      0.33      0.00
    1    4    6     -0.12      0.00
    2    4    6      0.25      0.00
    3    4    6     -0.69      0.00
    4    4    6      1.40      0.00
   -4    5    6      0.15      0.00
   -3    5    6     -0.29      0.00
   -2    5    6     -0.25      0.00
   -1    5    6     -0.48      0.00
    0    5    6      0.08      0.00
    1    5    6     -0.35      0.00
    2    5    6     -0.04      0.00
    3    5    6     -0.55      0.00
    4    5    6     -0.20      0.00
    5    5    6     -0.27      0.00
   -5    6    6      0.34      0.00
   -4    6    6     -0.59      0.00
   -3    6    6      0.30      0.00
   -2    6    6      0.42      0.00
   -1    6    6     -0.26      0.00
    0    6    6      0.60      0.00
    1    6    6     -0.39      0.00
    2    6    6      0.52      0.00
    3    6    6      0.11      0.00
    4    6    6     -0.81      0.00
    5    6    6      0.16      0.00
    6    6    6      0.58      0.00
   -6    7    6     -0.31      0.00
   -5    7    6      0.10      0.00
   -4    7    6      0.18      0.00
   -3    7    6      0.25      0.00
   -2    7    6      0.01      0.00
   -1    7    6     -0.48      0.00
    0    7    6      1.04      0.00
    1    7    6     -0.53      0.00
    2    7    6      0.21      0.00
    3    7    6      0.33      0.00
    4    7    6      0.23      0.00
    5    7    6      0.40      0.00
    6    7    6     -0.16      0.00
    7    7    6     -0.41      0.00
   -7    8    6     -0.28      0.00
   -6    8    6     -0.22      0.00
   -5    8    6     -0.31      0.00
   -4    8    6     -0.37      0.00
   -3    8    6      0.09      0.00
   -2    8    6     -0.11      0.00
   -1    8    6     -0.62      0.00
    0    8    6      0.70      0.00
    1    8    6     -0.55      0.00
    2    8    6     -0.03      0.00
    3    8    6      0.19      0.00
    4    8    6      0.10      0.00
    5    8    6      0.31      0.00
    6    8    6     -0.09      0.00
    7    8    6     -0.35      0.00
    8    8    6     -0.05      0.00
   -8    9    6     -0.35      0.00
   -7    9    6     -0.12      0.00
   -6    9    6      0.07      0.00
   -5    9    6      0.39      0.00
   -4    9    6      0.06      0.00
   -3    9    6      0.16      0.00
   -2    9    6      0.30      0.00
   -1    9    6      0.24      0.00
    0    9    6     -0.54      0.00
    1    9    6      0.26      0.00
    2    9    6      0.36      0.00
    3    9    6      0.19      0.00
    4    9    6      0.24      0.00
    5    9    6      0.40      0.00
    6    9    6      0.05      0.00
    7    9    6      0.21      0.00
    8    9    6      0.30      0.00
    9    9    6     -0.64      0.00
   -9   10    6     -0.27      0.00
   -8   10    6     -0.47      0.00
   -7   10    6      0.29      0.00
   -6   10    6      0.07      0.00
   -5   10    6      0.14      0.00
   -4   10    6      0.10      0.00
   -3   10    6     -0.25      0.00
   -2   10    6     -0.43      0.00
   -1   10    6      0.55      0.00
    0   10    6     -0.65      0.00
    1   10    6      0.74      0.00
    2   10    6     -0.41      0.00
    3   10    6      0.15      0.00
    4   10    6     -0.21      0.00
    5   10    6     -0.39      0.00
    6   10    6      0.09      0.00
    7   10    6      0.16      0.00
    8   10    6      0.06      0.00
    9   10    6     -0.04      0.00
   10   10    6      0.57      0.00
  -10   11    6      0.09      0.00
   -9   11    6     -0.24      0.00
   -8   11    6     -0.05      0.00
   -7   11    6      0.30      0.00
   -6   11    6     -0.26      0.00
   -5   11    6     -0.37      0.00
   -4   11    6     -0.32      0.00
   -3   11    6      0.23      0.00
   -2   11    6      0.00      0.00
   -1   11    6      0.21      0.00
    0   11    6     -0.01      0.00
    1   11    6      0.45      0.00
    2   11    6     -0.42      0.00
    3   11    6      0.78      0.00
    4   11    6     -0.74      0.00
    5   11    6     -0.98      0.00
    6   11    6     -0.18      0.00
    7   11    6     -0.24      0.00
    8   11    6      0.02      0.00
    9   11    6      0.13      0.00
   10   11    6      0.26      0.00
   11   11    6      0.22      0.00
  -11   12    6      0.39      0.00
  -10   12    6     -0.55      0.00
   -9   12    6     -0.69      0.00
   -8   12    6     -0.30      0.00
   -7   12    6      0.35      0.00
   -6   12    6      0.27      0.00
   -5   12    6     -0.02      0.00
   -4   12    6     -0.04      0.00
   -3   12    6      0.03      0.00
   -2   12    6      0.31      0.00
   -1   12    6     -0.20      0.00
    0   12    6     -0.42      0.00
    1   12    6     -0.36      0.00
    2   12    6      0.47      0.00
    3   12    6      0.78      0.00
    4   12    6      0.04      0.00
    5   12    6     -0.02      0.00
    6   12    6     -0.13      0.00
    7   12    6      0.19      0.00
    8   12    6      0.08      0.00
    9   12    6     -0.37      0.00
   10   12    6      0.01      0.00
   11   12    6      0.04      0.00
   12   12    6      0.60      0.00
  -12   13    6      0.54      0.00
  -11   13    6     -0.02      0.00
  -10   13    6     -0.13      0.00
   -9   13    6      0.50      0.00
   -8   13    6     -0.28      0.00
   -7   13    6     -0.01      0.00
   -6   13    6      0.20      0.00
   -5   13    6     -0.60      0.00
   -4   13    6      0.00      0.00
   -3   13    6     -0.10      0.00
   -2   13    6      0.04      0.00
   -1   13    6     -0.20      0.00
    0   13    6      0.09      0.00
    1   13    6     -0.08      0.00
    2   13    6      0.71      0.00
    3   13    6      0.14      0.00
    4   13    6      0.40      0.00
    5   13    6      0.30      0.00
    6   13    6      0.35      0.00
    7   13    6      0.30      0.00
    8   13    6     -0.17      0.00
    9   13    6      0.30      0.00
   10   13    6      0.42      0.00
   11   13    6      0.27      0.00
   12   13    6      0.03      0.00
  -10   14    6      0.49      0.00
   -9   14    6      0.05      0.00
   -8   14    6     -0.34      0.00
   -7   14    6     -0.15      0.00
   -6   14    6      0.38      0.00
   -5   14    6      0.14      0.00
   -4   14    6     -0.05      0.00
   -3   14    6     -0.01      0.00
   -2   14    6      0.22      0.00
   -1   14    6     -0.02      0.00
    0   14    6      0.02      0.00
    1   14    6     -0.29      0.00
    2   14    6     -0.09      0.00
    3   14    6      0.12      0.00
    4   14    6      0.26      0.00
    5   14    6     -0.73      0.00
    6   14    6     -0.41      0.00
    7   14    6     -0.29      0.00
    8   14    6     -0.32      0.00
    9   14    6      0.71      0.00
   10   14    6      0.20      0.00
   -9   15    6     -0.08      0.00
   -8   15    6      0.23      0.00
   -7   15    6      0.13      0.00
   -6   15    6      0.09      0.00
   -5   15    6     -0.04      0.00
   -4   15    6     -0.36      0.00
   -3   15    6     -0.11      0.00
   -2   15    6      0.20      0.00
   -1   15    6      0.26      0.00
    0   15    6     -0.47      0.00
    1   15    6     -0.10      0.00
    2   15    6     -0.22      0.00
    3   15    6      0.06      0.00
    4   15    6      0.08      0.00
    5   15    6     -0.17      0.00
    6   15    6      0.13      0.00
    7   15    6     -0.09      0.00
    8   15    6     -0.37      0.00
    9   15    6      0.65      0.00
   -7   16    6     -0.07      0.00
   -6   16    6      0.23      0.00
   -5   16    6     -0.25      0.00
   -4   16    6      0.09      0.00
   -3   16    6      0.18      0.00
   -2   16    6      0.04      0.00
   -1   16    6      0.52      0.00
    0   16    6     -0.25      0.00
    1   16    6      0.24      0.00
    2   16    6      0.14      0.00
    3   16    6      0.01      0.00
    4   16    6     -0.27      0.00
    5   16    6      0.61      0.00
    6   16    6      0.69      0.00
    7   16    6     -0.63      0.00
   -5   17    6     -0.30      0.00
   -4   17    6      0.17      0.00
   -3   17    6     -0.35      0.00
   -2   17    6     -0.19      0.00
   -1   17    6      0.52      0.00
    0   17    6     -0.13      0.00
    1   17    6     -0.25      0.00
    2   17    6      0.15      0.00
    3   17    6      0.15      0.00
    4   17    6      0.21      0.00
    5   17    6      0.39      0.00
    0    0    7     -1.24      0.00
    0    1    7     -0.15      0.00
    1    1    7      0.94      0.00
   -1    2    7     -0.84      0.00
    0    2    7     -0.71      0.00
    1    2    7     -0.52      0.00
    2    2    7     -0.48      0.00
   -2    3    7     -0.20      0.00
   -1    3    7     -0.34      0.00
    0    3    7      1.19      0.00
    1    3    7     -0.36      0.00
    2    3    7      0.04      0.00
    3    3    7     -0.34      0.00
   -3    4    7     -0.47      0.00
   -2    4    7      0.40      0.00
   -1    4    7      0.23      0.00
    0    4    7     -1.06      0.00
    1    4    7     -0.78      0.00
    2    4    7      0.37      0.00
    3    4    7     -0.02      0.00
    4    4    7      1.27      0.00
   -4    5    7     -0.38      0.00
   -3    5    7     -0.61      0.00
   -2    5    7      0.14      0.00
   -1    5    7      0.25      0.00
    0    5    7     -0.68      0.00
    1    5    7     -0.52      0.00
    2    5    7      0.29      0.00
    3    5    7     -0.15      0.00
    4    5    7     -0.25      0.00
    5    5    7     -0.69      0.00
   -5    6    7      0.24      0.00
   -4    6    7     -0.39      0.00
   -3    6    7     -0.11      0.00
   -2    6    7      0.04      0.00
   -1    6    7      0.04      0.00
    0    6    7      0.98      0.00
    1    6    7     -0.34      0.00
    2    6    7      0.22      0.00
    3    6    7      0.14      0.00
    4    6    7      0.01      0.00
    5    6    7      0.43      0.00
    6    6    7     -0.18      0.00
   -6    7    7     -0.41      0.00
   -5    7    7      0.22      0.00
   -4    7    7      0.49      0.00
   -3    7    7     -0.10      0.00
   -2    7    7     -0.19      0.00
   -1    7    7     -0.21      0.00
    0    7    7      1.41      0.00
    1    7    7     -0.36      0.00
    2    7    7     -0.10      0.00
    3    7    7     -0.17      0.00
    4    7    7      0.57      0.00
    5    7    7      0.33      0.00
    6    7    7     -0.45      0.00
    7    7    7      0.03      0.00
   -7    8    7      0.16      0.00
   -6    8    7      0.27      0.00
   -5    8    7     -0.49      0.00
   -4    8    7     -0.58      0.00
   -3    8    7      0.44      0.00
   -2    8    7      0.29      0.00
   -1    8    7     -0.64      0.00
    0    8    7      0.92      0.00
    1    8    7     -0.71      0.00
    2    8    7     -0.01      0.00
    3    8    7      0.40      0.00
    4    8    7      0.01      0.00
    5    8    7     -0.05      0.00
    6    8    7      0.32      0.00
    7    8    7      0.36      0.00
    8    8    7      0.47      0.00
   -8    9    7      0.20      0.00
   -7    9    7      0.17      0.00
   -6    9    7     -0.11      0.00
   -5    9    7     -0.08      0.00
   -4    9    7     -0.33      0.00
   -3    9    7      0.11      0.00
   -2    9    7      0.19      0.00
   -1    9    7     -0.25      0.00
    0    9    7     -0.29      0.00
    1    9    7     -0.51      0.00
    2    9    7      0.17      0.00
    3    9    7      0.02      0.00
    4    9    7     -0.41      0.00
    5    9    7     -0.07      0.00
    6    9    7     -0.07      0.00
    7    9    7      0.05      0.00
    8    9    7      0.04      0.00
    9    9    7     -0.52      0.00
   -9   10    7      0.02      0.00
   -8   10    7     -0.23      0.00
   -7   10    7      0.27      0.00
   -6   10    7     -0.06      0.00
   -5   10    7      0.31      0.00
   -4   10    7      0.29      0.00
   -3   10    7     -0.15      0.00
   -2   10    7     -0.19      0.00
   -1   10    7      0.26      0.00
    0   10    7     -0.23      0.00
    1   10    7      0.62      0.00
    2   10    7     -0.31      0.00
    3   10    7     -0.01      0.00
    4   10    7      0.12      0.00
    5   10    7     -0.23      0.00
    6   10    7      0.01      0.00
    7   10    7      0.18      0.00
    8   10    7     -0.27      0.00
    9   10    7     -0.18      0.00
   10   10    7     -0.02      0.00
  -10   11    7     -0.24      0.00
   -9   11    7      0.03      0.00
   -8   11    7     -0.18      0.00
   -7   11    7     -0.36      0.00
   -6   11    7      0.21      0.00
   -5   11    7      0.63      0.00
   -4   11    7      0.17      0.00
   -3   11    7      1.07      0.00
   -2   11    7      0.71      0.00
   -1   11    7      0.29      0.00
    0   11    7      0.75      0.00
    1   11    7      0.86      0.00
    2   11    7     -0.50      0.00
    3   11    7      1.71      0.00
    4   11    7      1.28      0.00
    5   11    7      0.03      0.00
    6   11    7     -0.04      0.00
    7   11    7     -0.09      0.00
    8   11    7      0.35      0.00
    9   11    7     -0.13      0.00
   10   11    7     -0.37      0.00
   11   11    7      0.61      0.00
  -11   12    7      0.17      0.00
  -10   12    7      0.04      0.00
   -9   12    7      0.06      0.00
   -8   12    7      0.10      0.00
   -7   12    7     -0.13      0.00
   -6   12    7      0.03      0.00
   -5   12    7      0.51      0.00
   -4   12    7      0.02      0.00
   -3   12    7      0.04      0.00
   -2   12    7      0.14      0.00
   -1   12    7      0.05      0.00
    0   12    7      0.26      0.00
    1   12    7      0.15      0.00
    2   12    7      0.12      0.00
    3   12    7      0.59      0.00
    4   12    7      0.08      0.00
    5   12    7      0.05      0.00
    6   12    7      0.12      0.00
    7   12    7      0.39      0.00
    8   12    7      0.17      0.00
    9   12    7     -0.90      0.00
   10   12    7     -0.20      0.00
   11   12    7      0.55      0.00
  -10   13    7     -0.17      0.00
   -9   13    7      1.15      0.00
   -8   13    7      0.04      0.00
   -7   13    7     -0.46      0.00
   -6   13    7     -0.09      0.00
   -5   13    7      0.05      0.00
   -4   13    7      0.27      0.00
   -3   13    7     -0.54      0.00
   -2   13    7     -0.45      0.00
   -1   13    7     -0.05      0.00
    0   13    7     -0.01      0.00
    1   13    7     -0.08      0.00
    2   13    7      0.31      0.00
    3   13    7     -0.43      0.00
    4   13    7     -0.04      0.00
    5   13    7     -0.04      0.00
    6   13    7      0.22      0.00
    7   13    7      0.08      0.00
    8   13    7     -0.58      0.00
    9   13    7      0.32      0.00
   10   13    7      0.55      0.00
   -9   14    7      0.40      0.00
   -8   14    7     -0.04      0.00
   -7   14    7     -0.48      0.00
   -6   14    7      0.72      0.00
   -5   14    7      1.18      0.00
   -4   14    7      0.71      0.00
   -3   14    7     -0.04      0.00
   -2   14    7     -0.20      0.00
   -1   14    7     -0.06      0.00
    0   14    7      0.17      0.00
    1   14    7      0.08      0.00
    2   14    7      0.13      0.00
    3   14    7      0.21      0.00
    4   14    7      0.26      0.00
    5   14    7     -0.67      0.00
    6   14    7     -0.37      0.00
    7   14    7     -0.40      0.00
    8   14    7     -0.50      0.00
    9   14    7      0.30      0.00
   -7   15    7      0.42      0.00
   -6   15    7      0.34      0.00
   -5   15    7     -0.27      0.00
   -4   15    7     -0.54      0.00
   -3   15    7     -0.01      0.00
   -2   15    7     -0.07      0.00
   -1   15    7     -0.07      0.00
    0   15    7     -0.14      0.00
    1   15    7      0.42      0.00
    2   15    7     -0.05      0.00
    3   15    7      0.04      0.00
    4   15    7      0.54      0.00
    5   15    7      0.26      0.00
    6   15    7      0.07      0.00
    7   15    7      0.51      0.00
   -5   16    7     -1.68      0.00
   -4   16    7     -0.39      0.00
   -3   16    7      1.13      0.00
   -2   16    7      0.39      0.00
   -1   16    7     -0.26      0.00
    0   16    7     -0.52      0.00
    1   16    7      0.71      0.00
    2   16    7      0.31      0.00
    3   16    7     -0.09      0.00
    4   16    7      0.17      0.00
    5   16    7      0.13      0.00
    0    0    8      1.97      0.00
    0    1    8     -0.45      0.00
    1    1    8     -0.42      0.00
   -1    2    8      0.10      0.00
    0    2    8     -0.31      0.00
    1    2    8      0.19      0.00
    2    2    8      0.05      0.00
   -2    3    8     -0.11      0.00
   -1    3    8      0.45      0.00
    0    3    8      1.00      0.00
    1    3    8      0.42      0.00
    2    3    8      0.09      0.00
    3    3    8      0.05      0.00
   -3    4    8     -0.52      0.00
   -2    4    8     -0.33      0.00
   -1    4    8     -0.19      0.00
    0    4    8     -1.10      0.00
    1    4    8     -0.34      0.00
    2    4    8      0.07      0.00
    3    4    8     -0.28      0.00
    4    4    8      0.44      0.00
   -4    5    8      0.26      0.00
   -3    5    8     -0.30      0.00
   -2    5    8      0.02      0.00
   -1    5    8      0.59      0.00
    0    5    8      0.43      0.00
    1    5    8      0.43      0.00
    2    5    8      0.24      0.00
    3    5    8     -0.33      0.00
    4    5    8     -0.02      0.00
    5    5    8     -0.27      0.00
   -5    6    8      0.01      0.00
   -4    6    8      0.08      0.00
   -3    6    8     -0.03      0.00
   -2    6    8      0.38      0.00
   -1    6    8     -0.20      0.00
    0    6    8      0.27      0.00
    1    6    8     -0.21      0.00
    2    6    8      0.29      0.00
    3    6    8     -0.24      0.00
    4    6    8      0.20      0.00
    5    6    8      0.07      0.00
    6    6    8     -0.36      0.00
   -6    7    8      0.08      0.00
   -5    7    8     -0.11      0.00
   -4    7    8      0.17      0.00
   -3    7    8     -0.33      0.00
   -2    7    8     -0.13      0.00
   -1    7    8     -0.97      0.00
    0    7    8     -0.18      0.00
    1    7    8     -0.38      0.00
    2    7    8      0.25      0.00
    3    7    8     -0.58      0.00
    4    7    8     -0.25      0.00
    5    7    8     -0.37      0.00
    6    7    8      0.01      0.00
    7    7    8      0.56      0.00
   -7    8    8     -0.51      0.00
   -6    8    8      0.18      0.00
   -5    8    8     -0.04      0.00
   -4    8    8      0.00      0.00
   -3    8    8      0.01      0.00
   -2    8    8     -0.17      0.00
   -1    8    8     -0.35      0.00
    0    8    8      0.94      0.00
    1    8    8     -0.14      0.00
    2    8    8      0.12      0.00
    3    8    8      0.21      0.00
    4    8    8     -0.18      0.00
    5    8    8      0.02      0.00
    6    8    8      0.53      0.00
    7    8    8     -0.08      0.00
    8    8    8     -0.37      0.00
   -8    9    8      0.39      0.00
   -7    9    8     -0.15      0.00
   -6    9    8     -0.30      0.00
   -5    9    8     -0.04      0.00
   -4    9    8     -0.20      0.00
   -3    9    8     -0.24      0.00
   -2    9    8      0.09      0.00
   -1    9    8      0.22      0.00
    0    9    8      0.26      0.00
    1    9    8     -0.43      0.00
    2    9    8      0.41      0.00
    3    9    8      0.05      0.00
    4    9    8     -0.64      0.00
    5    9    8     -0.12      0.00
    6    9    8     -0.13      0.00
    7    9    8     -0.44      0.00
    8    9    8     -0.47      0.00
    9    9    8      0.04      0.00
   -9   10    8      0.07      0.00
   -8   10    8      0.00      0.00
   -7   10    8      0.93      0.00
   -6   10    8      0.18      0.00
   -5   10    8     -0.35      0.00
   -4   10    8     -0.12      0.00
   -3   10    8     -0.09      0.00
   -2   10    8     -0.07      0.00
   -1   10    8     -0.25      0.00
    0   10    8     -0.15      0.00
    1   10    8      0.69      0.00
    2   10    8      0.59      0.00
    3   10    8      0.15      0.00
    4   10    8      0.23      0.00
    5   10    8     -0.29      0.00
    6   10    8     -0.05      0.00
    7   10    8      0.46      0.00
    8   10    8     -0.26      0.00
    9   10    8     -0.08      0.00
   10   10    8     -0.07      0.00
  -10   11    8     -0.17      0.00
   -9   11    8      0.03      0.00
   -8   11    8     -0.34      0.00
   -7   11    8     -0.09      0.00
   -6   11    8      0.08      0.00
   -5   11    8      0.13      0.00
   -4   11    8      0.54      0.00
   -3   11    8      1.12      0.00
   -2   11    8     -0.11      0.00
   -1   11    8     -0.99      0.00
    0   11    8      0.38      0.00
    1   11    8      0.79      0.00
    2   11    8     -0.94      0.00
    3   11    8      0.95      0.00
    4   11    8      2.28      0.00
    5   11    8      0.30      0.00
    6   11    8     -0.64      0.00
    7   11    8     -0.29      0.00
    8   11    8      0.64      0.00
    9   11    8      0.23      0.00
   10   11    8     -0.66      0.00
   11   11    8      0.13      0.00
  -10   12    8      0.24      0.00
   -9   12    8      0.27      0.00
   -8   12    8      0.20      0.00
   -7   12    8     -0.25      0.00
   -6   12    8     -0.05      0.00
   -5   12    8      0.50      0.00
   -4   12    8      0.02      0.00
   -3   12    8      0.45      0.00
   -2   12    8      0.26      0.00
   -1   12    8     -0.27      0.00
    0   12    8      0.23      0.00
    1   12    8     -0.03      0.00
    2   12    8     -1.26      0.00
    3   12    8     -0.68      0.00
    4   12    8      0.04      0.00
    5   12    8     -0.03      0.00
    6   12    8     -0.16      0.00
    7   12    8     -0.40      0.00
    8   12    8      0.07      0.00
    9   12    8     -0.63      0.00
   10   12    8     -1.14      0.00
   -9   13    8     -0.22      0.00
   -8   13    8     -0.13      0.00
   -7   13    8      0.13      0.00
   -6   13    8     -0.07      0.00
   -5   13    8     -0.39      0.00
   -4   13    8     -0.52      0.00
   -3   13    8      0.22      0.00
   -2   13    8      0.64      0.00
   -1   13    8      0.15      0.00
    0   13    8     -0.09      0.00
    1   13    8      0.00      0.00
    2   13    8      0.34      0.00
    3   13    8     -0.04      0.00
    4   13    8     -0.43      0.00
    5   13    8     -0.33      0.00
    6   13    8      0.20      0.00
    7   13    8     -0.17      0.00
    8   13    8     -0.26      0.00
    9   13    8      0.68      0.00
   -7   14    8      0.16      0.00
   -6   14    8     -0.38      0.00
   -5   14    8     -0.15      0.00
   -4   14    8      0.66      0.00
   -3   14    8      0.25      0.00
   -2   14    8     -0.55      0.00
   -1   14    8      0.04      0.00
    0   14    8      0.89      0.00
    1   14    8      0.85      0.00
    2   14    8      0.97      0.00
    3   14    8      0.95      0.00
    4   14    8     -0.07      0.00
    5   14    8     -0.57      0.00
    6   14    8     -0.33      0.00
    7   14    8     -0.57      0.00
   -5   15    8      0.34      0.00
   -4   15    8      0.64      0.00
   -3   15    8     -0.09      0.00
   -2   15    8     -0.70      0.00
   -1   15    8      0.32      0.00
    0   15    8      0.22      0.00
    1   15    8     -0.16      0.00
    2   15    8     -0.18      0.00
    3   15    8      0.10      0.00
    4   15    8      0.43      0.00
    5   15    8      0.99      0.00
    0    0    9      1.89      0.00
    0    1    9     -0.18      0.00
    1    1    9     -0.46      0.00
   -1    2    9      0.38      0.00
    0    2    9      0.45      0.00
    1    2    9      0.51      0.00
    2    2    9     -0.63      0.00
   -2    3    9     -0.36      0.00
   -1    3    9      0.17      0.00
    0    3    9     -0.17      0.00
    1    3    9      0.04      0.00
    2    3    9     -0.34      0.00
    3    3    9      0.71      0.00
   -3    4    9     -0.14      0.00
   -2    4    9     -0.10      0.00
   -1    4    9      0.03      0.00
    0    4    9     -0.43      0.00
    1    4    9      0.18      0.00
    2    4    9     -0.16      0.00
    3    4    9      0.19      0.00
    4    4    9     -0.01      0.00
   -4    5    9      0.14      0.00
   -3    5    9     -0.20      0.00
   -2    5    9      0.06      0.00
   -1    5    9      0.10      0.00
    0    5    9      0.43      0.00
    1    5    9      0.64      0.00
    2    5    9      0.15      0.00
    3    5    9     -0.33      0.00
    4    5    9      0.13      0.00
    5    5    9     -0.33      0.00
   -5    6    9     -0.13      0.00
   -4    6    9      0.86      0.00
   -3    6    9      0.34      0.00
   -2    6    9      0.25      0.00
   -1    6    9     -0.49      0.00
    0    6    9     -0.30      0.00
    1    6    9     -0.43      0.00
    2    6    9      0.22      0.00
    3    6    9     -0.15      0.00
    4    6    9      0.44      0.00
    5    6    9     -0.03      0.00
    6    6    9     -0.40      0.00
   -6    7    9     -0.09      0.00
   -5    7    9     -0.49      0.00
   -4    7    9     -0.12      0.00
   -3    7    9     -0.38      0.00
   -2    7    9      0.33      0.00
   -1    7    9     -0.08      0.00
    0    7    9     -0.10      0.00
    1    7    9     -0.33      0.00
    2    7    9     -0.08      0.00
    3    7    9     -0.39      0.00
    4    7    9     -0.38      0.00
    5    7    9     -0.44      0.00
    6    7    9     -0.01      0.00
    7    7    9      0.11      0.00
   -7    8    9     -0.09      0.00
   -6    8    9      0.32      0.00
   -5    8    9     -0.21      0.00
   -4    8    9     -0.49      0.00
   -3    8    9     -0.57      0.00
   -2    8    9      0.28      0.00
   -1    8    9      0.19      0.00
    0    8    9      0.29      0.00
    1    8    9      0.35      0.00
    2    8    9      0.23      0.00
    3    8    9      0.24      0.00
    4    8    9     -0.03      0.00
    5    8    9     -0.06      0.00
    6    8    9     -0.08      0.00
    7    8    9     -0.30      0.00
    8    8    9     -0.14      0.00
   -8    9    9      0.45      0.00
   -7    9    9      0.11      0.00
   -6    9    9      0.07      0.00
   -5    9    9      0.34      0.00
   -4    9    9      0.30      0.00
   -3    9    9      0.10      0.00
   -2    9    9      0.24      0.00
   -1    9    9     -0.32      0.00
    0    9    9     -0.24      0.00
    1    9    9     -0.20      0.00
    2    9    9      0.32      0.00
    3    9    9      0.10      0.00
    4    9    9     -0.04      0.00
    5    9    9      0.11      0.00
    6    9    9     -0.50      0.00
    7    9    9      0.01      0.00
    8    9    9      0.14      0.00
    9    9    9     -0.03      0.00
   -9   10    9     -0.51      0.00
   -8   10    9     -0.66      0.00
   -7   10    9      0.34      0.00
   -6   10    9      0.37      0.00
   -5   10    9      0.09      0.00
   -4   10    9     -0.05      0.00
   -3   10    9     -0.45      0.00
   -2   10    9      0.11      0.00
   -1   10    9      0.01      0.00
    0   10    9      0.06      0.00
    1   10    9     -0.06      0.00
    2   10    9      0.07      0.00
    3   10    9     -0.70      0.00
    4   10    9     -0.09      0.00
    5   10    9      0.44      0.00
    6   10    9      0.22      0.00
    7   10    9      0.12      0.00
    8   10    9     -0.18      0.00
    9   10    9     -0.41      0.00
   10   10    9     -0.63      0.00
   -9   11    9     -0.29      0.00
   -8   11    9     -0.69      0.00
   -7   11    9      0.48      0.00
   -6   11    9     -0.02      0.00
   -5   11    9     -0.44      0.00
   -4   11    9      0.19      0.00
   -3   11    9     -0.17      0.00
   -2   11    9     -0.12      0.00
   -1   11    9     -0.42      0.00
    0   11    9     -0.39      0.00
    1   11    9      0.22      0.00
    2   11    9      0.14      0.00
    3   11    9     -0.06      0.00
    4   11    9      0.16      0.00
    5   11    9     -0.59      0.00
    6   11    9      0.22      0.00
    7   11    9     -0.27      0.00
    8   11    9     -0.24      0.00
    9   11    9      0.54      0.00
   -8   12    9      0.51      0.00
   -7   12    9      0.35      0.00
   -6   12    9     -0.50      0.00
   -5   12    9      0.00      0.00
   -4   12    9      0.27      0.00
   -3   12    9      0.19      0.00
   -2   12    9      0.07      0.00
   -1   12    9     -0.42      0.00
    0   12    9     -0.10      0.00
    1   12    9      0.56      0.00
    2   12    9      0.14      0.00
    3   12    9      0.06      0.00
    4   12    9     -0.26      0.00
    5   12    9     -1.04      0.00
    6   12    9      0.34      0.00
    7   12    9     -0.09      0.00
    8   12    9     -0.95      0.00
   -6   13    9     -0.05      0.00
   -5   13    9      0.60      0.00
   -4   13    9     -0.28      0.00
   -3   13    9      0.16      0.00
   -2   13    9      0.81      0.00
   -1   13    9      0.13      0.00
    0   13    9     -0.12      0.00
    1   13    9      0.21      0.00
    2   13    9      0.65      0.00
    3   13    9      0.71      0.00
    4   13    9      0.31      0.00
    5   13    9      0.59      0.00
    6   13    9      0.54      0.00
   -4   14    9     -0.33      0.00
   -3   14    9     -0.39      0.00
   -2   14    9      0.17      0.00
   -1   14    9      0.68      0.00
    0   14    9      0.36      0.00
    1   14    9      0.16      0.00
    2   14    9      0.87      0.00
    3   14    9      0.58      0.00
    4   14    9     -1.13      0.00
    0    0   10     -0.09      0.00
    0    1   10      0.07      0.00
    1    1   10      0.02      0.00
   -1    2   10      0.63      0.00
    0    2   10      0.59      0.00
    1    2   10      0.30      0.00
    2    2   10     -0.31      0.00
   -2    3   10      0.37      0.00
   -1    3   10      0.51      0.00
    0    3   10     -1.32      0.00
    1    3   10     -0.33      0.00
    2    3   10      0.27      0.00
    3    3   10      0.52      0.00
   -3    4   10     -0.13      0.00
   -2    4   10      1.32      0.00
   -1    4   10      1.06      0.00
    0    4   10     -0.09      0.00
    1    4   10      0.47      0.00
    2    4   10      0.40      0.00
    3    4   10      0.80      0.00
    4    4   10     -0.12      0.00
   -4    5   10     -0.56      0.00
   -3    5   10     -0.19      0.00
   -2    5   10      0.86      0.00
   -1    5   10      0.29      0.00
    0    5   10     -0.03      0.00
    1    5   10     -0.01      0.00
    2    5   10     -0.42      0.00
    3    5   10     -0.08      0.00
    4    5   10      0.61      0.00
    5    5   10     -0.22      0.00
   -5    6   10     -0.18      0.00
   -4    6   10      0.45      0.00
   -3    6   10      0.12      0.00
   -2    6   10      0.23      0.00
   -1    6   10     -0.24      0.00
    0    6   10     -0.61      0.00
    1    6   10     -0.14      0.00
    2    6   10      0.27      0.00
    3    6   10     -0.16      0.00
    4    6   10      0.40      0.00
    5    6   10      0.00      0.00
    6    6   10     -0.32      0.00
   -6    7   10     -0.07      0.00
   -5    7   10     -0.56      0.00
   -4    7   10     -0.41      0.00
   -3    7   10     -0.20      0.00
   -2    7   10      0.56      0.00
   -1    7   10      0.23      0.00
    0    7   10      0.40      0.00
    1    7   10      1.02      0.00
    2    7   10      0.12      0.00
    3    7   10     -0.41      0.00
    4    7   10      0.22      0.00
    5    7   10      0.27      0.00
    6    7   10     -0.36      0.00
    7    7   10     -0.02      0.00
   -7    8   10      0.31      0.00
   -6    8   10      0.28      0.00
   -5    8   10      0.16      0.00
   -4    8   10      0.14      0.00
   -3    8   10     -0.23      0.00
   -2    8   10     -0.06      0.00
   -1    8   10     -0.10      0.00
    0    8   10      0.47      0.00
    1    8   10      0.64      0.00
    2    8   10     -0.10      0.00
    3    8   10     -0.21      0.00
    4    8   10     -0.01      0.00
    5    8   10      0.85      0.00
    6    8   10      0.11      0.00
    7    8   10     -0.41      0.00
    8    8   10     -0.04      0.00
   -8    9   10      0.14      0.00
   -7    9   10     -0.83      0.00
   -6    9   10     -0.32      0.00
   -5    9   10      1.08      0.00
   -4    9   10      1.42      0.00
   -3    9   10      0.33      0.00
   -2    9   10     -0.72      0.00
   -1    9   10     -0.98      0.00
    0    9   10     -0.23      0.00
    1    9   10     -1.12      0.00
    2    9   10     -0.25      0.00
    3    9   10      0.30      0.00
    4    9   10     -1.17      0.00
    5    9   10     -0.23      0.00
    6    9   10      0.54      0.00
    7    9   10      0.10      0.00
    8    9   10     -0.26      0.00
    9    9   10      0.23      0.00
   -8   10   10     -0.23      0.00
   -7   10   10     -0.22      0.00
   -6   10   10     -0.26      0.00
   -5   10   10      0.53      0.00
   -4   10   10      0.36      0.00
   -3   10   10     -0.57      0.00
   -2   10   10     -0.18      0.00
   -1   10   10     -0.13      0.00
    0   10   10      0.50      0.00
    1   10   10     -0.50      0.00
    2   10   10     -0.34      0.00
    3   10   10      0.59      0.00
    4   10   10      0.99      0.00
    5   10   10      0.42      0.00
    6   10   10     -0.21      0.00
    7   10   10     -0.44      0.00
    8   10   10     -0.45      0.00
   -7   11   10      1.68      0.00
   -6   11   10     -0.04      0.00
   -5   11   10     -0.13      0.00
   -4   11   10      0.86      0.00
   -3   11   10     -0.58      0.00
   -2   11   10     -0.05      0.00
   -1   11   10      0.73      0.00
    0   11   10      0.84      0.00
    1   11   10      0.77      0.00
    2   11   10      0.18      0.00
    3   11   10      0.32      0.00
    4   11   10      1.78      0.00
    5   11   10     -0.01      0.00
    6   11   10     -0.86      0.00
    7   11   10     -0.56      0.00
   -5   12   10     -0.10      0.00
   -4   12   10      1.00      0.00
   -3   12   10     -0.13      0.00
   -2   12   10     -0.64      0.00
   -1   12   10     -0.12      0.00
    0   12   10      0.00      0.00
    1   12   10     -0.33      0.00
    2   12   10     -0.54      0.00
    3   12   10      0.09      0.00
    4   12   10      0.41      0.00
    5   12   10     -1.20      0.00
   -1   13   10     -1.11      0.00
    0   13   10     -1.50      0.00
    1   13   10     -1.23      0.00
    0    0   11      0.02      0.00
    0    1   11      0.24      0.00
    1    1   11     -0.56      0.00
   -1    2   11     -0.66      0.00
    0    2   11     -0.14      0.00
    1    2   11     -1.22      0.00
    2    2   11     -0.93      0.00
   -2    3   11     -0.57      0.00
   -1    3   11     -0.60      0.00
    0    3   11     -0.20      0.00
    1    3   11     -0.68      0.00
    2    3   11     -0.93      0.00
    3    3   11     -0.41      0.00
   -3    4   11      0.25      0.00
   -2    4   11      0.21      0.00
   -1    4   11     -0.61      0.00
    0    4   11      0.55      0.00
    1    4   11      0.58      0.00
    2    4   11     -0.27      0.00
    3    4   11      0.78      0.00
    4    4   11      0.41      0.00
   -4    5   11     -0.90      0.00
   -3    5   11     -1.04      0.00
   -2    5   11     -0.41      0.00
   -1    5   11     -0.29      0.00
    0    5   11     -0.19      0.00
    1    5   11      0.11      0.00
    2    5   11     -0.75      0.00
    3    5   11     -0.31      0.00
    4    5   11      0.40      0.00
    5    5   11     -0.12      0.00
   -5    6   11      0.07      0.00
   -4    6   11      0.01      0.00
   -3    6   11     -1.01      0.00
   -2    6   11     -0.99      0.00
   -1    6   11      0.37      0.00
    0    6   11     -0.43      0.00
    1    6   11     -0.17      0.00
    2    6   11     -0.04      0.00
    3    6   11     -0.28      0.00
    4    6   11     -0.82      0.00
    5    6   11     -0.88      0.00
    6    6   11      0.04      0.00
   -6    7   11     -0.15      0.00
   -5    7   11     -0.04      0.00
   -4    7   11     -0.18      0.00
   -3    7   11      0.16      0.00
   -2    7   11      0.15      0.00
   -1    7   11      0.16      0.00
    0    7   11      0.28      0.00
    1    7   11      0.11      0.00
    2    7   11     -0.29      0.00
    3    7   11      0.08      0.00
    4    7   11     -0.01      0.00
    5    7   11      0.23      0.00
    6    7   11     -0.24      0.00
    7    7   11     -0.90      0.00
   -7    8   11     -0.42      0.00
   -6    8   11     -0.56      0.00
   -5    8   11     -0.49      0.00
   -4    8   11     -0.89      0.00
   -3    8   11     -0.32      0.00
   -2    8   11     -0.13      0.00
   -1    8   11     -0.48      0.00
    0    8   11      0.54      0.00
    1    8   11     -0.01      0.00
    2    8   11      0.04      0.00
    3    8   11      0.44      0.00
    4    8   11      0.47      0.00
    5    8   11      1.03      0.00
    6    8   11     -0.51      0.00
    7    8   11     -0.76      0.00
   -6    9   11      0.38      0.00
   -5    9   11     -0.57      0.00
   -4    9   11     -1.76      0.00
   -3    9   11     -1.02      0.00
   -2    9   11     -0.35      0.00
   -1    9   11     -0.53      0.00
    0    9   11      0.28      0.00
    1    9   11     -0.75      0.00
    2    9   11      0.33      0.00
    3    9   11      0.29      0.00
    4    9   11     -2.68      0.00
    5    9   11     -1.69      0.00
    6    9   11      0.49      0.00
   -4   10   11     -1.56      0.00
   -3   10   11     -0.44      0.00
   -2   10   11      0.65      0.00
   -1   10   11     -0.40      0.00
    0   10   11     -0.07      0.00
    1   10   11     -0.21      0.00
    2   10   11      0.33      0.00
    3   10   11      0.81      0.00
    4   10   11     -0.93      0.00
    0   11   11      0.25      0.00
    0    0   12     -0.92      0.00
    0    1   12     -0.20      0.00
    1    1   12     -0.73      0.00
   -1    2   12     -0.35      0.00
    0    2   12     -0.05      0.00
    1    2   12     -0.51      0.00
    2    2   12      1.68      0.00
   -2    3   12      0.56      0.00
   -1    3   12     -0.55      0.00
    0    3   12      1.10      0.00
    1    3   12     -0.08      0.00
    2    3   12     -0.14      0.00
    3    3   12     -1.12      0.00
   -3    4   12     -0.46      0.00
   -2    4   12      0.12      0.00
   -1    4   12     -1.68      0.00
    0    4   12     -0.16      0.00
    1    4   12     -0.31      0.00
    2    4   12     -0.23      0.00
    3    4   12     -0.35      0.00
    4    4   12     -1.75      0.00
   -4    5   12     -0.58      0.00
   -3    5   12      0.10      0.00
   -2    5   12      0.50      0.00
   -1    5   12     -0.21      0.00
    0    5   12     -0.71      0.00
    1    5   12      0.58      0.00
    2    5   12     -0.16      0.00
    3    5   12     -0.01      0.00
    4    5   12      0.81      0.00
    5    5   12      0.87      0.00
   -5    6   12     -0.67      0.00
   -4    6   12      0.90      0.00
   -3    6   12      0.24      0.00
   -2    6   12     -0.73      0.00
   -1    6   12      0.26      0.00
    0    6   12     -0.34      0.00
    1    6   12      0.79      0.00
    2    6   12     -0.45      0.00
    3    6   12      0.09      0.00
    4    6   12      1.08      0.00
    5    6   12     -0.66      0.00
   -4    7   12     -1.04      0.00
   -3    7   12      0.32      0.00
   -2    7   12     -0.55      0.00
   -1    7   12     -0.58      0.00
    0    7   12      0.08      0.00
    1    7   12     -0.36      0.00
    2    7   12     -0.12      0.00
    3    7   12      0.44      0.00
    4    7   12     -1.25      0.00
   -2    8   12     -0.08      0.00
   -1    8   12     -0.84      0.00
    0    8   12      0.60      0.00
    1    8   12     -0.44      0.00
    2    8   12      1.24      0.00
    0    0   13     -0.71      0.00
    0    1   13      1.34      0.00
    1    1   13     -0.94      0.00
   -1    2   13     -2.46      0.00
    0    2   13      1.74      0.00
    1    2   13     -2.14      0.00
    2    2   13     -1.48      0.00
   -1    3   13     -2.01      0.00
    0    3   13      1.33      0.00
    1    3   13     -0.37      0.00
    0    1    0     39.51      0.00
    1    1    0    -21.63      0.00
    0    3    0    -31.50      0.00
  -12   16    0      0.75      0.00
   12   16    0      1.01      0.00
   -1   20    0      0.64      0.00
    0   20    0      0.39      0.00
    1   20    0      0.18      0.00
    0    0    1     14.68      0.00
  -12   16    1      0.49      0.00
   12   16    1      0.08      0.00
   -6   19    1      0.16      0.00
    6   19    1      0.22      0.00
   -1   20    1      0.13      0.00
    0   20    1      0.16      0.00
    1   20    1     -0.35      0.00
    0    0    2     -6.08      0.00
    0    2    2     24.26      0.00
   14   14    2     -0.49      0.00
  -13   15    2     -0.18      0.00
   13   15    2     -0.10      0.00
  -10   17    2     -0.07      0.00
   10   17    2      0.22      0.00
  -11   16    3      0.70      0.00
  -13   14    4      0.85      0.00
   13   14    4     -0.09      0.00
   -2   19    4      0.27      0.00
   -1   19    4      0.45      0.00
    0   19    4     -0.55      0.00
    1   19    4     -0.56      0.00
    2   19    4      0.92      0.00
  -11   15    5      0.38      0.00
   11   15    5      0.18      0.00
  -11   14    6      0.49      0.00
   11   14    6      0.17      0.00
   -8   16    6     -0.09      0.00
    8   16    6     -0.84      0.00
   12   12    7      0.06      0.00
  -11   13    7     -0.92      0.00
   11   13    7      0.11      0.00
   -8   15    7      0.11      0.00
    8   15    7      0.44      0.00
   -1   17    7     -0.03      0.00
    0   17    7     -0.16      0.00
    1   17    7      0.13      0.00
   -1   16    8      0.24      0.00
    0   16    8     -0.64      0.00
    1   16    8     -0.41      0.00
   -7   13    9     -0.13      0.00
    7   13    9     -0.28      0.00
   -2   13   10      0.01      0.00
    2   13   10     -0.45      0.00
   -5   10   11     -0.33      0.00
    5   10   11     -1.11      0.00
   -2   11   11      0.47      0.00
   -1   11   11      0.12      0.00
    1   11   11      0.84      0.00
    2   11   11      0.24      0.00
    6    6   12     -1.56      0.00
   -5    7   12     -1.33      0.00
    5    7   12     -1.65      0.00
   -3    8   12      0.63      0.00
    3    8   12      1.67      0.00
   -2    3   13      0.58      0.00
    2    3   13      0.03      0.00
   -1    4   13     -1.64      0.00
    0    4   13      0.11      0.00
    1    4   13     -0.02      0.00
    0    0    0      0.00      0.00
# SQUEEZE RESULTS (Version = 230318)
# Note: Data are Listed for all Voids in the P1 Unit Cell
# i.e. Centre of Gravity, Solvent Accessible Volume,
# Recovered number of Electrons in the Void and
# Details about the Squeezed Material
loop_
  _platon_squeeze_void_nr
  _platon_squeeze_void_average_x
  _platon_squeeze_void_average_y
  _platon_squeeze_void_average_z
  _platon_squeeze_void_volume
  _platon_squeeze_void_count_electrons
  _platon_squeeze_void_content
   1 -0.003 -0.003 -0.018      1575       220 ' '
# Missing Reflections Below sin(th)/lambda = 0.25
loop_
  _platon_missing_refln_index_h
  _platon_missing_refln_index_k
  _platon_missing_refln_index_l
  _platon_missing_refln_theta
    0    1    0     1.325
    1    1    0     1.874
    0    3    0     3.978
    0    0    1     2.002
    0    0    2     4.006
    0    2    2     4.806
_platon_squeeze_void_probe_radius                  1.20
_platon_squeeze_details
)
TITL 20181016ZJU_EG_0m_a.res in P4/m
CELL   15.3693   15.3693   10.1723     90.00     90.00     90.00
SPGR P4/m
# Solvent Accessible Volume =      1580
# Electrons Found in S.A.V. =       217
# Note: Atoms in Void are Labelled as Cxxx and Qxxx for all Others
Q101 0.500 0.504 0.406 !       0.83 eA-3
C102 0.526 0.156-0.006 !       0.81 eA-3
C103 0.250 0.239 0.279 !       0.80 eA-3
C104 0.208 0.230 0.348 !       0.79 eA-3
C105 0.734 0.207 0.296 !       0.71 eA-3
C106 0.576 0.156 0.003 !       0.71 eA-3
C107 0.784 0.207 0.395 !       0.69 eA-3
Q108 0.500 0.496 0.312 !       0.67 eA-3
C109 0.738 0.137 0.326 !       0.63 eA-3
C110 0.201 0.797 0.505 !       0.63 eA-3
Q111 0.627 0.620 0.881 !       0.62 eA-3
Q112 0.448 0.516 0.492 !       0.60 eA-3
C113 0.222 0.163 0.457 !       0.58 eA-3
C114 0.204 0.861 0.453 !       0.55 eA-3
)
;
_shelx_fab_checksum              64642
loop_
_space_group_symop_operation_xyz
'x, y, z'
'-x, -y, z'
'-y, x, z'
'y, -x, z'
'-x, -y, -z'
'x, y, -z'
'y, -x, -z'
'-y, x, -z'
loop_
_atom_site_label
_atom_site_type_symbol
_atom_site_fract_x
_atom_site_fract_y
_atom_site_fract_z
_atom_site_U_iso_or_equiv
_atom_site_adp_type
_atom_site_occupancy
_atom_site_site_symmetry_order
_atom_site_calc_flag
_atom_site_refinement_flags_posn
_atom_site_refinement_flags_adp
_atom_site_refinement_flags_occupancy
_atom_site_disorder_assembly
_atom_site_disorder_group
B1 B 0.500000 0.500000 0.1637(4) 0.0389(10) Uani 1 4 d S TU P . .
H1F H 0.500000 0.500000 0.247768 0.047 Uiso 1 4 d R U P . .
B2 B 0.5233(11) 0.4078(4) 0.0741(5) 0.0774(16) Uani 0.625 1 d . U P . .
B3 B 0.4492(10) 0.4193(6) 0.0754(5) 0.0779(16) Uani 0.625 1 d . U P . .
C1 C 0.6758(2) 0.4579(3) 0.5934(3) 0.0368(9) Uani 0.5 1 d . . P A 1
H1A H 0.644445 0.427708 0.661095 0.044 Uiso 0.5 1 d R U P A 1
C2 C 0.7648(2) 0.4563(3) 0.5963(4) 0.0447(10) Uani 0.5 1 d . . P A 1
H2A H 0.794879 0.425478 0.664672 0.054 Uiso 0.5 1 d R U P A 1
C3 C 0.81262(17) 0.50006(19) 0.500000 0.0395(7) Uani 1 2 d S T P . .
H3A H 0.786184 0.500372 0.414500 0.047 Uiso 0.5 1 d R U P A .
C4 C 0.90849(18) 0.4998(2) 0.500000 0.0457(7) Uani 1 2 d S T P A .
C5 C 0.9552(3) 0.5005(7) 0.6159(6) 0.067(4) Uani 0.425(12) 1 d . . P A 1
H5A H 0.924226 0.501522 0.697839 0.080 Uiso 0.425(12) 1 d R U P A 1
C1' C 0.6759(2) 0.5420(3) 0.5933(3) 0.0371(9) Uani 0.5 1 d . . P A 2
H1'A H 0.644526 0.572635 0.660487 0.045 Uiso 0.5 1 d R U P A 2
C2' C 0.7649(2) 0.5438(3) 0.5966(4) 0.0439(10) Uani 0.5 1 d . . P A 2
H2'A H 0.794878 0.574096 0.665638 0.053 Uiso 0.5 1 d R U P A 2
C5A C 0.9548(5) 0.5669(7) 0.5569(12) 0.056(4) Uani 0.280(8) 1 d . . P A 2
H5AA H 0.923610 0.614104 0.596765 0.068 Uiso 0.280(8) 1 d R U P A 2
C5B C 0.9552(5) 0.4339(7) 0.5574(11) 0.057(3) Uani 0.296(8) 1 d . . P A 3
H5BB H 0.923924 0.387235 0.598738 0.068 Uiso 0.296(8) 1 d R U P A 3
Cu1 Cu 0.500000 0.500000 0.500000 0.0251(2) Uani 1 8 d S T P A .
N1 N 0.63044(12) 0.49994(13) 0.500000 0.0273(5) Uani 1 2 d S T P . .
loop_
_atom_site_aniso_label
_atom_site_aniso_U_11
_atom_site_aniso_U_22
_atom_site_aniso_U_33
_atom_site_aniso_U_23
_atom_site_aniso_U_13
_atom_site_aniso_U_12
B1 0.0464(15) 0.0464(15) 0.0237(19) 0.000 0.000 0.000
B2 0.152(5) 0.042(2) 0.038(2) 0.008(2) 0.003(4) 0.025(4)
B3 0.131(5) 0.066(4) 0.037(2) 0.005(3) -0.002(4) -0.051(3)
C1 0.0238(17) 0.050(2) 0.037(2) 0.0083(16) 0.0026(14) 0.0028(15)
C2 0.0247(19) 0.064(3) 0.045(2) 0.0197(18) -0.0013(15) 0.0021(17)
C3 0.0212(13) 0.0598(18) 0.0374(15) 0.000 0.000 -0.0003(11)
C4 0.0204(13) 0.069(2) 0.0472(16) 0.000 0.000 -0.0005(12)
C5 0.022(3) 0.142(12) 0.036(3) -0.001(4) 0.005(2) -0.001(3)
C1' 0.0258(18) 0.050(2) 0.035(2) -0.0091(15) 0.0021(14) -0.0031(15)
C2' 0.0248(18) 0.063(3) 0.044(2) -0.0181(18) -0.0023(15) -0.0023(17)
C5A 0.027(4) 0.060(6) 0.081(7) -0.030(5) 0.001(3) 0.004(3)
C5B 0.025(3) 0.065(6) 0.080(7) 0.034(5) -0.002(3) -0.007(3)
Cu1 0.0148(3) 0.0148(3) 0.0456(4) 0.000 0.000 0.000
N1 0.0176(9) 0.0262(10) 0.0381(11) 0.000 0.000 0.0000(7)
loop_
_atom_type_symbol
_atom_type_description
_atom_type_scat_dispersion_real
_atom_type_scat_dispersion_imag
_atom_type_scat_source
C C 0.0033 0.0016 'International Tables Vol C Tables 4.2.6.8 and 6.1.1.4'
H H 0.0000 0.0000 'International Tables Vol C Tables 4.2.6.8 and 6.1.1.4'
B B 0.0013 0.0007 'International Tables Vol C Tables 4.2.6.8 and 6.1.1.4'
Cu Cu 0.3201 1.2651 'International Tables Vol C Tables 4.2.6.8 and 6.1.1.4'
N N 0.0061 0.0033 'International Tables Vol C Tables 4.2.6.8 and 6.1.1.4'
loop_
_geom_angle_atom_site_label_1
_geom_angle_atom_site_label_2
_geom_angle_atom_site_label_3
_geom_angle
_geom_angle_site_symmetry_1
_geom_angle_site_symmetry_3
_geom_angle_publ_flag
B3 B1 B3 74.15(18) . 4_565 ?
B3 B1 B3 117.0(4) . 2_665 ?
B3 B1 B3 74.15(18) 4_565 2_665 ?
B3 B1 B3 74.15(18) . 3_655 ?
B3 B1 B3 117.0(4) 4_565 3_655 ?
B3 B1 B3 74.15(18) 2_665 3_655 ?
B3 B1 B2 36.9(3) . 4_565 ?
B3 B1 B2 39.1(3) 4_565 4_565 ?
B3 B1 B2 104.3(3) 2_665 4_565 ?
B3 B1 B2 102.9(3) 3_655 4_565 ?
B3 B1 B2 104.3(3) . 3_655 ?
B3 B1 B2 102.9(3) 4_565 3_655 ?
B3 B1 B2 36.9(3) 2_665 3_655 ?
B3 B1 B2 39.1(3) 3_655 3_655 ?
B2 B1 B2 116.1(4) 4_565 3_655 ?
B3 B1 B2 102.9(3) . 2_665 ?
B3 B1 B2 36.9(3) 4_565 2_665 ?
B3 B1 B2 39.1(3) 2_665 2_665 ?
B3 B1 B2 104.3(3) 3_655 2_665 ?
B2 B1 B2 73.75(18) 4_565 2_665 ?
B2 B1 B2 73.75(18) 3_655 2_665 ?
B3 B1 B2 39.1(3) . . ?
B3 B1 B2 104.3(3) 4_565 . ?
B3 B1 B2 102.9(3) 2_665 . ?
B3 B1 B2 36.9(3) 3_655 . ?
B2 B1 B2 73.75(18) 4_565 . ?
B2 B1 B2 73.76(18) 3_655 . ?
B2 B1 B2 116.1(4) 2_665 . ?
B3 B1 H1F 121.5 . . ?
B3 B1 H1F 121.5 4_565 . ?
B3 B1 H1F 121.5 2_665 . ?
B3 B1 H1F 121.5 3_655 . ?
B2 B1 H1F 121.9 4_565 . ?
B2 B1 H1F 121.9 3_655 . ?
B2 B1 H1F 121.9 2_665 . ?
B2 B1 H1F 121.9 . . ?
B3 B2 B3 135.3(7) 3_655 . ?
B3 B2 B2 90.7(4) 3_655 6 ?
B3 B2 B2 90.7(4) . 6 ?
B3 B2 B1 71.4(4) 3_655 . ?
B3 B2 B1 70.2(4) . . ?
B2 B2 B1 121.93(19) 6 . ?
B3 B2 B3 55.1(5) 3_655 8_655 ?
B3 B2 B3 115.0(5) . 8_655 ?
B2 B2 B3 35.6(2) 6 8_655 ?
B1 B2 B3 104.4(3) . 8_655 ?
B3 B2 B3 116.0(5) 3_655 6 ?
B3 B2 B3 53.5(4) . 6 ?
B2 B2 B3 37.1(2) 6 6 ?
B1 B2 B3 102.8(3) . 6 ?
B3 B2 B3 66.5(3) 8_655 6 ?
B3 B2 B2 113.3(4) 3_655 4_565 ?
B3 B2 B2 22.0(4) . 4_565 ?
B2 B2 B2 90.0 6 4_565 ?
B1 B2 B2 53.12(9) . 4_565 ?
B3 B2 B2 103.3(2) 8_655 4_565 ?
B3 B2 B2 56.0(2) 6 4_565 ?
B3 B2 B2 23.4(4) 3_655 3_655 ?
B3 B2 B2 112.0(4) . 3_655 ?
B2 B2 B2 90.0 6 3_655 ?
B1 B2 B2 53.12(9) . 3_655 ?
B3 B2 B2 57.7(2) 8_655 3_655 ?
B3 B2 B2 103.1(2) 6 3_655 ?
B2 B2 B2 89.998(1) 4_565 3_655 ?
B2 B3 B2 134.7(7) 4_565 . ?
B2 B3 B3 89.3(4) 4_565 6 ?
B2 B3 B3 89.3(4) . 6 ?
B2 B3 B1 71.8(4) 4_565 . ?
B2 B3 B1 70.6(4) . . ?
B3 B3 B1 121.50(19) 6 . ?
B2 B3 B2 53.7(5) 4_565 7_565 ?
B2 B3 B2 113.6(5) . 7_565 ?
B3 B3 B2 35.6(2) 6 7_565 ?
B1 B3 B2 103.8(3) . 7_565 ?
B2 B3 B2 114.5(5) 4_565 6 ?
B2 B3 B2 52.2(4) . 6 ?
B3 B3 B2 37.1(2) 6 6 ?
B1 B3 B2 102.3(3) . 6 ?
B2 B3 B2 66.3(3) 7_565 6 ?
B2 B3 B3 113.0(4) 4_565 3_655 ?
B2 B3 B3 21.7(4) . 3_655 ?
B3 B3 B3 90.000(2) 6 3_655 ?
B1 B3 B3 52.92(9) . 3_655 ?
B2 B3 B3 103.1(2) 7_565 3_655 ?
B2 B3 B3 55.9(2) 6 3_655 ?
B2 B3 B3 23.0(4) 4_565 4_565 ?
B2 B3 B3 111.7(4) . 4_565 ?
B3 B3 B3 89.999(1) 6 4_565 ?
B1 B3 B3 52.92(9) . 4_565 ?
B2 B3 B3 57.6(2) 7_565 4_565 ?
B2 B3 B3 102.9(2) 6 4_565 ?
B3 B3 B3 90.000(1) 3_655 4_565 ?
N1 C1 C2 122.8(3) . . ?
N1 C1 C1 45.04(17) . 6_556 ?
C2 C1 C1 91.2(2) . 6_556 ?
N1 C1 H1A 118.6 . . ?
C2 C1 H1A 118.6 . . ?
C1 C1 H1A 135.8 6_556 . ?
C1 C2 C3 120.1(3) . . ?
C1 C2 C2 88.8(2) . 6_556 ?
C3 C2 C2 45.49(19) . 6_556 ?
C1 C2 H2A 120.3 . . ?
C3 C2 H2A 119.5 . . ?
C2 C2 H2A 136.5 6_556 . ?
C1 C2 H3A 114.3(5) . 6_556 ?
C3 C2 H3A 40.8(2) . 6_556 ?
C2 C2 H3A 81.7(3) 6_556 6_556 ?
H2A C2 H3A 109.7 . 6_556 ?
C2 C3 C2 89.0(4) 6_556 . ?
C2 C3 C2' 57.5(3) 6_556 6_556 ?
C2 C3 C2' 116.6(3) . 6_556 ?
C2' C3 C2' 89.3(4) 6_556 . ?
C2 C3 C4 121.6(2) 6_556 . ?
C2 C3 C4 121.6(2) . . ?
C2' C3 C4 121.7(2) 6_556 . ?
C2' C3 C4 121.7(2) . . ?
C2 C3 H3A 31.2 6_556 . ?
C2 C3 H3A 114.5 . . ?
C2' C3 H3A 30.6 6_556 . ?
C2' C3 H3A 114.3 . . ?
C4 C3 H3A 115.0 . . ?
C2 C3 H3A 114.52(18) 6_556 6_556 ?
C2 C3 H3A 31.2(2) . 6_556 ?
C4 C3 H3A 115.045(3) . 6_556 ?
H3A C3 H3A 129.9 . 6_556 ?
C5 C4 C5 117.3(5) 6_556 . ?
C5 C4 C5A 50.8(6) 6_556 6_556 ?
C5 C4 C5A 94.8(7) . 6_556 ?
C5A C4 C5A 49.6(11) 6_556 . ?
C5B C4 C3 121.7(4) . . ?
C5B C4 C3 121.7(4) 6_556 . ?
C5 C4 C3 121.3(2) 6_556 . ?
C5 C4 C3 121.3(2) . . ?
C5A C4 C3 120.9(4) 6_556 . ?
C5A C4 C3 120.9(4) . . ?
C5 C5 C4 121.3(2) 2_765 . ?
C5 C5 H5A 119.7 2_765 . ?
C4 C5 H5A 119.0 . . ?
N1 C1' C2' 123.2(3) . . ?
N1 C1' C1' 45.11(17) . 6_556 ?
N1 C1' H1'A 118.5 . . ?
C2' C1' H1'A 118.4 . . ?
C1' C1' H1'A 135.4 6_556 . ?
C1' C2' C3 119.8(3) . . ?
C3 C2' C2' 45.36(19) . 6_556 ?
C1' C2' H2'A 120.5 . . ?
C3 C2' H2'A 119.7 . . ?
C2' C2' H2'A 137.0 6_556 . ?
C3 C2' H3A 40.5(2) . 6_556 ?
C5A C5A C4 65.2(6) 6_556 . ?
C5A C5A H5AA 115.0 6_556 . ?
C4 C5A H5AA 118.9 . . ?
C5B C5B C4 64.8(5) 6_556 . ?
C5B C5B H5BB 116.0 6_556 . ?
C4 C5B H5BB 118.5 . . ?
N1 Cu1 N1 90.0 7_566 . ?
N1 Cu1 N1 90.0 7_566 5_666 ?
N1 Cu1 N1 180.0 . 5_666 ?
N1 Cu1 N1 180.0 7_566 3_655 ?
N1 Cu1 N1 90.0 . 3_655 ?
N1 Cu1 N1 90.0 5_666 3_655 ?
C1 N1 C1 89.9(3) . 6_556 ?
C1 N1 C1' 117.4(3) . 6_556 ?
C1 N1 C1' 57.5(3) 6_556 6_556 ?
C1 N1 Cu1 121.27(17) . . ?
C1 N1 Cu1 121.27(17) 6_556 . ?
C1' N1 Cu1 121.32(17) . . ?
C1' N1 Cu1 121.32(17) 6_556 . ?
loop_
_geom_bond_atom_site_label_1
_geom_bond_atom_site_label_2
_geom_bond_distance
_geom_bond_site_symmetry_2
_geom_bond_publ_flag
B1 B3 1.719(5) . ?
B1 B3 1.719(5) 4_565 ?
B1 B3 1.719(5) 2_665 ?
B1 B3 1.719(5) 3_655 ?
B1 B2 1.723(5) 4_565 ?
B1 B2 1.723(5) 3_655 ?
B1 B2 1.723(5) 2_665 ?
B1 B2 1.723(5) . ?
B1 H1F 0.8552 . ?
B2 B3 1.088(7) 3_655 ?
B2 B3 1.152(7) . ?
B2 B2 1.508(9) 6 ?
B2 B3 1.870(6) 8_655 ?
B2 B3 1.908(6) 6 ?
B2 B2 2.067(7) 4_565 ?
B2 B2 2.068(7) 3_655 ?
B3 B3 1.534(10) 6 ?
B3 B3 2.072(7) 3_655 ?
B3 B3 2.072(7) 4_565 ?
C1 N1 1.344(4) . ?
C1 C2 1.369(5) . ?
C1 C1 1.900(7) 6_556 ?
C1 H1A 0.9600 . ?
C2 C3 1.397(4) . ?
C2 C2 1.958(8) 6_556 ?
C2 H2A 0.9600 . ?
C2 H3A 0.761(5) 6_556 ?
C3 C2' 1.399(4) 6_556 ?
C3 C2' 1.399(4) . ?
C3 C4 1.473(4) . ?
C3 H3A 0.9600 . ?
C3 H3A 0.9600 6_556 ?
C4 C5B 1.372(8) . ?
C4 C5B 1.372(8) 6_556 ?
C4 C5 1.380(6) 6_556 ?
C4 C5 1.380(6) . ?
C4 C5A 1.380(8) 6_556 ?
C4 C5A 1.380(8) . ?
C5 C5 1.378(10) 2_765 ?
C5 H5A 0.9600 . ?
C1' N1 1.345(4) . ?
C1' C2' 1.368(5) . ?
C1' C1' 1.898(7) 6_556 ?
C1' H1'A 0.9600 . ?
C2' C2' 1.966(8) 6_556 ?
C2' H2'A 0.9600 . ?
C5A C5A 1.16(2) 6_556 ?
C5A H5AA 0.9600 . ?
C5B C5B 1.17(2) 6_556 ?
C5B H5BB 0.9600 . ?
Cu1 N1 2.0047(19) 7_566 ?
Cu1 N1 2.0047(19) . ?
Cu1 N1 2.0047(19) 5_666 ?
Cu1 N1 2.0047(19) 3_655 ?
