#------------------------------------------------------------------------------
#$Date: 2020-08-01 04:18:04 +0300 (Sat, 01 Aug 2020) $
#$Revision: 254717 $
#$URL: file:///home/coder/svn-repositories/cod/cif/7/24/09/7240965.cif $
#------------------------------------------------------------------------------
#
# This file is available in the Crystallography Open Database (COD),
# http://www.crystallography.net/
#
# All data on this site have been placed in the public domain by the
# contributors.
#
data_7240965
loop_
_publ_author_name
'Yao, Jun'
'Liu, Yan-E'
'Yang, Li-Bo'
'Dou, Ai-Na'
'Hou, Cheng-Fu'
'Xu, Quan-Qing'
'Huang, Bo'
'Zhu, Ai-Xin'
_publ_section_title
;
 Novel alkaline earth metal-organic frameworks with thiophene group for
 selective detection of Fe3+
;
_journal_name_full               CrystEngComm
_journal_paper_doi               10.1039/D0CE00990C
_journal_year                    2020
_chemical_formula_sum            'C14.5 H18.5 Mg N1.5 O6.5 S2'
_chemical_formula_weight         406.24
_space_group_crystal_system      monoclinic
_space_group_IT_number           11
_space_group_name_Hall           '-P 2yb'
_space_group_name_H-M_alt        'P 1 21/m 1'
_atom_sites_solution_hydrogens   mixed
_audit_creation_method           SHELXL-2014/7
_audit_update_record
;
2020-07-07 deposited with the CCDC.	2020-07-31 downloaded from the CCDC.
;
_cell_angle_alpha                90
_cell_angle_beta                 100.26(3)
_cell_angle_gamma                90
_cell_formula_units_Z            4
_cell_length_a                   10.759(2)
_cell_length_b                   19.330(4)
_cell_length_c                   12.307(3)
_cell_measurement_reflns_used    26354
_cell_measurement_temperature    293(2)
_cell_measurement_theta_max      26.00
_cell_measurement_theta_min      3.05
_cell_volume                     2518.6(10)
_computing_cell_refinement       'RAPID-AUTO (Rigaku, 1998)'
_computing_data_collection       'RAPID-AUTO (Rigaku, 1998)'
_computing_data_reduction        'CrystalClear (Rigaku/MSC, 2002)'
_computing_structure_refinement  'SHELXL-2014/7 (Sheldrick, 2014)'
_diffrn_ambient_temperature      293(2)
_diffrn_measured_fraction_theta_full 0.997
_diffrn_measured_fraction_theta_max 0.997
_diffrn_measurement_device_type  'Rigaku R-AXIS SPIDER'
_diffrn_measurement_method       '\w scans'
_diffrn_radiation_type           MoK\a
_diffrn_radiation_wavelength     0.71073
_diffrn_reflns_av_R_equivalents  0.1300
_diffrn_reflns_av_unetI/netI     0.1095
_diffrn_reflns_Laue_measured_fraction_full 0.997
_diffrn_reflns_Laue_measured_fraction_max 0.997
_diffrn_reflns_limit_h_max       13
_diffrn_reflns_limit_h_min       -13
_diffrn_reflns_limit_k_max       22
_diffrn_reflns_limit_k_min       -23
_diffrn_reflns_limit_l_max       15
_diffrn_reflns_limit_l_min       -15
_diffrn_reflns_number            21737
_diffrn_reflns_point_group_measured_fraction_full 0.997
_diffrn_reflns_point_group_measured_fraction_max 0.997
_diffrn_reflns_theta_full        25.242
_diffrn_reflns_theta_max         25.998
_diffrn_reflns_theta_min         3.134
_exptl_absorpt_coefficient_mu    0.262
_exptl_absorpt_correction_T_max  0.5862
_exptl_absorpt_correction_T_min  0.5621
_exptl_absorpt_correction_type   multi-scan
_exptl_absorpt_process_details   '(ABSCOR; Higashi, 1995)'
_exptl_crystal_colour            colorless
_exptl_crystal_density_diffrn    1.071
_exptl_crystal_description       flake
_exptl_crystal_F_000             848
_exptl_crystal_size_max          0.240
_exptl_crystal_size_mid          0.180
_exptl_crystal_size_min          0.070
_refine_diff_density_max         0.761
_refine_diff_density_min         -0.394
_refine_diff_density_rms         0.080
_refine_ls_extinction_method     none
_refine_ls_goodness_of_fit_ref   1.064
_refine_ls_hydrogen_treatment    constr
_refine_ls_matrix_type           full
_refine_ls_number_parameters     300
_refine_ls_number_reflns         5093
_refine_ls_number_restraints     114
_refine_ls_restrained_S_all      1.109
_refine_ls_R_factor_all          0.1944
_refine_ls_R_factor_gt           0.1072
_refine_ls_shift/su_max          0.000
_refine_ls_shift/su_mean         0.000
_refine_ls_structure_factor_coef Fsqd
_refine_ls_weighting_details
'w=1/[\s^2^(Fo^2^)+(0.2000P)^2^] where P=(Fo^2^+2Fc^2^)/3'
_refine_ls_weighting_scheme      calc
_refine_ls_wR_factor_gt          0.3159
_refine_ls_wR_factor_ref         0.3707
_reflns_Friedel_coverage         0.000
_reflns_number_gt                2213
_reflns_number_total             5093
_reflns_threshold_expression     'I > 2\s(I)'
_cod_data_source_file            d0ce00990c2.cif
_cod_data_source_block           Mg
_cod_original_cell_volume        2518.7(9)
_cod_original_sg_symbol_H-M      'P 21/m'
_cod_original_formula_sum        'C14.50 H18.50 Mg N1.50 O6.50 S2'
_cod_database_code               7240965
_shelx_shelxl_version_number     2014/7
_shelx_space_group_comment
;
The symmetry employed for this shelxl refinement is uniquely defined
by the following loop, which should always be used as a source of
symmetry information in preference to the above space-group names.
They are only intended as comments.
;
_shelx_estimated_absorpt_t_min   0.940
_shelx_estimated_absorpt_t_max   0.962
_shelx_res_file
;

    1_sq.res created by SHELXL-2014/7


TITL 1 in P2(1)/m
CELL 0.71073  10.7589  19.3299  12.3075  90.000 100.259  90.000
ZERR   4.00   0.0022   0.0039   0.0025   0.000   0.030   0.000
LATT  1
SYMM -X, 0.5+Y, -Z
SFAC C H N O MG S
UNIT 58 74 6 26 4 8

L.S. 40 0   41
acta
omit -3 52
omit 2 1 0
omit 0 5 3
omit -1 5 2

size 0.24  0.18  0.15
BOND
FMAP 2
PLAN 20

DFIX 1.22 0.02  O5 C13 O6 C16

DFIX 1.33 0.02 N1 C13 N2 C16

DFIX 1.45 0.02  C11 N1 C14 N2 =
 C12 N1 C15 N2

DFIX 2.26 0.04  O5 N1 O6 N2
DFIX 2.77 0.04  C11 O5 C14 O6
DFIX 3.58 0.06  C12 O5 C15 O6
flat 0.2 s2 c7 c8 c9 c10
flat 0.2 s2' c7 c8' c10' c9

FLAT 0.2 O5 N1 C11 C12 C13
FLAT 0.2 O6 N2 C14 C15 C16

eqiv $1 -x, -y, -z+1

sadi 0.04 c3 c5 c3' c5'
isor 0.02 c4
isor 0.01 c2
isor 0.01 c9
isor 0.01 c5

isor 0.01 c8
isor 0.01 c8'
isor 0.01 c14
isor 0.01 c15
isor 0.01 c16
isor 0.01 n2
isor 0.01 c10'
isor 0.01 c10

eqiv $2 -x+1, -y, -z
sadi 0.02 c7 c8 c7 c8'_$2 c8' c7_$2 c7_$2 c8_$2
sadi 0.02 c9 c8' c9 c8 c9_$2 c8_$2 c9_$2 c8'_$2
sadi 0.02 c8 c9_$2 c9 c8'_$2 c7 c9 c7 c9_$2
sadi 0.01 c8 c10 c8'_$2 c10'
free c8_$2 s2

free s2 c10'

free s2 c11'
free mg1 h1wa
free mg2 h1wb
free o5 h1wa

ACTA
ABIN
WGHT    0.200000
FVAR       0.16822   0.50880   0.49548
MG1   5    0.252345    0.250000    0.254709    10.50000    0.07314    0.03313 =
         0.04273    0.00000    0.02778    0.00000
MG2   5    0.404429    0.250000    0.539955    10.50000    0.06823    0.04561 =
         0.04172    0.00000    0.02006    0.00000

PART   1
S1    6    0.154146    0.064020    0.603069    21.00000    0.08310    0.07477 =
         0.05965    0.02360    0.00630   -0.02860
C3    1    0.045186    0.044899    0.402809    21.00000    0.09668    0.08672 =
         0.04165    0.03226    0.00919   -0.01009
C5    1    0.007872    0.047289    0.275786    21.00000    0.12953    0.07602 =
         0.06838    0.03434    0.00674   -0.04320
AFIX  33
H5A   2   -0.045373    0.008515    0.250830    21.00000   -1.50000
H5B   2   -0.036850    0.089471    0.254154    21.00000   -1.50000
H5C   2    0.082638    0.045369    0.243394    21.00000   -1.50000
AFIX   0
PART   2
S1'   6    0.008144    0.062341    0.344794   -21.00000    0.08783    0.06724 =
         0.05283    0.01209    0.01362   -0.03291
C3'   1    0.095988    0.065635    0.555561   -21.00000    0.04786    0.06584 =
         0.04853    0.00044   -0.00110   -0.02979
C5'   1    0.166887    0.083028    0.672878   -21.00000    0.14726    0.09890 =
         0.05688    0.02425   -0.00659   -0.08660
AFIX  33
H5'A  2    0.131378    0.056837    0.726163   -21.00000   -1.50000
H5'B  2    0.254610    0.071515    0.678594   -21.00000   -1.50000
H5'C  2    0.158722    0.131540    0.686766   -21.00000   -1.50000
AFIX   0
PART   1
S2    6    0.631496    0.054116    0.158561    31.00000    0.09944    0.12657 =
         0.09547   -0.06657   -0.01492    0.06239
C8    1    0.381166    0.056611    0.029151    31.00000    0.10424    0.06553 =
         0.04952   -0.02303    0.01037    0.00573
C10   1    0.248951    0.074984   -0.020513    31.00000    0.12019    0.14686 =
         0.18267   -0.00439   -0.02437   -0.00281
AFIX  33
H10A  2    0.219952    0.045105   -0.082122    31.00000   -1.50000
H10B  2    0.195708    0.069542    0.033756    31.00000   -1.50000
H10C  2    0.245881    0.122162   -0.045218    31.00000   -1.50000
AFIX   0
PART   2
S2'   6    0.307770    0.064107    0.001029   -31.00000    0.10283    0.10116 =
         0.08479   -0.05256   -0.01616    0.04668
C8'   1    0.439121   -0.049477   -0.117074   -31.00000    0.08242    0.05919 =
         0.07335   -0.00617    0.00665    0.04185
C10'  1    0.691637    0.041832    0.178856   -31.00000    0.27243    0.25735 =
         0.26674   -0.03851    0.01504    0.01538
AFIX   3
H10G  2    0.693667    0.075452    0.236556   -31.00000   -1.50000
H10H  2    0.699237   -0.003738    0.210356   -31.00000   -1.50000
H10I  2    0.760497    0.050082    0.140506   -31.00000   -1.50000
AFIX   0
PART   0
C1    1    0.197092    0.151143    0.436415    11.00000    0.08317    0.06238 =
         0.05086   -0.00390    0.01778   -0.01821
C2    1    0.118319    0.091537    0.461612    11.00000    0.08612    0.06421 =
         0.05795    0.00685    0.02368   -0.02899
C4    1   -0.024500   -0.003159    0.445688    11.00000    0.12638    0.07425 =
         0.13018   -0.02094    0.08589   -0.04360
C6    1    0.430920    0.139933    0.194496    11.00000    0.11677    0.05414 =
         0.04786   -0.00634    0.01860    0.01475
C7    1    0.456830    0.083409    0.113380    11.00000    0.10718    0.07597 =
         0.05813   -0.00865    0.01384    0.03428
C9    1    0.441193    0.000435   -0.026312    11.00000    0.17355    0.09360 =
         0.11205   -0.03942    0.07257    0.02129
O1    4    0.176353    0.172634    0.338906    11.00000    0.09105    0.06167 =
         0.06328    0.00630    0.03003   -0.02175
O2    4    0.273747    0.173520    0.515815    11.00000    0.10547    0.08396 =
         0.06703    0.01801    0.02299   -0.03482
O3    4    0.328509    0.173592    0.167857    11.00000    0.10959    0.05412 =
         0.05724   -0.00988    0.02622    0.02217
O4    4    0.510607    0.147733    0.279990    11.00000    0.13273    0.12395 =
         0.08250   -0.04456   -0.00393    0.06553

O5    4    0.401448    0.250000    0.706265    10.50000    0.09731    0.12821 =
         0.05669    0.00000    0.04184    0.00000
N1    3    0.302384    0.250000    0.855302    10.50000    0.13299    0.08453 =
         0.06577    0.00000    0.05754    0.00000
C11   1    0.422229    0.250000    0.930277    10.50000    0.18183    0.20135 =
         0.04078    0.00000    0.00633    0.00000
AFIX   3
H11A  2    0.406789    0.250000    1.004737    10.50000   -1.50000
H11B  2    0.469499    0.209450    0.918277    11.00000   -1.50000
AFIX   0
C12   1    0.182586    0.250000    0.897270    10.50000    0.13500    0.14932 =
         0.07664    0.00000    0.04541    0.00000
AFIX   3
H12A  2    0.114786    0.250000    0.834920    10.50000   -1.50000
H12B  2    0.176806    0.209450    0.941130    11.00000   -1.50000
AFIX   0
C13   1    0.301275    0.250000    0.745434    10.50000    0.10815    0.09458 =
         0.04812    0.00000    0.02298    0.00000
AFIX  43
H13A  2    0.224099    0.250000    0.697325    10.50000   -1.20000
AFIX   0

O6    4    0.541373    0.176354    0.568155    11.00000    0.13078    0.07987 =
         0.09734    0.02045    0.02049    0.03691
N2    3    0.622534    0.071032    0.613144    11.00000    0.22794    0.18298 =
         0.24273    0.04249    0.03759    0.04047
C14   1    0.718768    0.078118    0.534195    11.00000    0.40677    0.35625 =
         0.35658   -0.00812    0.07450    0.05519
AFIX  33
H14A  2    0.768530    0.036712    0.537168    11.00000   -1.50000
H14B  2    0.674394    0.085115    0.460157    11.00000   -1.50000
H14C  2    0.773098    0.116924    0.556269    11.00000   -1.50000
AFIX   0
C15   1    0.629477    0.004535    0.666605    11.00000    0.35818    0.32732 =
         0.36962    0.07886    0.11027    0.04460
AFIX  33
H15A  2    0.696338   -0.022128    0.645033    11.00000   -1.50000
H15B  2    0.645981    0.010797    0.745240    11.00000   -1.50000
H15C  2    0.550742   -0.019401    0.645186    11.00000   -1.50000
AFIX   0
C16   1    0.552533    0.126662    0.611506    11.00000    0.13336    0.15467 =
         0.19725    0.03810    0.05617    0.03213
AFIX  43
H16A  2    0.496818    0.122860    0.660946    11.00000   -1.20000
AFIX   0
O1W   4    0.424782    0.250000    0.375536    10.50000    0.06892    0.03649 =
         0.04477    0.00000    0.01620    0.00000
AFIX   3
H1WA  2    0.496521    0.217800    0.342513    10.50000   -1.20000
H1WB  2    0.460171    0.209950    0.408723    10.50000   -1.20000
AFIX   0

O2W   4    0.087065    0.250000    0.141816    10.50000    0.10104    0.11489 =
         0.05636    0.00000    0.03470    0.00000
AFIX   3
H2WA  2    0.062055    0.211670    0.111786    10.50000   -1.20000
H2WB  2    0.016485    0.250000    0.163756    10.50000   -1.20000
AFIX   0
HKLF 4

REM  1 in P2(1)/m
REM R1 =  0.1072 for    2213 Fo > 4sig(Fo)  and  0.1944 for all    5093 data
REM    300 parameters refined using    114 restraints

END

WGHT      0.2000      0.0000

REM Highest difference peak  0.761,  deepest hole -0.394,  1-sigma level  0.080
Q1    1  -0.0295  0.2500  0.1632  10.50000  0.05    0.76
Q2    1   0.0124  0.1978  0.0844  11.00000  0.05    0.43
Q3    1   0.5928  0.0708  0.7377  11.00000  0.05    0.41
Q4    1   0.4767 -0.0400 -0.0889  11.00000  0.05    0.39
Q5    1   0.6977  0.0480  0.7406  11.00000  0.05    0.35
Q6    1   0.5000  0.0000  0.0000  10.50000  0.05    0.33
Q7    1   0.4611  0.2500  0.2424  10.50000  0.05    0.31
Q8    1   0.0349 -0.0096  0.2463  11.00000  0.05    0.30
Q9    1   0.4492  0.0591  0.0363  11.00000  0.05    0.29
Q10   1   0.6176  0.1495  0.6736  11.00000  0.05    0.27
Q11   1   0.1471  0.1306  0.7559  11.00000  0.05    0.27
Q12   1   0.4708 -0.0875  0.6048  11.00000  0.05    0.27
Q13   1   0.5609  0.0641  0.6515  11.00000  0.05    0.27
Q14   1   0.5166  0.1064  0.5492  11.00000  0.05    0.26
Q15   1   0.5869  0.1266  0.7382  11.00000  0.05    0.26
Q16   1   0.4860 -0.0014 -0.1848  11.00000  0.05    0.26
Q17   1   0.3125  0.2172  0.6254  11.00000  0.05    0.25
Q18   1   0.6986  0.0998  0.6642  11.00000  0.05    0.25
Q19   1   0.5068  0.2500  0.8600  10.50000  0.05    0.25
Q20   1   0.8686  0.2500  0.4629  10.50000  0.05    0.25
;
_shelx_res_checksum              34629
_shelx_fab_file
;
    0    0    2     25.43      0.00
    0    0    3      4.14      0.00
    0    0    4      8.01      0.00
    0    0    5      4.79      0.00
    0    0    6      3.75      0.00
    0    0    7      0.32      0.00
    0    0    8      0.93      0.00
    0    0    9      0.20      0.00
    0    0   10      0.66      0.00
    0    0   11      0.21      0.00
    0    0   12     -0.84      0.00
    0    0   13      1.81      0.00
    0    0   14     -1.07      0.00
    0    1    2      6.36      0.00
    0    1    3    -14.56      0.00
    0    1    4     -6.69      0.00
    0    1    5     -4.98      0.00
    0    1    6      1.46      0.00
    0    1    7     -3.50      0.00
    0    1    8     -0.49      0.00
    0    1    9     -1.20      0.00
    0    1   10     -0.40      0.00
    0    1   11      0.65      0.00
    0    1   12     -1.12      0.00
    0    1   13     -0.57      0.00
    0    1   14     -0.42      0.00
    0    2    2    -12.87      0.00
    0    2    3     -2.84      0.00
    0    2    4     -2.29      0.00
    0    2    5      1.83      0.00
    0    2    6     -1.08      0.00
    0    2    7      0.34      0.00
    0    2    8      0.19      0.00
    0    2    9      0.52      0.00
    0    2   10     -0.02      0.00
    0    2   11     -1.13      0.00
    0    2   12     -0.07      0.00
    0    2   13     -1.21      0.00
    0    2   14      1.09      0.00
    0    3    1     13.02      0.00
    0    3    2     16.41      0.00
    0    3    3      9.18      0.00
    0    3    4     -0.02      0.00
    0    3    5      0.89      0.00
    0    3    6     -1.65      0.00
    0    3    7      1.25      0.00
    0    3    8     -1.53      0.00
    0    3    9     -1.04      0.00
    0    3   10      1.10      0.00
    0    3   11     -0.97      0.00
    0    3   12     -0.39      0.00
    0    3   13     -0.05      0.00
    0    3   14      1.06      0.00
    0    4    0     30.86      0.00
    0    4    1    -32.16      0.00
    0    4    2      5.32      0.00
    0    4    3     -0.59      0.00
    0    4    4     -0.81      0.00
    0    4    5     -4.50      0.00
    0    4    6     -0.63      0.00
    0    4    7     -0.10      0.00
    0    4    8     -0.32      0.00
    0    4    9      0.22      0.00
    0    4   10      0.17      0.00
    0    4   11      2.27      0.00
    0    4   12      0.98      0.00
    0    4   13      0.08      0.00
    0    4   14     -1.48      0.00
    0    5    1     -0.16      0.00
    0    5    2     -7.27      0.00
    0    5    4     -1.93      0.00
    0    5    5      2.05      0.00
    0    5    6      1.62      0.00
    0    5    7     -0.63      0.00
    0    5    8      0.60      0.00
    0    5    9      1.51      0.00
    0    5   10     -2.36      0.00
    0    5   11      0.25      0.00
    0    5   12      0.42      0.00
    0    5   13      0.37      0.00
    0    5   14     -0.07      0.00
    0    6    0    -23.36      0.00
    0    6    1     10.35      0.00
    0    6    2      0.03      0.00
    0    6    3      3.07      0.00
    0    6    4     -0.28      0.00
    0    6    5      1.53      0.00
    0    6    6      1.40      0.00
    0    6    7      1.22      0.00
    0    6    8      1.15      0.00
    0    6    9     -0.71      0.00
    0    6   10      0.05      0.00
    0    6   11     -1.27      0.00
    0    6   12     -1.25      0.00
    0    6   13     -0.81      0.00
    0    6   14      0.14      0.00
    0    7    1     -3.84      0.00
    0    7    2      0.55      0.00
    0    7    3     -0.54      0.00
    0    7    4      2.12      0.00
    0    7    5     -2.71      0.00
    0    7    6     -1.45      0.00
    0    7    7     -0.89      0.00
    0    7    8      0.26      0.00
    0    7    9     -1.23      0.00
    0    7   10      1.94      0.00
    0    7   11      0.57      0.00
    0    7   12      0.32      0.00
    0    7   13      0.59      0.00
    0    7   14      0.98      0.00
    0    8    0     14.19      0.00
    0    8    1      0.71      0.00
    0    8    2      2.51      0.00
    0    8    3     -0.90      0.00
    0    8    4     -2.07      0.00
    0    8    5     -0.22      0.00
    0    8    6     -0.49      0.00
    0    8    7     -1.76      0.00
    0    8    8     -1.70      0.00
    0    8    9      0.43      0.00
    0    8   10     -0.77      0.00
    0    8   11     -0.87      0.00
    0    8   12     -0.82      0.00
    0    8   13     -0.98      0.00
    0    8   14     -0.99      0.00
    0    9    1      0.03      0.00
    0    9    2      0.12      0.00
    0    9    3      1.38      0.00
    0    9    4     -2.02      0.00
    0    9    5      0.49      0.00
    0    9    6     -0.31      0.00
    0    9    7      0.31      0.00
    0    9    8     -0.52      0.00
    0    9    9      1.20      0.00
    0    9   10      0.73      0.00
    0    9   11      0.48      0.00
    0    9   12      1.10      0.00
    0    9   13      0.61      0.00
    0   10    0     -6.21      0.00
    0   10    1     -0.56      0.00
    0   10    2     -2.73      0.00
    0   10    3     -2.08      0.00
    0   10    4      0.37      0.00
    0   10    5     -0.02      0.00
    0   10    6      0.96      0.00
    0   10    7      1.85      0.00
    0   10    8      0.75      0.00
    0   10    9      0.15      0.00
    0   10   10      1.46      0.00
    0   10   11      1.06      0.00
    0   10   12      0.28      0.00
    0   10   13     -0.81      0.00
    0   11    1      1.75      0.00
    0   11    2      1.77      0.00
    0   11    3      0.54      0.00
    0   11    4      1.85      0.00
    0   11    5      0.14      0.00
    0   11    6      0.06      0.00
    0   11    7      0.15      0.00
    0   11    8     -0.31      0.00
    0   11    9     -0.42      0.00
    0   11   10     -0.92      0.00
    0   11   11      0.99      0.00
    0   11   12     -0.58      0.00
    0   11   13     -1.44      0.00
    0   12    0      4.01      0.00
    0   12    1     -0.12      0.00
    0   12    2     -0.17      0.00
    0   12    3     -1.39      0.00
    0   12    4     -0.14      0.00
    0   12    5      0.52      0.00
    0   12    6      0.36      0.00
    0   12    7     -0.49      0.00
    0   12    8      0.68      0.00
    0   12    9     -0.46      0.00
    0   12   10     -1.36      0.00
    0   12   11     -0.73      0.00
    0   12   12     -0.91      0.00
    0   13    1      0.86      0.00
    0   13    2      0.16      0.00
    0   13    3     -0.03      0.00
    0   13    4     -1.94      0.00
    0   13    5     -0.30      0.00
    0   13    6      0.89      0.00
    0   13    7     -0.48      0.00
    0   13    8      0.02      0.00
    0   13    9     -0.27      0.00
    0   13   10      0.80      0.00
    0   13   11     -0.40      0.00
    0   13   12      1.74      0.00
    0   14    0     -1.68      0.00
    0   14    1      0.34      0.00
    0   14    2     -0.34      0.00
    0   14    3      1.10      0.00
    0   14    4     -0.61      0.00
    0   14    5      0.80      0.00
    0   14    6      0.86      0.00
    0   14    7      0.67      0.00
    0   14    8     -0.68      0.00
    0   14    9      0.50      0.00
    0   14   10     -0.60      0.00
    0   14   11     -0.51      0.00
    0   14   12      0.70      0.00
    0   15    1      0.49      0.00
    0   15    2      1.18      0.00
    0   15    3     -0.78      0.00
    0   15    4     -0.42      0.00
    0   15    5     -0.29      0.00
    0   15    6      0.32      0.00
    0   15    7      0.39      0.00
    0   15    8     -0.25      0.00
    0   15    9      0.15      0.00
    0   15   10      0.34      0.00
    0   15   11      0.42      0.00
    0   16    0      0.18      0.00
    0   16    1     -0.52      0.00
    0   16    2      1.17      0.00
    0   16    3     -0.46      0.00
    0   16    4     -0.33      0.00
    0   16    5     -0.65      0.00
    0   16    6      0.67      0.00
    0   16    7      0.41      0.00
    0   16    8      0.11      0.00
    0   16    9     -0.39      0.00
    0   16   10      2.35      0.00
    0   16   11      0.75      0.00
    0   17    1      0.31      0.00
    0   17    2     -0.30      0.00
    0   17    3      0.49      0.00
    0   17    4     -0.16      0.00
    0   17    5      0.50      0.00
    0   17    6     -0.18      0.00
    0   17    7      0.34      0.00
    0   17    8     -0.71      0.00
    0   17    9     -0.32      0.00
    0   17   10     -0.67      0.00
    0   18    0     -1.28      0.00
    0   18    1     -0.28      0.00
    0   18    2     -0.74      0.00
    0   18    3      0.10      0.00
    0   18    4     -0.25      0.00
    0   18    5     -1.11      0.00
    0   18    6     -0.85      0.00
    0   18    7      0.81      0.00
    0   18    8     -0.12      0.00
    0   18    9     -0.93      0.00
    0   19    1     -0.44      0.00
    0   19    2      0.87      0.00
    0   19    3      0.52      0.00
    0   19    4      0.74      0.00
    0   19    5     -0.73      0.00
    0   19    6      1.35      0.00
    0   19    7      1.12      0.00
    0   19    8      1.66      0.00
    0   19    9      0.05      0.00
    0   20    0      1.34      0.00
    0   20    1      0.29      0.00
    0   20    2     -0.25      0.00
    0   20    3      0.01      0.00
    0   20    4     -0.92      0.00
    0   20    5     -0.46      0.00
    0   20    6      0.00      0.00
    0   20    7     -1.58      0.00
    0   20    8     -1.06      0.00
    0   21    1      0.82      0.00
    0   21    2     -0.34      0.00
    0   21    3     -0.20      0.00
    0   21    4     -0.60      0.00
    0   21    5      0.72      0.00
    0   21    6     -1.10      0.00
    0   21    7      0.55      0.00
    0   22    0     -0.49      0.00
    0   22    1      0.25      0.00
    0   22    2      0.76      0.00
    0   22    3     -1.22      0.00
    0   22    4     -0.20      0.00
    0   22    5     -0.33      0.00
    0   23    1      0.50      0.00
    0   23    2      0.27      0.00
    0   23    3     -0.12      0.00
   -1    0   15      0.86      0.00
   -1    0   14      0.27      0.00
   -1    0   13      0.30      0.00
   -1    0   12     -1.22      0.00
   -1    0   11     -0.05      0.00
   -1    0   10      1.23      0.00
   -1    0    9     -0.13      0.00
   -1    0    8      0.54      0.00
   -1    0    7     -3.17      0.00
   -1    0    6      5.65      0.00
   -1    0    5     -3.06      0.00
   -1    0    4      4.22      0.00
   -1    0    3     -1.78      0.00
   -1    0    2     39.91      0.00
    1    0    2      6.92      0.00
    1    0    3     29.70      0.00
    1    0    4     14.96      0.00
    1    0    5      4.96      0.00
    1    0    6      0.84      0.00
    1    0    7      2.77      0.00
    1    0    8      1.35      0.00
    1    0    9      1.00      0.00
    1    0   10      0.93      0.00
    1    0   11     -0.23      0.00
    1    0   12      1.51      0.00
    1    0   13      0.80      0.00
    1    0   14      0.16      0.00
   -1    1   15      1.68      0.00
   -1    1   14      0.11      0.00
   -1    1   13     -1.50      0.00
   -1    1   12     -0.44      0.00
   -1    1   11      0.26      0.00
   -1    1   10     -0.35      0.00
   -1    1    9     -1.20      0.00
   -1    1    8     -0.60      0.00
   -1    1    7     -2.37      0.00
   -1    1    6     -1.66      0.00
   -1    1    5     -4.26      0.00
   -1    1    4     -5.99      0.00
   -1    1    3      0.71      0.00
   -1    1    2    -20.97      0.00
    1    1    2      1.50      0.00
    1    1    3      1.05      0.00
    1    1    4      1.61      0.00
    1    1    5     -0.32      0.00
    1    1    6      0.31      0.00
    1    1    7     -2.28      0.00
    1    1    8      0.79      0.00
    1    1    9     -0.85      0.00
    1    1   10     -1.54      0.00
    1    1   11      2.26      0.00
    1    1   12      0.52      0.00
    1    1   13      0.61      0.00
    1    1   14     -0.75      0.00
   -1    2   15     -1.06      0.00
   -1    2   14     -0.59      0.00
   -1    2   13     -1.34      0.00
   -1    2   12     -0.11      0.00
   -1    2   11     -0.26      0.00
   -1    2   10     -0.21      0.00
   -1    2    9     -0.24      0.00
   -1    2    8     -0.06      0.00
   -1    2    7      4.03      0.00
   -1    2    6     -3.40      0.00
   -1    2    5      3.73      0.00
   -1    2    4     -2.52      0.00
   -1    2    3      8.51      0.00
   -1    2    2     -8.58      0.00
   -1    2    1     31.47      0.00
    1    2    1     16.61      0.00
    1    2    2     -6.38      0.00
    1    2    3    -14.17      0.00
    1    2    4     -3.27      0.00
    1    2    5     -0.89      0.00
    1    2    6     -0.26      0.00
    1    2    7     -0.35      0.00
    1    2    8      0.89      0.00
    1    2    9      0.01      0.00
    1    2   10     -0.26      0.00
    1    2   11      1.37      0.00
    1    2   12     -0.70      0.00
    1    2   13     -1.26      0.00
    1    2   14     -1.71      0.00
   -1    3   14     -0.50      0.00
   -1    3   13      0.55      0.00
   -1    3   12      0.69      0.00
   -1    3   11      0.15      0.00
   -1    3   10     -0.23      0.00
   -1    3    9     -0.19      0.00
   -1    3    8     -0.25      0.00
   -1    3    7      1.14      0.00
   -1    3    6     -1.62      0.00
   -1    3    5     -0.98      0.00
   -1    3    4      2.73      0.00
   -1    3    3     -0.23      0.00
   -1    3    2     15.56      0.00
   -1    3    1    -24.64      0.00
    1    3    0    -28.46      0.00
    1    3    1     16.94      0.00
    1    3    2      1.64      0.00
    1    3    3     -3.13      0.00
    1    3    4      3.21      0.00
    1    3    5      4.26      0.00
    1    3    6     -0.75      0.00
    1    3    7      0.67      0.00
    1    3    8      0.01      0.00
    1    3    9     -0.14      0.00
    1    3   10      0.96      0.00
    1    3   11     -3.07      0.00
    1    3   12     -0.52      0.00
    1    3   13      1.78      0.00
    1    3   14      1.71      0.00
   -1    4   14     -0.31      0.00
   -1    4   13      0.57      0.00
   -1    4   12      0.02      0.00
   -1    4   11      0.20      0.00
   -1    4   10     -0.87      0.00
   -1    4    9      1.79      0.00
   -1    4    8      1.11      0.00
   -1    4    7     -1.51      0.00
   -1    4    6      2.55      0.00
   -1    4    5     -2.72      0.00
   -1    4    4     -1.46      0.00
   -1    4    3    -10.33      0.00
   -1    4    2     -4.81      0.00
   -1    4    1    -25.62      0.00
    1    4    0     20.15      0.00
    1    4    1     -7.36      0.00
    1    4    2      8.14      0.00
    1    4    3      2.12      0.00
    1    4    4     -0.07      0.00
    1    4    5     -2.14      0.00
    1    4    6     -0.27      0.00
    1    4    7     -0.18      0.00
    1    4    8     -0.97      0.00
    1    4    9      0.09      0.00
    1    4   10      1.38      0.00
    1    4   11     -1.00      0.00
    1    4   12     -0.48      0.00
    1    4   13     -0.13      0.00
    1    4   14      1.56      0.00
   -1    5   14      0.11      0.00
   -1    5   13     -0.48      0.00
   -1    5   12     -0.65      0.00
   -1    5   11      0.05      0.00
   -1    5   10     -0.65      0.00
   -1    5    9      0.13      0.00
   -1    5    8      1.12      0.00
   -1    5    7     -0.18      0.00
   -1    5    6      2.14      0.00
   -1    5    5      0.80      0.00
   -1    5    4     -2.19      0.00
   -1    5    3      3.71      0.00
   -1    5    1     16.61      0.00
    1    5    0     14.82      0.00
    1    5    1     -5.89      0.00
    1    5    2     -3.29      0.00
    1    5    3     -1.15      0.00
    1    5    4     -2.38      0.00
    1    5    5     -1.32      0.00
    1    5    6     -1.27      0.00
    1    5    7     -1.60      0.00
    1    5    8     -0.12      0.00
    1    5    9      1.58      0.00
    1    5   10     -1.03      0.00
    1    5   11      3.48      0.00
    1    5   12      2.88      0.00
    1    5   13     -0.28      0.00
    1    5   14     -0.77      0.00
   -1    6   14      0.09      0.00
   -1    6   13      0.27      0.00
   -1    6   12      0.25      0.00
   -1    6   11     -0.16      0.00
   -1    6   10      1.69      0.00
   -1    6    9     -0.74      0.00
   -1    6    8      0.83      0.00
   -1    6    7      0.30      0.00
   -1    6    6     -1.87      0.00
   -1    6    5     -0.31      0.00
   -1    6    4      1.28      0.00
   -1    6    3      3.06      0.00
   -1    6    2     -0.32      0.00
   -1    6    1      7.58      0.00
    1    6    0    -11.06      0.00
    1    6    1     10.78      0.00
    1    6    2     -2.98      0.00
    1    6    3     -0.75      0.00
    1    6    4     -2.98      0.00
    1    6    5      4.85      0.00
    1    6    6      1.14      0.00
    1    6    7     -0.34      0.00
    1    6    8      0.14      0.00
    1    6    9      0.54      0.00
    1    6   10     -1.52      0.00
    1    6   11     -0.63      0.00
    1    6   12     -0.47      0.00
    1    6   13      0.34      0.00
    1    6   14     -0.99      0.00
   -1    7   14      0.67      0.00
   -1    7   13     -0.16      0.00
   -1    7   12     -0.05      0.00
   -1    7   11     -0.39      0.00
   -1    7   10      1.11      0.00
   -1    7    9      0.31      0.00
   -1    7    8     -1.42      0.00
   -1    7    7     -0.86      0.00
   -1    7    6     -2.05      0.00
   -1    7    5     -0.68      0.00
   -1    7    4     -0.88      0.00
   -1    7    3     -2.68      0.00
   -1    7    2      2.00      0.00
   -1    7    1     -0.53      0.00
    1    7    0    -10.38      0.00
    1    7    1     -0.63      0.00
    1    7    2      2.22      0.00
    1    7    3     -0.04      0.00
    1    7    4     -0.20      0.00
    1    7    5     -2.39      0.00
    1    7    6      0.05      0.00
    1    7    7      0.39      0.00
    1    7    8      0.23      0.00
    1    7    9     -1.40      0.00
    1    7   10      1.66      0.00
    1    7   11     -0.45      0.00
    1    7   12     -1.01      0.00
    1    7   13      0.60      0.00
    1    7   14      1.36      0.00
   -1    8   14     -1.30      0.00
   -1    8   13     -1.26      0.00
   -1    8   12     -0.09      0.00
   -1    8   11      0.08      0.00
   -1    8   10     -1.04      0.00
   -1    8    9      0.85      0.00
   -1    8    8     -0.97      0.00
   -1    8    7     -0.24      0.00
   -1    8    6      0.46      0.00
   -1    8    5      0.21      0.00
   -1    8    4     -2.90      0.00
   -1    8    3      0.16      0.00
   -1    8    2      2.68      0.00
   -1    8    1     -2.79      0.00
    1    8    0      7.46      0.00
    1    8    1     -4.98      0.00
    1    8    2      1.15      0.00
    1    8    3     -1.79      0.00
    1    8    4      2.10      0.00
    1    8    5     -2.37      0.00
    1    8    6     -0.20      0.00
    1    8    7     -1.88      0.00
    1    8    8     -1.01      0.00
    1    8    9     -0.41      0.00
    1    8   10      0.09      0.00
    1    8   11     -0.49      0.00
    1    8   12     -1.15      0.00
    1    8   13     -1.30      0.00
   -1    9   13      0.97      0.00
   -1    9   12      0.79      0.00
   -1    9   11      1.36      0.00
   -1    9   10      1.38      0.00
   -1    9    9      0.79      0.00
   -1    9    8      1.00      0.00
   -1    9    7      0.81      0.00
   -1    9    6      1.43      0.00
   -1    9    5      0.30      0.00
   -1    9    4      0.89      0.00
   -1    9    3      0.20      0.00
   -1    9    2     -0.46      0.00
   -1    9    1     -1.72      0.00
    1    9    0      5.29      0.00
    1    9    1      4.27      0.00
    1    9    2      2.61      0.00
    1    9    3      0.99      0.00
    1    9    4     -1.50      0.00
    1    9    5      1.00      0.00
    1    9    6     -0.88      0.00
    1    9    7     -2.16      0.00
    1    9    8     -1.74      0.00
    1    9    9      0.39      0.00
    1    9   10     -0.25      0.00
    1    9   11     -0.19      0.00
    1    9   12      0.08      0.00
    1    9   13      0.48      0.00
   -1   10   13     -1.03      0.00
   -1   10   12     -0.42      0.00
   -1   10   11      0.27      0.00
   -1   10   10      0.33      0.00
   -1   10    9     -0.37      0.00
   -1   10    8      0.35      0.00
   -1   10    7      1.14      0.00
   -1   10    6      0.63      0.00
   -1   10    5     -0.43      0.00
   -1   10    4      0.84      0.00
   -1   10    3     -1.31      0.00
   -1   10    2     -0.97      0.00
   -1   10    1      4.80      0.00
    1   10    0     -4.60      0.00
    1   10    1      1.53      0.00
    1   10    2     -1.69      0.00
    1   10    3     -0.81      0.00
    1   10    4     -2.24      0.00
    1   10    5      0.70      0.00
    1   10    6      0.06      0.00
    1   10    7      1.03      0.00
    1   10    8      0.60      0.00
    1   10    9      0.53      0.00
    1   10   10      1.64      0.00
    1   10   11      0.75      0.00
    1   10   12      1.44      0.00
    1   10   13      0.55      0.00
   -1   11   13     -0.34      0.00
   -1   11   12      0.45      0.00
   -1   11   11      0.75      0.00
   -1   11   10     -0.76      0.00
   -1   11    9     -0.15      0.00
   -1   11    8     -0.34      0.00
   -1   11    7     -0.40      0.00
   -1   11    6      0.20      0.00
   -1   11    5     -0.24      0.00
   -1   11    4     -0.05      0.00
   -1   11    3      0.17      0.00
   -1   11    2      1.63      0.00
   -1   11    1      2.57      0.00
    1   11    0     -2.08      0.00
    1   11    1     -0.42      0.00
    1   11    2     -0.01      0.00
    1   11    3     -0.38      0.00
    1   11    4     -0.21      0.00
    1   11    5     -0.06      0.00
    1   11    6      1.30      0.00
    1   11    7      1.49      0.00
    1   11    8     -1.02      0.00
    1   11    9     -0.13      0.00
    1   11   10      0.88      0.00
    1   11   11      1.85      0.00
    1   11   12      1.38      0.00
    1   11   13     -0.62      0.00
   -1   12   13      1.32      0.00
   -1   12   12      0.22      0.00
   -1   12   11     -0.01      0.00
   -1   12   10      0.20      0.00
   -1   12    9     -0.34      0.00
   -1   12    8      0.67      0.00
   -1   12    7      0.45      0.00
   -1   12    6      0.95      0.00
   -1   12    5     -0.73      0.00
   -1   12    4     -2.31      0.00
   -1   12    3     -0.33      0.00
   -1   12    2      0.94      0.00
   -1   12    1     -3.37      0.00
    1   12    0      1.30      0.00
    1   12    1     -2.39      0.00
    1   12    2      0.85      0.00
    1   12    3      0.63      0.00
    1   12    4      0.95      0.00
    1   12    5      0.30      0.00
    1   12    6      0.33      0.00
    1   12    7      0.80      0.00
    1   12    8     -0.16      0.00
    1   12    9     -0.74      0.00
    1   12   10     -1.67      0.00
    1   12   11     -0.14      0.00
    1   12   12     -2.55      0.00
   -1   13   12      1.22      0.00
   -1   13   11     -0.56      0.00
   -1   13   10      0.58      0.00
   -1   13    9      0.27      0.00
   -1   13    8     -0.41      0.00
   -1   13    7      0.51      0.00
   -1   13    6     -0.17      0.00
   -1   13    5      0.08      0.00
   -1   13    4     -1.57      0.00
   -1   13    3      2.52      0.00
   -1   13    2      1.29      0.00
   -1   13    1     -0.42      0.00
    1   13    0      1.62      0.00
    1   13    1      0.84      0.00
    1   13    2      0.83      0.00
    1   13    3      0.13      0.00
    1   13    4      0.18      0.00
    1   13    5     -0.50      0.00
    1   13    6      0.05      0.00
    1   13    7     -0.92      0.00
    1   13    8      1.33      0.00
    1   13    9     -0.78      0.00
    1   13   10     -0.26      0.00
    1   13   11     -0.66      0.00
    1   13   12     -0.44      0.00
   -1   14   12      0.34      0.00
   -1   14   11     -0.15      0.00
   -1   14   10     -0.39      0.00
   -1   14    9      0.24      0.00
   -1   14    8     -0.36      0.00
   -1   14    7      0.40      0.00
   -1   14    6      0.60      0.00
   -1   14    5     -0.11      0.00
   -1   14    4     -0.09      0.00
   -1   14    3      0.70      0.00
   -1   14    2      0.41      0.00
   -1   14    1      1.41      0.00
    1   14    0     -0.78      0.00
    1   14    1      1.47      0.00
    1   14    2     -0.64      0.00
    1   14    3      0.32      0.00
    1   14    4     -0.06      0.00
    1   14    5     -0.24      0.00
    1   14    6      0.64      0.00
    1   14    7     -0.20      0.00
    1   14    8     -0.14      0.00
    1   14    9      0.02      0.00
    1   14   10     -0.74      0.00
    1   14   11     -1.34      0.00
   -1   15   11      1.09      0.00
   -1   15   10      0.44      0.00
   -1   15    9     -1.30      0.00
   -1   15    8      0.05      0.00
   -1   15    7     -0.14      0.00
   -1   15    6     -0.03      0.00
   -1   15    5     -1.75      0.00
   -1   15    4      1.14      0.00
   -1   15    3     -0.83      0.00
   -1   15    2     -0.06      0.00
   -1   15    1     -0.67      0.00
    1   15    0     -0.09      0.00
    1   15    1      0.31      0.00
    1   15    2     -0.85      0.00
    1   15    3     -0.21      0.00
    1   15    4      0.36      0.00
    1   15    5      0.98      0.00
    1   15    6     -0.53      0.00
    1   15    7      0.44      0.00
    1   15    8     -1.22      0.00
    1   15    9     -0.13      0.00
    1   15   10     -1.76      0.00
    1   15   11     -0.22      0.00
   -1   16   11      0.58      0.00
   -1   16   10     -0.11      0.00
   -1   16    9     -1.25      0.00
   -1   16    8     -0.17      0.00
   -1   16    7      1.59      0.00
   -1   16    6     -0.28      0.00
   -1   16    5      0.65      0.00
   -1   16    4      0.75      0.00
   -1   16    3     -0.18      0.00
   -1   16    2     -0.82      0.00
   -1   16    1     -1.33      0.00
    1   16    0     -0.28      0.00
    1   16    1     -1.59      0.00
    1   16    2      0.14      0.00
    1   16    3     -1.09      0.00
    1   16    4     -0.79      0.00
    1   16    5      0.05      0.00
    1   16    6      0.30      0.00
    1   16    7      0.58      0.00
    1   16    8      0.88      0.00
    1   16    9     -0.38      0.00
    1   16   10      1.35      0.00
   -1   17   10     -1.90      0.00
   -1   17    9     -0.32      0.00
   -1   17    8     -0.32      0.00
   -1   17    7      1.18      0.00
   -1   17    6     -0.95      0.00
   -1   17    5     -0.21      0.00
   -1   17    4     -1.10      0.00
   -1   17    3      0.58      0.00
   -1   17    2      0.21      0.00
   -1   17    1     -0.08      0.00
    1   17    0      0.82      0.00
    1   17    1      0.70      0.00
    1   17    2      1.50      0.00
    1   17    3      0.48      0.00
    1   17    4     -0.35      0.00
    1   17    5      0.02      0.00
    1   17    6      0.97      0.00
    1   17    7     -0.77      0.00
    1   17    8      0.23      0.00
    1   17    9      1.02      0.00
    1   17   10      2.00      0.00
   -1   18    9      0.51      0.00
   -1   18    8      1.48      0.00
   -1   18    7     -0.18      0.00
   -1   18    6      0.40      0.00
   -1   18    5     -1.48      0.00
   -1   18    4      0.21      0.00
   -1   18    3      0.13      0.00
   -1   18    2      0.10      0.00
   -1   18    1      0.43      0.00
    1   18    0     -0.22      0.00
    1   18    1      1.10      0.00
    1   18    2     -1.17      0.00
    1   18    3     -0.30      0.00
    1   18    4     -0.29      0.00
    1   18    5     -0.13      0.00
    1   18    6     -0.86      0.00
    1   18    7     -0.91      0.00
    1   18    8     -1.09      0.00
    1   18    9      0.99      0.00
   -1   19    9      2.06      0.00
   -1   19    8      2.75      0.00
   -1   19    7     -0.78      0.00
   -1   19    6      0.87      0.00
   -1   19    5     -0.59      0.00
   -1   19    4     -0.29      0.00
   -1   19    3     -0.88      0.00
   -1   19    2     -0.45      0.00
   -1   19    1      0.94      0.00
    1   19    0     -0.31      0.00
    1   19    1     -0.31      0.00
    1   19    2      0.03      0.00
    1   19    3      0.08      0.00
    1   19    4      0.26      0.00
    1   19    5      0.13      0.00
    1   19    6     -0.18      0.00
    1   19    7      1.34      0.00
    1   19    8      1.17      0.00
   -1   20    8     -1.33      0.00
   -1   20    7     -1.01      0.00
   -1   20    6     -1.76      0.00
   -1   20    5     -0.05      0.00
   -1   20    4     -1.64      0.00
   -1   20    3     -0.02      0.00
   -1   20    2      0.14      0.00
   -1   20    1      0.27      0.00
    1   20    0      0.73      0.00
    1   20    1     -0.80      0.00
    1   20    2      1.61      0.00
    1   20    3      0.70      0.00
    1   20    4     -0.08      0.00
    1   20    5     -0.69      0.00
    1   20    6      0.66      0.00
    1   20    7     -0.23      0.00
   -1   21    7      2.91      0.00
   -1   21    6     -0.49      0.00
   -1   21    5      0.51      0.00
   -1   21    4     -0.33      0.00
   -1   21    3      0.09      0.00
   -1   21    2      1.71      0.00
   -1   21    1      0.21      0.00
    1   21    0     -0.44      0.00
    1   21    1      0.72      0.00
    1   21    2     -0.27      0.00
    1   21    3      0.61      0.00
    1   21    4      0.48      0.00
    1   21    5     -0.11      0.00
    1   21    6      0.35      0.00
   -1   22    5     -1.38      0.00
   -1   22    4      1.01      0.00
   -1   22    3      0.96      0.00
   -1   22    2      1.28      0.00
   -1   22    1      0.75      0.00
    1   22    0     -0.23      0.00
    1   22    1      0.79      0.00
    1   22    2     -0.05      0.00
    1   22    3      0.46      0.00
    1   22    4      0.86      0.00
    1   22    5      1.33      0.00
   -1   23    3      2.42      0.00
   -1   23    2      0.22      0.00
   -1   23    1      0.94      0.00
    1   23    0     -0.18      0.00
    1   23    1     -0.84      0.00
    1   23    2     -0.65      0.00
    1   23    3     -1.97      0.00
   -2    0   15      1.64      0.00
   -2    0   14      0.39      0.00
   -2    0   13     -0.74      0.00
   -2    0   12     -1.42      0.00
   -2    0   11     -0.14      0.00
   -2    0   10      1.25      0.00
   -2    0    9     -0.49      0.00
   -2    0    8      1.36      0.00
   -2    0    7     -3.50      0.00
   -2    0    6      1.87      0.00
   -2    0    5     -3.40      0.00
   -2    0    4      0.49      0.00
   -2    0    3      3.86      0.00
   -2    0    2      2.78      0.00
   -2    0    1      2.85      0.00
    2    0    0     -6.96      0.00
    2    0    1      1.15      0.00
    2    0    2     13.49      0.00
    2    0    3     11.67      0.00
    2    0    4      2.11      0.00
    2    0    5      1.61      0.00
    2    0    6      1.92      0.00
    2    0    7      2.94      0.00
    2    0    8     -0.09      0.00
    2    0    9      0.57      0.00
    2    0   10      3.33      0.00
    2    0   11     -2.02      0.00
    2    0   12     -2.30      0.00
    2    0   13     -0.58      0.00
    2    0   14     -0.06      0.00
   -2    1   15      0.76      0.00
   -2    1   14     -1.94      0.00
   -2    1   13     -0.57      0.00
   -2    1   12     -0.10      0.00
   -2    1   11     -0.43      0.00
   -2    1   10     -0.98      0.00
   -2    1    9     -1.29      0.00
   -2    1    8     -1.73      0.00
   -2    1    7      2.19      0.00
   -2    1    6     -4.18      0.00
   -2    1    5      0.69      0.00
   -2    1    4     -8.75      0.00
   -2    1    3      0.81      0.00
   -2    1    2    -32.08      0.00
   -2    1    1     14.96      0.00
    2    1    1      1.72      0.00
    2    1    2      1.38      0.00
    2    1    3     19.38      0.00
    2    1    4      6.76      0.00
    2    1    5      0.28      0.00
    2    1    6     -0.14      0.00
    2    1    7     -0.42      0.00
    2    1    8      1.17      0.00
    2    1    9      0.46      0.00
    2    1   10     -0.71      0.00
    2    1   11      0.39      0.00
    2    1   12      2.49      0.00
    2    1   13     -0.36      0.00
    2    1   14      1.26      0.00
   -2    2   15     -1.63      0.00
   -2    2   14     -0.58      0.00
   -2    2   13     -0.11      0.00
   -2    2   12      0.64      0.00
   -2    2   11     -0.10      0.00
   -2    2   10     -0.64      0.00
   -2    2    9      1.42      0.00
   -2    2    8      0.24      0.00
   -2    2    7      3.70      0.00
   -2    2    6     -2.53      0.00
   -2    2    5      2.38      0.00
   -2    2    4      0.91      0.00
   -2    2    3      0.20      0.00
   -2    2    2      7.27      0.00
   -2    2    1      9.35      0.00
    2    2    0     12.26      0.00
    2    2    1      7.09      0.00
    2    2    2     -2.41      0.00
    2    2    3     -1.73      0.00
    2    2    4     -1.41      0.00
    2    2    5     -2.46      0.00
    2    2    6     -0.05      0.00
    2    2    7     -0.97      0.00
    2    2    8      0.17      0.00
    2    2    9      0.43      0.00
    2    2   10     -1.76      0.00
    2    2   11      2.49      0.00
    2    2   12      1.21      0.00
    2    2   13     -1.63      0.00
    2    2   14     -0.98      0.00
   -2    3   15     -0.40      0.00
   -2    3   14      0.71      0.00
   -2    3   13     -0.03      0.00
   -2    3   12     -0.07      0.00
   -2    3   11      0.32      0.00
   -2    3   10     -0.05      0.00
   -2    3    9      0.58      0.00
   -2    3    8      0.14      0.00
   -2    3    7     -2.70      0.00
   -2    3    6      1.53      0.00
   -2    3    5     -2.55      0.00
   -2    3    4      1.49      0.00
   -2    3    3     -8.54      0.00
   -2    3    2     11.86      0.00
   -2    3    1    -22.50      0.00
    2    3    0    -19.05      0.00
    2    3    1      5.24      0.00
    2    3    2      3.12      0.00
    2    3    3     -2.04      0.00
    2    3    4      1.88      0.00
    2    3    5      0.84      0.00
    2    3    6     -0.26      0.00
    2    3    7      1.49      0.00
    2    3    8      0.32      0.00
    2    3    9     -1.06      0.00
    2    3   10      0.78      0.00
    2    3   11      1.69      0.00
    2    3   12     -0.74      0.00
    2    3   13      1.13      0.00
    2    3   14     -1.66      0.00
   -2    4   14     -0.15      0.00
   -2    4   13      0.26      0.00
   -2    4   12     -0.46      0.00
   -2    4   11      0.41      0.00
   -2    4   10      0.32      0.00
   -2    4    9     -0.32      0.00
   -2    4    8      1.10      0.00
   -2    4    7     -1.24      0.00
   -2    4    6      2.41      0.00
   -2    4    5     -3.66      0.00
   -2    4    4     -5.10      0.00
   -2    4    3     -0.87      0.00
   -2    4    2     -0.85      0.00
   -2    4    1      0.33      0.00
    2    4    0      2.38      0.00
    2    4    1     -5.18      0.00
    2    4    2      2.41      0.00
    2    4    3      1.25      0.00
    2    4    4      4.59      0.00
    2    4    5      2.12      0.00
    2    4    6     -0.27      0.00
    2    4    7      0.83      0.00
    2    4    8      0.00      0.00
    2    4    9     -1.46      0.00
    2    4   10      1.36      0.00
    2    4   11     -2.52      0.00
    2    4   12     -1.85      0.00
    2    4   13      1.77      0.00
    2    4   14      1.23      0.00
   -2    5   14      0.34      0.00
   -2    5   13      0.54      0.00
   -2    5   12     -0.16      0.00
   -2    5   11     -0.58      0.00
   -2    5   10      0.32      0.00
   -2    5    9     -0.29      0.00
   -2    5    8      0.65      0.00
   -2    5    7      0.28      0.00
   -2    5    6     -0.92      0.00
   -2    5    5      0.84      0.00
   -2    5    4      1.21      0.00
   -2    5    3      7.97      0.00
   -2    5    2     -1.79      0.00
   -2    5    1     12.26      0.00
    2    5    0     13.05      0.00
    2    5    1     -4.74      0.00
    2    5    2     -0.72      0.00
    2    5    3     -1.43      0.00
    2    5    4      0.14      0.00
    2    5    5     -2.83      0.00
    2    5    6     -1.79      0.00
    2    5    7     -0.16      0.00
    2    5    8      0.29      0.00
    2    5    9      0.93      0.00
    2    5   10      0.03      0.00
    2    5   11     -0.01      0.00
    2    5   12      2.23      0.00
    2    5   13     -0.19      0.00
    2    5   14      2.21      0.00
   -2    6   14      0.32      0.00
   -2    6   13     -0.57      0.00
   -2    6   12      0.08      0.00
   -2    6   11     -0.49      0.00
   -2    6   10      0.88      0.00
   -2    6    9      0.74      0.00
   -2    6    8     -0.67      0.00
   -2    6    7      0.64      0.00
   -2    6    6     -2.16      0.00
   -2    6    5      0.31      0.00
   -2    6    4      0.44      0.00
   -2    6    3     -1.04      0.00
   -2    6    2     -0.51      0.00
   -2    6    1      4.91      0.00
    2    6    0     -2.83      0.00
    2    6    1      3.86      0.00
    2    6    2     -5.79      0.00
    2    6    3      0.04      0.00
    2    6    4      0.41      0.00
    2    6    5      3.11      0.00
    2    6    6     -0.30      0.00
    2    6    7     -0.76      0.00
    2    6    8      1.01      0.00
    2    6    9      1.94      0.00
    2    6   10     -1.91      0.00
    2    6   11      0.86      0.00
    2    6   12      1.50      0.00
    2    6   13     -0.69      0.00
   -2    7   14     -0.18      0.00
   -2    7   13     -1.35      0.00
   -2    7   12      0.83      0.00
   -2    7   11      0.99      0.00
   -2    7   10     -0.38      0.00
   -2    7    9      0.44      0.00
   -2    7    8     -0.72      0.00
   -2    7    7      0.18      0.00
   -2    7    6     -1.18      0.00
   -2    7    5     -0.51      0.00
   -2    7    4     -2.30      0.00
   -2    7    3     -2.07      0.00
   -2    7    2      3.22      0.00
   -2    7    1     -5.22      0.00
    2    7    0     -5.26      0.00
    2    7    1      5.58      0.00
    2    7    2     -2.13      0.00
    2    7    3     -0.39      0.00
    2    7    4     -2.48      0.00
    2    7    5      1.57      0.00
    2    7    6      0.00      0.00
    2    7    7     -0.62      0.00
    2    7    8      0.35      0.00
    2    7    9     -0.51      0.00
    2    7   10      0.06      0.00
    2    7   11      0.74      0.00
    2    7   12      0.37      0.00
    2    7   13      1.85      0.00
   -2    8   14     -1.22      0.00
   -2    8   13      0.74      0.00
   -2    8   12      0.39      0.00
   -2    8   11      0.58      0.00
   -2    8   10     -0.07      0.00
   -2    8    9      0.57      0.00
   -2    8    8      1.02      0.00
   -2    8    7     -0.22      0.00
   -2    8    6      2.03      0.00
   -2    8    5      0.79      0.00
   -2    8    4      0.05      0.00
   -2    8    3     -0.27      0.00
   -2    8    2      2.91      0.00
   -2    8    1     -6.33      0.00
    2    8    0      2.12      0.00
    2    8    1     -5.42      0.00
    2    8    2      0.50      0.00
    2    8    3     -1.80      0.00
    2    8    4      0.04      0.00
    2    8    5     -2.91      0.00
    2    8    6     -0.64      0.00
    2    8    7     -0.19      0.00
    2    8    8      0.12      0.00
    2    8    9     -0.47      0.00
    2    8   10      0.45      0.00
    2    8   11     -1.12      0.00
    2    8   12     -0.98      0.00
    2    8   13     -0.90      0.00
   -2    9   14     -0.23      0.00
   -2    9   13      1.29      0.00
   -2    9   12     -0.46      0.00
   -2    9   11      0.54      0.00
   -2    9   10      1.86      0.00
   -2    9    9      0.51      0.00
   -2    9    8      0.54      0.00
   -2    9    7      0.81      0.00
   -2    9    6      1.35      0.00
   -2    9    5     -0.89      0.00
   -2    9    4      1.35      0.00
   -2    9    3      2.07      0.00
   -2    9    2     -0.63      0.00
   -2    9    1      3.69      0.00
    2    9    0      6.17      0.00
    2    9    1     -1.12      0.00
    2    9    2      0.45      0.00
    2    9    3     -1.88      0.00
    2    9    4      1.39      0.00
    2    9    5     -0.73      0.00
    2    9    6     -1.22      0.00
    2    9    7     -2.40      0.00
    2    9    8     -1.99      0.00
    2    9    9      0.32      0.00
    2    9   10     -0.42      0.00
    2    9   11     -0.79      0.00
    2    9   12     -1.72      0.00
    2    9   13     -0.67      0.00
   -2   10   13     -1.27      0.00
   -2   10   12      0.48      0.00
   -2   10   11      0.40      0.00
   -2   10   10     -0.45      0.00
   -2   10    9     -0.49      0.00
   -2   10    8     -0.83      0.00
   -2   10    7      0.35      0.00
   -2   10    6     -0.47      0.00
   -2   10    5     -1.15      0.00
   -2   10    4     -0.34      0.00
   -2   10    3      1.03      0.00
   -2   10    2     -2.23      0.00
   -2   10    1      5.83      0.00
    2   10    0     -1.96      0.00
    2   10    1      3.78      0.00
    2   10    2      0.46      0.00
    2   10    3     -0.38      0.00
    2   10    4     -0.42      0.00
    2   10    5      0.79      0.00
    2   10    6     -1.34      0.00
    2   10    7     -1.75      0.00
    2   10    8      0.62      0.00
    2   10    9      1.31      0.00
    2   10   10      1.15      0.00
    2   10   11      0.60      0.00
    2   10   12     -1.05      0.00
   -2   11   13      0.56      0.00
   -2   11   12      0.99      0.00
   -2   11   11      0.32      0.00
   -2   11   10     -0.32      0.00
   -2   11    9     -0.35      0.00
   -2   11    8      0.56      0.00
   -2   11    7      0.03      0.00
   -2   11    6      0.42      0.00
   -2   11    5     -0.89      0.00
   -2   11    4     -0.96      0.00
   -2   11    3      0.16      0.00
   -2   11    2      3.14      0.00
   -2   11    1     -3.34      0.00
    2   11    0     -1.26      0.00
    2   11    1      2.20      0.00
    2   11    2     -0.64      0.00
    2   11    3     -0.58      0.00
    2   11    4     -0.59      0.00
    2   11    5      1.32      0.00
    2   11    6      0.73      0.00
    2   11    7      0.01      0.00
    2   11    8      0.14      0.00
    2   11    9      0.21      0.00
    2   11   10      1.97      0.00
    2   11   11      1.33      0.00
    2   11   12      3.87      0.00
   -2   12   13      1.64      0.00
   -2   12   12      0.04      0.00
   -2   12   11     -0.88      0.00
   -2   12   10     -0.01      0.00
   -2   12    9     -0.02      0.00
   -2   12    8      0.73      0.00
   -2   12    7      0.78      0.00
   -2   12    6     -0.73      0.00
   -2   12    5     -0.43      0.00
   -2   12    4     -0.77      0.00
   -2   12    3      1.05      0.00
   -2   12    2      1.67      0.00
   -2   12    1     -4.72      0.00
    2   12    0      1.17      0.00
    2   12    1     -0.30      0.00
    2   12    2     -0.28      0.00
    2   12    3     -0.90      0.00
    2   12    4     -1.33      0.00
    2   12    5      1.04      0.00
    2   12    6      1.32      0.00
    2   12    7      1.56      0.00
    2   12    8     -1.09      0.00
    2   12    9      0.15      0.00
    2   12   10      0.02      0.00
    2   12   11     -0.10      0.00
    2   12   12      0.66      0.00
   -2   13   12      0.89      0.00
   -2   13   11     -0.25      0.00
   -2   13   10     -0.49      0.00
   -2   13    9      0.11      0.00
   -2   13    8     -1.38      0.00
   -2   13    7      0.03      0.00
   -2   13    6     -0.17      0.00
   -2   13    5      1.20      0.00
   -2   13    4     -0.03      0.00
   -2   13    3      1.41      0.00
   -2   13    2     -1.37      0.00
   -2   13    1      1.67      0.00
    2   13    0      0.60      0.00
    2   13    1     -1.00      0.00
    2   13    2      0.94      0.00
    2   13    3      0.51      0.00
    2   13    4     -0.41      0.00
    2   13    5      0.16      0.00
    2   13    6      0.31      0.00
    2   13    7     -0.64      0.00
    2   13    8     -0.82      0.00
    2   13    9     -0.64      0.00
    2   13   10     -0.44      0.00
    2   13   11      1.56      0.00
   -2   14   12     -0.72      0.00
   -2   14   11      0.38      0.00
   -2   14   10     -0.45      0.00
   -2   14    9     -0.90      0.00
   -2   14    8      0.83      0.00
   -2   14    7      0.36      0.00
   -2   14    6      0.63      0.00
   -2   14    5     -1.24      0.00
   -2   14    4      0.89      0.00
   -2   14    3     -0.39      0.00
   -2   14    2     -1.45      0.00
   -2   14    1      0.51      0.00
    2   14    0     -0.56      0.00
    2   14    1      0.25      0.00
    2   14    2      0.69      0.00
    2   14    3      0.19      0.00
    2   14    4      0.04      0.00
    2   14    5     -0.73      0.00
    2   14    6      1.53      0.00
    2   14    7      0.31      0.00
    2   14    8      1.21      0.00
    2   14    9     -0.06      0.00
    2   14   10     -0.19      0.00
    2   14   11     -0.71      0.00
   -2   15   11      0.25      0.00
   -2   15   10      0.00      0.00
   -2   15    9     -1.47      0.00
   -2   15    8      0.47      0.00
   -2   15    7      0.38      0.00
   -2   15    6     -1.08      0.00
   -2   15    5     -0.87      0.00
   -2   15    4      1.50      0.00
   -2   15    3     -1.23      0.00
   -2   15    2     -0.90      0.00
   -2   15    1     -1.63      0.00
    2   15    0      0.18      0.00
    2   15    1      2.10      0.00
    2   15    2      1.20      0.00
    2   15    3      0.28      0.00
    2   15    4      0.50      0.00
    2   15    5     -0.20      0.00
    2   15    6     -0.23      0.00
    2   15    7      0.45      0.00
    2   15    8     -0.93      0.00
    2   15    9      0.31      0.00
    2   15   10     -0.18      0.00
   -2   16   11     -0.87      0.00
   -2   16   10     -0.82      0.00
   -2   16    9     -0.03      0.00
   -2   16    8     -0.78      0.00
   -2   16    7      1.49      0.00
   -2   16    6     -0.38      0.00
   -2   16    5      0.56      0.00
   -2   16    4     -1.06      0.00
   -2   16    3     -0.16      0.00
   -2   16    2      1.18      0.00
   -2   16    1      0.59      0.00
    2   16    0     -0.31      0.00
    2   16    1     -0.92      0.00
    2   16    2     -1.03      0.00
    2   16    3     -0.77      0.00
    2   16    4     -0.19      0.00
    2   16    5      0.01      0.00
    2   16    6     -0.86      0.00
    2   16    7      0.40      0.00
    2   16    8     -0.91      0.00
    2   16    9     -2.68      0.00
    2   16   10     -1.92      0.00
   -2   17   10     -0.25      0.00
   -2   17    9      1.98      0.00
   -2   17    8      1.11      0.00
   -2   17    7     -0.41      0.00
   -2   17    6     -0.34      0.00
   -2   17    5     -1.18      0.00
   -2   17    4     -1.15      0.00
   -2   17    3      0.96      0.00
   -2   17    2      1.35      0.00
   -2   17    1      1.06      0.00
    2   17    0      0.23      0.00
    2   17    1     -0.42      0.00
    2   17    2      0.56      0.00
    2   17    3      0.26      0.00
    2   17    4     -0.29      0.00
    2   17    5     -0.40      0.00
    2   17    6      0.28      0.00
    2   17    7      0.10      0.00
    2   17    8      1.94      0.00
    2   17    9     -0.43      0.00
   -2   18    9      1.52      0.00
   -2   18    8      2.62      0.00
   -2   18    7     -1.26      0.00
   -2   18    6      0.23      0.00
   -2   18    5     -0.84      0.00
   -2   18    4      0.47      0.00
   -2   18    3     -0.25      0.00
   -2   18    2     -0.56      0.00
   -2   18    1      0.97      0.00
    2   18    0     -0.27      0.00
    2   18    1      0.91      0.00
    2   18    2      0.46      0.00
    2   18    3      0.63      0.00
    2   18    4     -0.23      0.00
    2   18    5     -0.56      0.00
    2   18    6     -0.65      0.00
    2   18    7     -1.64      0.00
    2   18    8     -1.05      0.00
    2   18    9      1.72      0.00
   -2   19    9      0.75      0.00
   -2   19    8      1.29      0.00
   -2   19    7      0.11      0.00
   -2   19    6     -0.19      0.00
   -2   19    5     -0.34      0.00
   -2   19    4     -0.46      0.00
   -2   19    3      0.45      0.00
   -2   19    2      0.08      0.00
   -2   19    1     -0.03      0.00
    2   19    0      0.93      0.00
    2   19    1      0.66      0.00
    2   19    2     -0.95      0.00
    2   19    3      0.35      0.00
    2   19    4     -0.03      0.00
    2   19    5      0.60      0.00
    2   19    6     -0.29      0.00
    2   19    7      0.30      0.00
    2   19    8      0.58      0.00
   -2   20    8     -2.04      0.00
   -2   20    7      1.51      0.00
   -2   20    6     -0.69      0.00
   -2   20    5      0.66      0.00
   -2   20    4     -0.12      0.00
   -2   20    3      1.28      0.00
   -2   20    2      1.25      0.00
   -2   20    1     -1.01      0.00
    2   20    0      1.44      0.00
    2   20    1     -0.64      0.00
    2   20    2      1.14      0.00
    2   20    3      0.44      0.00
    2   20    4     -0.37      0.00
    2   20    5     -0.08      0.00
    2   20    6     -0.29      0.00
    2   20    7     -0.01      0.00
   -2   21    7      1.60      0.00
   -2   21    6     -0.34      0.00
   -2   21    5      0.40      0.00
   -2   21    4      1.07      0.00
   -2   21    3      0.86      0.00
   -2   21    2      1.78      0.00
   -2   21    1      0.29      0.00
    2   21    0     -1.01      0.00
    2   21    1     -0.28      0.00
    2   21    2      0.60      0.00
    2   21    3     -0.67      0.00
    2   21    4      0.44      0.00
    2   21    5     -0.94      0.00
    2   21    6     -0.29      0.00
   -2   22    5     -0.58      0.00
   -2   22    4      1.66      0.00
   -2   22    3      1.51      0.00
   -2   22    2     -0.39      0.00
   -2   22    1      0.00      0.00
    2   22    0     -1.32      0.00
    2   22    1      1.64      0.00
    2   22    2      0.74      0.00
    2   22    3      1.31      0.00
    2   22    4      2.03      0.00
   -2   23    3      0.51      0.00
   -2   23    2     -0.20      0.00
   -2   23    1      0.62      0.00
    2   23    0     -0.12      0.00
    2   23    1     -1.01      0.00
    2   23    2     -0.77      0.00
   -3    0   15      0.53      0.00
   -3    0   14     -1.42      0.00
   -3    0   13      0.34      0.00
   -3    0   12     -0.24      0.00
   -3    0   11     -0.45      0.00
   -3    0   10      0.14      0.00
   -3    0    9     -1.08      0.00
   -3    0    8     -0.71      0.00
   -3    0    7      0.00      0.00
   -3    0    6     -1.34      0.00
   -3    0    5     -0.95      0.00
   -3    0    4     -4.93      0.00
   -3    0    3      0.57      0.00
   -3    0    2    -12.24      0.00
   -3    0    1      7.70      0.00
    3    0    0     -0.08      0.00
    3    0    1     -2.38      0.00
    3    0    2      3.77      0.00
    3    0    3     -3.46      0.00
    3    0    4     -0.75      0.00
    3    0    5      2.06      0.00
    3    0    6      1.34      0.00
    3    0    7      0.88      0.00
    3    0    8     -0.93      0.00
    3    0    9     -1.06      0.00
    3    0   10      1.20      0.00
    3    0   11     -0.54      0.00
    3    0   12     -3.40      0.00
    3    0   13      1.36      0.00
   -3    1   15     -0.27      0.00
   -3    1   14     -1.79      0.00
   -3    1   13     -0.31      0.00
   -3    1   12      0.46      0.00
   -3    1   11     -0.21      0.00
   -3    1   10     -1.35      0.00
   -3    1    9      0.19      0.00
   -3    1    8     -2.16      0.00
   -3    1    7      2.93      0.00
   -3    1    6     -3.10      0.00
   -3    1    5     -0.04      0.00
   -3    1    4     -5.01      0.00
   -3    1    3     -0.67      0.00
   -3    1    2    -11.42      0.00
   -3    1    1      6.43      0.00
    3    1    0     13.66      0.00
    3    1    1     10.73      0.00
    3    1    2      5.20      0.00
    3    1    3      9.56      0.00
    3    1    4      1.42      0.00
    3    1    5      1.23      0.00
    3    1    6      0.95      0.00
    3    1    7      0.52      0.00
    3    1    8      1.54      0.00
    3    1    9      0.46      0.00
    3    1   10      1.40      0.00
    3    1   11     -0.01      0.00
    3    1   12     -1.24      0.00
    3    1   13      0.59      0.00
   -3    2   15     -0.35      0.00
   -3    2   14      0.55      0.00
   -3    2   13     -0.81      0.00
   -3    2   12     -0.18      0.00
   -3    2   11      0.64      0.00
   -3    2   10      0.16      0.00
   -3    2    9      1.29      0.00
   -3    2    8      0.59      0.00
   -3    2    7     -0.38      0.00
   -3    2    6      0.06      0.00
   -3    2    5     -0.49      0.00
   -3    2    4      2.19      0.00
   -3    2    3     -1.23      0.00
   -3    2    2     14.01      0.00
   -3    2    1      2.63      0.00
    3    2    0      7.61      0.00
    3    2    1      6.39      0.00
    3    2    2     -0.73      0.00
    3    2    3      2.28      0.00
    3    2    4      0.16      0.00
    3    2    5     -1.70      0.00
    3    2    6     -1.14      0.00
    3    2    7     -0.84      0.00
    3    2    8      0.78      0.00
    3    2    9      1.53      0.00
    3    2   10     -0.80      0.00
    3    2   11     -0.48      0.00
    3    2   12      2.26      0.00
    3    2   13     -2.56      0.00
   -3    3   15     -0.06      0.00
   -3    3   14      0.95      0.00
   -3    3   13      0.88      0.00
   -3    3   12     -0.11      0.00
   -3    3   11     -0.22      0.00
   -3    3   10     -0.13      0.00
   -3    3    9     -2.01      0.00
   -3    3    8      0.30      0.00
   -3    3    7     -2.12      0.00
   -3    3    6      1.74      0.00
   -3    3    5     -2.44      0.00
   -3    3    4     -0.82      0.00
   -3    3    3     -2.85      0.00
   -3    3    2      6.36      0.00
   -3    3    1    -11.24      0.00
    3    3    0     -4.50      0.00
    3    3    1      3.72      0.00
    3    3    2      1.07      0.00
    3    3    3     -3.99      0.00
    3    3    4     -0.97      0.00
    3    3    5     -1.33      0.00
    3    3    6      0.71      0.00
    3    3    7      0.67      0.00
    3    3    8     -0.28      0.00
    3    3    9      1.02      0.00
    3    3   10     -0.76      0.00
    3    3   11      0.90      0.00
    3    3   12      1.97      0.00
    3    3   13     -0.42      0.00
   -3    4   14      0.79      0.00
   -3    4   13      0.91      0.00
   -3    4   12     -0.21      0.00
   -3    4   11     -1.20      0.00
   -3    4   10      0.27      0.00
   -3    4    9      0.37      0.00
   -3    4    8      1.43      0.00
   -3    4    7      0.19      0.00
   -3    4    6     -0.72      0.00
   -3    4    5     -1.92      0.00
   -3    4    4     -1.83      0.00
   -3    4    3      2.47      0.00
   -3    4    2     -4.31      0.00
   -3    4    1     -1.27      0.00
    3    4    0     -3.18      0.00
    3    4    1     -0.74      0.00
    3    4    2      4.11      0.00
    3    4    3      4.78      0.00
    3    4    4      2.12      0.00
    3    4    5      2.09      0.00
    3    4    6      1.72      0.00
    3    4    7      0.41      0.00
    3    4    8     -0.45      0.00
    3    4    9     -1.01      0.00
    3    4   10      0.50      0.00
    3    4   11      0.44      0.00
    3    4   12     -3.24      0.00
    3    4   13      0.67      0.00
   -3    5   14     -0.34      0.00
   -3    5   13     -1.12      0.00
   -3    5   12     -0.26      0.00
   -3    5   11     -0.15      0.00
   -3    5   10     -0.12      0.00
   -3    5    9      1.17      0.00
   -3    5    8     -0.18      0.00
   -3    5    7      0.47      0.00
   -3    5    6     -0.20      0.00
   -3    5    5      2.34      0.00
   -3    5    4      1.50      0.00
   -3    5    3      3.52      0.00
   -3    5    2     -4.04      0.00
   -3    5    1      9.95      0.00
    3    5    0      7.16      0.00
    3    5    1     -3.45      0.00
    3    5    2      3.40      0.00
    3    5    3      2.15      0.00
    3    5    4     -0.69      0.00
    3    5    5     -0.71      0.00
    3    5    6     -1.39      0.00
    3    5    7     -0.81      0.00
    3    5    8     -0.97      0.00
    3    5    9     -1.67      0.00
    3    5   10      1.78      0.00
    3    5   11      1.20      0.00
    3    5   12      0.71      0.00
    3    5   13      2.25      0.00
   -3    6   14     -0.35      0.00
   -3    6   13     -0.68      0.00
   -3    6   12      0.80      0.00
   -3    6   11      1.14      0.00
   -3    6   10     -0.41      0.00
   -3    6    9      0.49      0.00
   -3    6    8     -0.16      0.00
   -3    6    7      1.00      0.00
   -3    6    6     -1.72      0.00
   -3    6    5     -1.35      0.00
   -3    6    4     -3.02      0.00
   -3    6    3     -2.16      0.00
   -3    6    2      0.61      0.00
   -3    6    1      1.37      0.00
    3    6    0     -0.45      0.00
    3    6    1     -1.02      0.00
    3    6    2      1.49      0.00
    3    6    3     -0.15      0.00
    3    6    4      1.12      0.00
    3    6    5     -1.38      0.00
    3    6    6     -0.98      0.00
    3    6    7      0.78      0.00
    3    6    8      0.05      0.00
    3    6    9      0.33      0.00
    3    6   10     -0.53      0.00
    3    6   11     -1.23      0.00
    3    6   12      0.70      0.00
    3    6   13     -0.14      0.00
   -3    7   14     -0.27      0.00
   -3    7   13      0.44      0.00
   -3    7   12      0.61      0.00
   -3    7   11      0.36      0.00
   -3    7   10      0.52      0.00
   -3    7    9      0.68      0.00
   -3    7    8      0.34      0.00
   -3    7    7     -0.67      0.00
   -3    7    6     -0.35      0.00
   -3    7    5      0.42      0.00
   -3    7    4      1.64      0.00
   -3    7    3     -2.01      0.00
   -3    7    2      5.51      0.00
   -3    7    1    -10.04      0.00
    3    7    0     -5.20      0.00
    3    7    1      2.98      0.00
    3    7    2     -3.40      0.00
    3    7    3      1.26      0.00
    3    7    4      1.90      0.00
    3    7    5      0.31      0.00
    3    7    6     -0.19      0.00
    3    7    7     -0.20      0.00
    3    7    8     -0.18      0.00
    3    7    9      0.47      0.00
    3    7   10      0.22      0.00
    3    7   11      1.46      0.00
    3    7   12      1.34      0.00
    3    7   13      0.41      0.00
   -3    8   14     -0.19      0.00
   -3    8   13      1.49      0.00
   -3    8   12     -1.03      0.00
   -3    8   11     -0.75      0.00
   -3    8   10      1.33      0.00
   -3    8    9      0.01      0.00
   -3    8    8      0.00      0.00
   -3    8    7     -0.24      0.00
   -3    8    6      2.52      0.00
   -3    8    5      0.13      0.00
   -3    8    4      1.70      0.00
   -3    8    3      1.60      0.00
   -3    8    2      2.84      0.00
   -3    8    1     -0.47      0.00
    3    8    0     -0.91      0.00
    3    8    1     -0.92      0.00
    3    8    2     -2.43      0.00
    3    8    3      0.91      0.00
    3    8    4     -1.09      0.00
    3    8    5     -0.02      0.00
    3    8    6     -0.01      0.00
    3    8    7      0.50      0.00
    3    8    8      1.38      0.00
    3    8    9     -0.52      0.00
    3    8   10      0.09      0.00
    3    8   11      0.26      0.00
    3    8   12      2.04      0.00
    3    8   13      0.43      0.00
   -3    9   14      0.14      0.00
   -3    9   13     -0.45      0.00
   -3    9   12     -0.51      0.00
   -3    9   11      0.69      0.00
   -3    9   10      0.52      0.00
   -3    9    9     -0.36      0.00
   -3    9    8     -0.52      0.00
   -3    9    7      0.48      0.00
   -3    9    6     -0.58      0.00
   -3    9    5     -1.75      0.00
   -3    9    4     -0.95      0.00
   -3    9    3      5.33      0.00
   -3    9    2     -4.04      0.00
   -3    9    1      7.60      0.00
    3    9    0      3.83      0.00
    3    9    1     -3.54      0.00
    3    9    2     -0.53      0.00
    3    9    3     -0.96      0.00
    3    9    4     -0.22      0.00
    3    9    5     -0.23      0.00
    3    9    6     -0.64      0.00
    3    9    7     -0.21      0.00
    3    9    8     -1.13      0.00
    3    9    9     -1.74      0.00
    3    9   10     -2.21      0.00
    3    9   11     -1.28      0.00
    3    9   12     -0.35      0.00
   -3   10   13     -0.67      0.00
   -3   10   12      1.43      0.00
   -3   10   11     -0.02      0.00
   -3   10   10     -1.29      0.00
   -3   10    9     -0.34      0.00
   -3   10    8      0.02      0.00
   -3   10    7      0.20      0.00
   -3   10    6      0.23      0.00
   -3   10    5      0.34      0.00
   -3   10    4     -1.14      0.00
   -3   10    3     -0.78      0.00
   -3   10    2     -1.42      0.00
   -3   10    1      0.35      0.00
    3   10    0     -0.18      0.00
    3   10    1     -0.40      0.00
    3   10    2      0.24      0.00
    3   10    3     -1.73      0.00
    3   10    4      0.44      0.00
    3   10    5     -1.07      0.00
    3   10    6     -1.27      0.00
    3   10    7     -0.67      0.00
    3   10    8     -0.45      0.00
    3   10    9      0.70      0.00
    3   10   10     -1.67      0.00
    3   10   11      0.56      0.00
    3   10   12     -3.43      0.00
   -3   11   13      1.15      0.00
   -3   11   12      0.45      0.00
   -3   11   11     -0.77      0.00
   -3   11   10     -0.07      0.00
   -3   11    9     -0.18      0.00
   -3   11    8      0.94      0.00
   -3   11    7      0.70      0.00
   -3   11    6      0.15      0.00
   -3   11    5     -1.00      0.00
   -3   11    4      0.64      0.00
   -3   11    3     -1.13      0.00
   -3   11    2      4.54      0.00
   -3   11    1     -5.85      0.00
    3   11    0     -1.19      0.00
    3   11    1      0.30      0.00
    3   11    2     -0.05      0.00
    3   11    3      0.36      0.00
    3   11    4      1.55      0.00
    3   11    5     -0.35      0.00
    3   11    6     -0.52      0.00
    3   11    7     -1.33      0.00
    3   11    8      0.71      0.00
    3   11    9      0.45      0.00
    3   11   10      1.48      0.00
    3   11   11      0.67      0.00
    3   11   12      0.27      0.00
   -3   12   13      0.43      0.00
   -3   12   12     -0.72      0.00
   -3   12   11     -0.17      0.00
   -3   12   10     -0.39      0.00
   -3   12    9      0.10      0.00
   -3   12    8     -0.14      0.00
   -3   12    7      0.76      0.00
   -3   12    6     -0.84      0.00
   -3   12    5      0.45      0.00
   -3   12    4      1.17      0.00
   -3   12    3      0.95      0.00
   -3   12    2     -1.35      0.00
   -3   12    1     -1.72      0.00
    3   12    0      0.96      0.00
    3   12    1      0.88      0.00
    3   12    2     -1.23      0.00
    3   12    3      0.01      0.00
    3   12    4      0.55      0.00
    3   12    5      1.17      0.00
    3   12    6      0.84      0.00
    3   12    7      1.91      0.00
    3   12    8      2.70      0.00
    3   12    9      0.40      0.00
    3   12   10      1.89      0.00
    3   12   11     -2.08      0.00
   -3   13   12     -1.30      0.00
   -3   13   11      0.24      0.00
   -3   13   10     -0.32      0.00
   -3   13    9     -0.27      0.00
   -3   13    8     -0.38      0.00
   -3   13    7     -0.14      0.00
   -3   13    6     -0.21      0.00
   -3   13    5      0.09      0.00
   -3   13    4     -0.68      0.00
   -3   13    3      0.42      0.00
   -3   13    2     -2.66      0.00
   -3   13    1      1.73      0.00
    3   13    0      1.30      0.00
    3   13    1      1.64      0.00
    3   13    2     -0.49      0.00
    3   13    3      0.06      0.00
    3   13    4     -0.38      0.00
    3   13    5      1.57      0.00
    3   13    6     -0.94      0.00
    3   13    7     -0.12      0.00
    3   13    8      0.08      0.00
    3   13    9      1.07      0.00
    3   13   10     -0.46      0.00
    3   13   11      0.61      0.00
   -3   14   12     -0.63      0.00
   -3   14   11     -0.10      0.00
   -3   14   10      0.20      0.00
   -3   14    9     -0.75      0.00
   -3   14    8      1.59      0.00
   -3   14    7      0.52      0.00
   -3   14    6     -0.96      0.00
   -3   14    5     -1.27      0.00
   -3   14    4      0.50      0.00
   -3   14    3     -0.53      0.00
   -3   14    2     -0.03      0.00
   -3   14    1     -0.02      0.00
    3   14    0     -0.16      0.00
    3   14    1     -0.86      0.00
    3   14    2     -0.83      0.00
    3   14    3     -0.53      0.00
    3   14    4     -0.67      0.00
    3   14    5      0.72      0.00
    3   14    6      0.81      0.00
    3   14    7     -0.66      0.00
    3   14    8     -0.60      0.00
    3   14    9      0.76      0.00
    3   14   10     -1.95      0.00
    3   14   11      1.96      0.00
   -3   15   11     -0.22      0.00
   -3   15   10      0.11      0.00
   -3   15    9     -0.22      0.00
   -3   15    8     -1.16      0.00
   -3   15    7     -0.73      0.00
   -3   15    6     -1.46      0.00
   -3   15    5     -0.53      0.00
   -3   15    4      0.22      0.00
   -3   15    3     -0.87      0.00
   -3   15    2      0.83      0.00
   -3   15    1     -0.53      0.00
    3   15    0      0.71      0.00
    3   15    1      0.20      0.00
    3   15    2      1.05      0.00
    3   15    3     -0.60      0.00
    3   15    4      0.09      0.00
    3   15    5     -0.03      0.00
    3   15    6      1.60      0.00
    3   15    7      1.00      0.00
    3   15    8      1.30      0.00
    3   15    9      3.03      0.00
    3   15   10      2.90      0.00
   -3   16   11      0.42      0.00
   -3   16   10      0.18      0.00
   -3   16    9      1.33      0.00
   -3   16    8     -0.12      0.00
   -3   16    7     -0.40      0.00
   -3   16    6      0.82      0.00
   -3   16    5      0.12      0.00
   -3   16    4     -0.13      0.00
   -3   16    3      1.33      0.00
   -3   16    2      1.72      0.00
   -3   16    1      1.12      0.00
    3   16    0      0.15      0.00
    3   16    1      0.45      0.00
    3   16    2      0.77      0.00
    3   16    3     -1.06      0.00
    3   16    4     -0.24      0.00
    3   16    5     -0.15      0.00
    3   16    6      0.29      0.00
    3   16    7      0.03      0.00
    3   16    8     -1.52      0.00
    3   16    9     -1.33      0.00
   -3   17   10      0.27      0.00
   -3   17    9      1.93      0.00
   -3   17    8      2.65      0.00
   -3   17    7     -0.29      0.00
   -3   17    6      0.01      0.00
   -3   17    5     -0.41      0.00
   -3   17    4      0.22      0.00
   -3   17    3      0.76      0.00
   -3   17    2     -0.45      0.00
   -3   17    1      0.20      0.00
    3   17    0      0.57      0.00
    3   17    1      0.29      0.00
    3   17    2     -0.26      0.00
    3   17    3     -0.57      0.00
    3   17    4     -0.57      0.00
    3   17    5     -0.44      0.00
    3   17    6      0.05      0.00
    3   17    7      0.36      0.00
    3   17    8      0.56      0.00
    3   17    9     -3.01      0.00
   -3   18    9     -0.54      0.00
   -3   18    8      0.49      0.00
   -3   18    7      0.20      0.00
   -3   18    6     -0.33      0.00
   -3   18    5      0.33      0.00
   -3   18    4      0.79      0.00
   -3   18    3      0.54      0.00
   -3   18    2     -0.90      0.00
   -3   18    1     -0.13      0.00
    3   18    0     -0.77      0.00
    3   18    1      1.42      0.00
    3   18    2      0.88      0.00
    3   18    3      0.41      0.00
    3   18    4     -0.19      0.00
    3   18    5     -1.06      0.00
    3   18    6     -1.91      0.00
    3   18    7     -1.48      0.00
    3   18    8     -0.01      0.00
   -3   19    8      0.25      0.00
   -3   19    7      1.91      0.00
   -3   19    6      0.89      0.00
   -3   19    5      0.87      0.00
   -3   19    4      0.06      0.00
   -3   19    3      0.72      0.00
   -3   19    2     -0.01      0.00
   -3   19    1     -1.36      0.00
    3   19    0     -0.61      0.00
    3   19    1      0.70      0.00
    3   19    2     -0.28      0.00
    3   19    3      0.89      0.00
    3   19    4      0.24      0.00
    3   19    5      0.16      0.00
    3   19    6     -0.38      0.00
    3   19    7     -0.46      0.00
   -3   20    8     -0.56      0.00
   -3   20    7      0.53      0.00
   -3   20    6     -0.50      0.00
   -3   20    5      0.71      0.00
   -3   20    4      0.44      0.00
   -3   20    3     -0.02      0.00
   -3   20    2      1.02      0.00
   -3   20    1     -0.29      0.00
    3   20    0      3.03      0.00
    3   20    1      0.37      0.00
    3   20    2      0.84      0.00
    3   20    3      1.68      0.00
    3   20    4     -0.89      0.00
    3   20    5     -0.28      0.00
    3   20    6      0.47      0.00
   -3   21    6     -0.42      0.00
   -3   21    5     -0.10      0.00
   -3   21    4      0.95      0.00
   -3   21    3      0.10      0.00
   -3   21    2      0.83      0.00
   -3   21    1      0.54      0.00
    3   21    0      0.74      0.00
    3   21    1     -1.32      0.00
    3   21    2      0.43      0.00
    3   21    3     -0.60      0.00
    3   21    4     -0.42      0.00
    3   21    5     -0.49      0.00
   -3   22    5     -0.87      0.00
   -3   22    4      0.30      0.00
   -3   22    3      0.38      0.00
   -3   22    2     -0.87      0.00
   -3   22    1      0.32      0.00
    3   22    0     -1.24      0.00
    3   22    1      1.39      0.00
    3   22    2      0.49      0.00
    3   22    3     -1.08      0.00
    3   22    4      1.70      0.00
   -3   23    2      0.63      0.00
   -3   23    1      1.94      0.00
    3   23    0     -1.63      0.00
    3   23    1      0.06      0.00
   -4    0   15      0.55      0.00
   -4    0   14     -0.67      0.00
   -4    0   13      0.07      0.00
   -4    0   12     -0.99      0.00
   -4    0   11     -0.67      0.00
   -4    0   10     -1.16      0.00
   -4    0    9     -0.52      0.00
   -4    0    8     -0.65      0.00
   -4    0    7      1.52      0.00
   -4    0    6     -2.85      0.00
   -4    0    5     -2.88      0.00
   -4    0    4     -5.18      0.00
   -4    0    3     -1.35      0.00
   -4    0    2     -9.52      0.00
   -4    0    1      0.20      0.00
    4    0    0     -3.54      0.00
    4    0    1     -8.70      0.00
    4    0    2      0.68      0.00
    4    0    3     -1.97      0.00
    4    0    4      0.51      0.00
    4    0    5      0.46      0.00
    4    0    6     -0.21      0.00
    4    0    7     -0.82      0.00
    4    0    8     -3.02      0.00
    4    0    9     -2.58      0.00
    4    0   10      0.16      0.00
    4    0   11     -1.10      0.00
    4    0   12     -1.25      0.00
    4    0   13     -1.65      0.00
   -4    1   15      1.43      0.00
   -4    1   14     -0.25      0.00
   -4    1   13     -0.88      0.00
   -4    1   12     -0.17      0.00
   -4    1   11     -0.56      0.00
   -4    1   10     -0.57      0.00
   -4    1    9      0.95      0.00
   -4    1    8     -1.25      0.00
   -4    1    7      0.02      0.00
   -4    1    6     -1.13      0.00
   -4    1    5     -0.42      0.00
   -4    1    4     -1.79      0.00
   -4    1    3     -0.37      0.00
   -4    1    2     -2.45      0.00
   -4    1    1      2.32      0.00
    4    1    0      6.66      0.00
    4    1    1      3.59      0.00
    4    1    2     -0.42      0.00
    4    1    3      3.36      0.00
    4    1    4      1.27      0.00
    4    1    5      2.11      0.00
    4    1    6      1.58      0.00
    4    1    7     -0.11      0.00
    4    1    8     -0.69      0.00
    4    1    9     -1.35      0.00
    4    1   10     -0.71      0.00
    4    1   11      1.62      0.00
    4    1   12     -1.09      0.00
    4    1   13      2.45      0.00
   -4    2   15      0.09      0.00
   -4    2   14      1.17      0.00
   -4    2   13      1.01      0.00
   -4    2   12      0.44      0.00
   -4    2   11     -0.70      0.00
   -4    2   10      0.08      0.00
   -4    2    9     -0.16      0.00
   -4    2    8      0.54      0.00
   -4    2    7     -1.12      0.00
   -4    2    6      1.29      0.00
   -4    2    5      0.06      0.00
   -4    2    4      1.82      0.00
   -4    2    3     -0.26      0.00
   -4    2    2      9.25      0.00
   -4    2    1      0.62      0.00
    4    2    0      4.82      0.00
    4    2    1      6.95      0.00
    4    2    2      2.37      0.00
    4    2    3      4.27      0.00
    4    2    4     -0.47      0.00
    4    2    5     -1.26      0.00
    4    2    6     -0.80      0.00
    4    2    7      0.15      0.00
    4    2    8      1.22      0.00
    4    2    9      0.37      0.00
    4    2   10     -0.03      0.00
    4    2   11      0.39      0.00
    4    2   12     -1.13      0.00
    4    2   13     -0.30      0.00
   -4    3   14      1.38      0.00
   -4    3   13      0.60      0.00
   -4    3   12     -0.75      0.00
   -4    3   11     -1.01      0.00
   -4    3   10      0.13      0.00
   -4    3    9     -0.53      0.00
   -4    3    8      1.13      0.00
   -4    3    7     -0.36      0.00
   -4    3    6     -0.24      0.00
   -4    3    5     -1.41      0.00
   -4    3    4     -0.11      0.00
   -4    3    3     -2.93      0.00
   -4    3    2      0.20      0.00
   -4    3    1     -8.59      0.00
    4    3    0     -1.77      0.00
    4    3    1     -1.11      0.00
    4    3    2      0.10      0.00
    4    3    3     -4.09      0.00
    4    3    4      0.54      0.00
    4    3    5     -1.95      0.00
    4    3    6     -1.45      0.00
    4    3    7      1.49      0.00
    4    3    8      1.21      0.00
    4    3    9      0.39      0.00
    4    3   10      0.28      0.00
    4    3   11      0.08      0.00
    4    3   12      3.62      0.00
    4    3   13     -1.38      0.00
   -4    4   14     -0.37      0.00
   -4    4   13     -1.88      0.00
   -4    4   12     -0.91      0.00
   -4    4   11      0.27      0.00
   -4    4   10      0.45      0.00
   -4    4    9      1.62      0.00
   -4    4    8      0.86      0.00
   -4    4    7      0.22      0.00
   -4    4    6     -0.39      0.00
   -4    4    5      0.25      0.00
   -4    4    4     -2.14      0.00
   -4    4    3      0.22      0.00
   -4    4    2     -5.51      0.00
   -4    4    1      5.36      0.00
    4    4    0     -0.99      0.00
    4    4    1      1.54      0.00
    4    4    2     -1.11      0.00
    4    4    3     -1.80      0.00
    4    4    4      2.05      0.00
    4    4    5      1.42      0.00
    4    4    6      2.08      0.00
    4    4    7      1.74      0.00
    4    4    8      0.80      0.00
    4    4    9      0.35      0.00
    4    4   10     -3.01      0.00
    4    4   11     -3.13      0.00
    4    4   12     -0.45      0.00
    4    4   13     -1.70      0.00
   -4    5   14     -1.06      0.00
   -4    5   13     -0.63      0.00
   -4    5   12      0.02      0.00
   -4    5   11      0.64      0.00
   -4    5   10     -0.77      0.00
   -4    5    9     -0.02      0.00
   -4    5    8     -0.68      0.00
   -4    5    7      0.77      0.00
   -4    5    6      0.57      0.00
   -4    5    5      1.39      0.00
   -4    5    4     -1.40      0.00
   -4    5    3      4.41      0.00
   -4    5    2     -0.93      0.00
   -4    5    1      8.66      0.00
    4    5    0      3.46      0.00
    4    5    1      2.02      0.00
    4    5    2     -0.44      0.00
    4    5    3      3.61      0.00
    4    5    4     -1.07      0.00
    4    5    5      2.04      0.00
    4    5    6      0.06      0.00
    4    5    7     -2.04      0.00
    4    5    8      0.39      0.00
    4    5    9      1.11      0.00
    4    5   10      0.39      0.00
    4    5   11      0.85      0.00
    4    5   12     -1.47      0.00
    4    5   13      0.43      0.00
   -4    6   14     -0.14      0.00
   -4    6   13      0.69      0.00
   -4    6   12     -0.04      0.00
   -4    6   11      0.10      0.00
   -4    6   10      0.54      0.00
   -4    6    9      0.64      0.00
   -4    6    8     -0.39      0.00
   -4    6    7     -0.37      0.00
   -4    6    6     -1.99      0.00
   -4    6    5     -2.38      0.00
   -4    6    4      0.52      0.00
   -4    6    3     -1.42      0.00
   -4    6    2      4.95      0.00
   -4    6    1     -6.16      0.00
    4    6    0      2.03      0.00
    4    6    1     -1.00      0.00
    4    6    2      3.93      0.00
    4    6    3     -0.02      0.00
    4    6    4     -2.32      0.00
    4    6    5      0.67      0.00
    4    6    6     -0.25      0.00
    4    6    7     -1.38      0.00
    4    6    8     -0.13      0.00
    4    6    9     -0.14      0.00
    4    6   10      0.06      0.00
    4    6   11      0.28      0.00
    4    6   12     -1.03      0.00
   -4    7   14      0.06      0.00
   -4    7   13      0.25      0.00
   -4    7   12     -0.24      0.00
   -4    7   11     -0.29      0.00
   -4    7   10      1.42      0.00
   -4    7    9      0.01      0.00
   -4    7    8     -0.40      0.00
   -4    7    7     -0.69      0.00
   -4    7    6      1.44      0.00
   -4    7    5      0.25      0.00
   -4    7    4      4.35      0.00
   -4    7    3     -1.63      0.00
   -4    7    2      6.10      0.00
   -4    7    1     -5.37      0.00
    4    7    0     -1.88      0.00
    4    7    1      0.84      0.00
    4    7    2      3.64      0.00
    4    7    3     -0.55      0.00
    4    7    4      1.27      0.00
    4    7    5     -2.61      0.00
    4    7    6     -0.73      0.00
    4    7    7     -0.47      0.00
    4    7    8     -2.16      0.00
    4    7    9     -0.13      0.00
    4    7   10      1.00      0.00
    4    7   11      0.38      0.00
    4    7   12     -0.98      0.00
   -4    8   14      0.67      0.00
   -4    8   13     -0.15      0.00
   -4    8   12     -0.74      0.00
   -4    8   11     -0.60      0.00
   -4    8   10     -0.09      0.00
   -4    8    9     -1.48      0.00
   -4    8    8      0.01      0.00
   -4    8    7      0.62      0.00
   -4    8    6      0.67      0.00
   -4    8    5     -0.66      0.00
   -4    8    4     -2.07      0.00
   -4    8    3      3.61      0.00
   -4    8    2     -2.73      0.00
   -4    8    1      4.13      0.00
    4    8    0     -2.51      0.00
    4    8    1      0.74      0.00
    4    8    2     -2.02      0.00
    4    8    3      1.42      0.00
    4    8    4      0.70      0.00
    4    8    5     -1.67      0.00
    4    8    6     -0.56      0.00
    4    8    7     -0.01      0.00
    4    8    8     -0.58      0.00
    4    8    9      0.88      0.00
    4    8   10      4.59      0.00
    4    8   11      1.55      0.00
    4    8   12      3.25      0.00
   -4    9   13     -0.56      0.00
   -4    9   12      0.93      0.00
   -4    9   11      1.01      0.00
   -4    9   10     -0.32      0.00
   -4    9    9      0.30      0.00
   -4    9    8      0.14      0.00
   -4    9    7      0.58      0.00
   -4    9    6     -0.58      0.00
   -4    9    5      1.17      0.00
   -4    9    4     -2.22      0.00
   -4    9    3      3.29      0.00
   -4    9    2     -5.01      0.00
   -4    9    1      3.08      0.00
    4    9    0      1.01      0.00
    4    9    1     -0.68      0.00
    4    9    2     -2.18      0.00
    4    9    3      0.95      0.00
    4    9    4     -1.21      0.00
    4    9    5      1.20      0.00
    4    9    6     -0.05      0.00
    4    9    7     -0.21      0.00
    4    9    8     -0.22      0.00
    4    9    9     -1.32      0.00
    4    9   10      0.96      0.00
    4    9   11     -0.87      0.00
    4    9   12      2.45      0.00
   -4   10   13      0.62      0.00
   -4   10   12      0.97      0.00
   -4   10   11     -0.32      0.00
   -4   10   10     -1.03      0.00
   -4   10    9      0.07      0.00
   -4   10    8      0.20      0.00
   -4   10    7      0.53      0.00
   -4   10    6      1.05      0.00
   -4   10    5     -0.32      0.00
   -4   10    4      0.69      0.00
   -4   10    3     -2.36      0.00
   -4   10    2      1.58      0.00
   -4   10    1     -3.36      0.00
    4   10    0     -0.91      0.00
    4   10    1     -0.65      0.00
    4   10    2      1.02      0.00
    4   10    3     -1.10      0.00
    4   10    4     -0.92      0.00
    4   10    5      0.71      0.00
    4   10    6      0.15      0.00
    4   10    7      0.81      0.00
    4   10    8     -0.37      0.00
    4   10    9     -0.25      0.00
    4   10   10     -3.60      0.00
    4   10   11      2.26      0.00
   -4   11   13     -0.60      0.00
   -4   11   12     -1.25      0.00
   -4   11   11     -0.36      0.00
   -4   11   10     -0.19      0.00
   -4   11    9     -0.40      0.00
   -4   11    8      0.80      0.00
   -4   11    7      0.45      0.00
   -4   11    6     -1.03      0.00
   -4   11    5     -2.34      0.00
   -4   11    4      2.83      0.00
   -4   11    3      0.26      0.00
   -4   11    2      2.22      0.00
   -4   11    1     -3.73      0.00
    4   11    0     -0.45      0.00
    4   11    1     -1.61      0.00
    4   11    2      1.17      0.00
    4   11    3     -0.19      0.00
    4   11    4      0.71      0.00
    4   11    5     -0.80      0.00
    4   11    6      0.51      0.00
    4   11    7     -0.87      0.00
    4   11    8     -2.74      0.00
    4   11    9     -1.60      0.00
    4   11   10     -3.57      0.00
    4   11   11      2.08      0.00
   -4   12   12     -1.86      0.00
   -4   12   11     -0.32      0.00
   -4   12   10     -0.15      0.00
   -4   12    9      0.15      0.00
   -4   12    8      0.16      0.00
   -4   12    7     -0.08      0.00
   -4   12    6     -1.38      0.00
   -4   12    5      0.24      0.00
   -4   12    4     -0.11      0.00
   -4   12    3     -0.18      0.00
   -4   12    2     -2.41      0.00
   -4   12    1     -0.19      0.00
    4   12    0      0.78      0.00
    4   12    1     -0.90      0.00
    4   12    2     -0.30      0.00
    4   12    3      0.62      0.00
    4   12    4      0.77      0.00
    4   12    5     -1.32      0.00
    4   12    6      1.69      0.00
    4   12    7      1.02      0.00
    4   12    8      0.80      0.00
    4   12    9     -2.19      0.00
    4   12   10      2.19      0.00
    4   12   11     -2.45      0.00
   -4   13   12      0.04      0.00
   -4   13   11      0.23      0.00
   -4   13   10      0.36      0.00
   -4   13    9     -0.48      0.00
   -4   13    8     -0.64      0.00
   -4   13    7     -0.68      0.00
   -4   13    6     -1.36      0.00
   -4   13    5      0.52      0.00
   -4   13    4     -0.94      0.00
   -4   13    3     -0.17      0.00
   -4   13    2     -0.99      0.00
   -4   13    1      0.99      0.00
    4   13    0      0.28      0.00
    4   13    1      1.48      0.00
    4   13    2     -0.36      0.00
    4   13    3      1.55      0.00
    4   13    4      1.50      0.00
    4   13    5      0.72      0.00
    4   13    6     -0.35      0.00
    4   13    7      2.24      0.00
    4   13    8      3.33      0.00
    4   13    9     -0.42      0.00
    4   13   10      2.33      0.00
   -4   14   12      2.65      0.00
   -4   14   11      0.52      0.00
   -4   14   10      0.02      0.00
   -4   14    9      0.05      0.00
   -4   14    8      0.35      0.00
   -4   14    7     -0.04      0.00
   -4   14    6     -0.69      0.00
   -4   14    5      0.12      0.00
   -4   14    4      0.58      0.00
   -4   14    3     -0.28      0.00
   -4   14    2     -0.04      0.00
   -4   14    1      0.26      0.00
    4   14    0      0.00      0.00
    4   14    1      1.66      0.00
    4   14    2     -0.38      0.00
    4   14    3      0.87      0.00
    4   14    4      0.34      0.00
    4   14    5      1.57      0.00
    4   14    6     -1.50      0.00
    4   14    7      0.46      0.00
    4   14    8      0.53      0.00
    4   14    9      0.29      0.00
    4   14   10     -4.97      0.00
   -4   15   11      0.52      0.00
   -4   15   10      0.48      0.00
   -4   15    9      0.28      0.00
   -4   15    8     -1.06      0.00
   -4   15    7     -2.02      0.00
   -4   15    6      0.41      0.00
   -4   15    5     -0.44      0.00
   -4   15    4      0.59      0.00
   -4   15    3      0.21      0.00
   -4   15    2      0.30      0.00
   -4   15    1     -0.55      0.00
    4   15    0      0.43      0.00
    4   15    1     -1.12      0.00
    4   15    2     -0.50      0.00
    4   15    3      0.18      0.00
    4   15    4      0.45      0.00
    4   15    5      0.78      0.00
    4   15    6      1.10      0.00
    4   15    7      0.84      0.00
    4   15    8      1.12      0.00
    4   15    9      3.43      0.00
   -4   16   10     -0.39      0.00
   -4   16    9      0.36      0.00
   -4   16    8      1.87      0.00
   -4   16    7      1.02      0.00
   -4   16    6      2.39      0.00
   -4   16    5      0.91      0.00
   -4   16    4      0.56      0.00
   -4   16    3      0.40      0.00
   -4   16    2      0.12      0.00
   -4   16    1      1.16      0.00
    4   16    0      1.55      0.00
    4   16    1     -0.53      0.00
    4   16    2      0.11      0.00
    4   16    3     -1.13      0.00
    4   16    4      0.36      0.00
    4   16    5      0.10      0.00
    4   16    6      1.81      0.00
    4   16    7      1.28      0.00
    4   16    8      1.64      0.00
    4   16    9      2.57      0.00
   -4   17   10     -1.13      0.00
   -4   17    9      0.81      0.00
   -4   17    8      1.25      0.00
   -4   17    7      1.22      0.00
   -4   17    6     -0.97      0.00
   -4   17    5     -0.19      0.00
   -4   17    4     -0.45      0.00
   -4   17    3      0.21      0.00
   -4   17    2     -0.79      0.00
   -4   17    1      0.63      0.00
    4   17    0      0.55      0.00
    4   17    1     -0.36      0.00
    4   17    2     -0.12      0.00
    4   17    3     -0.99      0.00
    4   17    4     -0.47      0.00
    4   17    5      0.68      0.00
    4   17    6      1.13      0.00
    4   17    7      0.36      0.00
    4   17    8      0.36      0.00
   -4   18    9     -0.26      0.00
   -4   18    8     -0.69      0.00
   -4   18    7      0.95      0.00
   -4   18    6     -0.32      0.00
   -4   18    5      0.71      0.00
   -4   18    4      0.21      0.00
   -4   18    3      0.45      0.00
   -4   18    2     -0.01      0.00
   -4   18    1     -0.01      0.00
    4   18    0      0.84      0.00
    4   18    1      1.27      0.00
    4   18    2      0.03      0.00
    4   18    3     -1.13      0.00
    4   18    4     -1.27      0.00
    4   18    5     -0.52      0.00
    4   18    6     -0.79      0.00
    4   18    7     -0.38      0.00
   -4   19    8      2.30      0.00
   -4   19    7      1.47      0.00
   -4   19    6      0.91      0.00
   -4   19    5      0.45      0.00
   -4   19    4     -0.18      0.00
   -4   19    3     -0.41      0.00
   -4   19    2      1.17      0.00
   -4   19    1     -0.96      0.00
    4   19    0     -2.03      0.00
    4   19    1      1.30      0.00
    4   19    2      0.16      0.00
    4   19    3      0.00      0.00
    4   19    4      1.16      0.00
    4   19    5     -0.34      0.00
    4   19    6     -1.76      0.00
    4   19    7     -1.05      0.00
   -4   20    7     -1.12      0.00
   -4   20    6     -0.66      0.00
   -4   20    5     -0.39      0.00
   -4   20    4      1.17      0.00
   -4   20    3      0.38      0.00
   -4   20    2      1.35      0.00
   -4   20    1      0.85      0.00
    4   20    0      0.86      0.00
    4   20    1      1.10      0.00
    4   20    2      0.02      0.00
    4   20    3      1.09      0.00
    4   20    4      0.02      0.00
    4   20    5     -0.50      0.00
   -4   21    6      0.13      0.00
   -4   21    5     -0.47      0.00
   -4   21    4      0.57      0.00
   -4   21    3      0.43      0.00
   -4   21    2     -0.09      0.00
   -4   21    1      0.97      0.00
    4   21    0      2.48      0.00
    4   21    1     -0.28      0.00
    4   21    2      1.00      0.00
    4   21    3      1.02      0.00
    4   21    4     -2.16      0.00
   -4   22    4      0.56      0.00
   -4   22    3      0.74      0.00
   -4   22    2     -0.41      0.00
   -4   22    1      0.63      0.00
    4   22    0      0.51      0.00
    4   22    1     -0.04      0.00
    4   22    2      0.68      0.00
   -5    0   14      0.53      0.00
   -5    0   13      0.28      0.00
   -5    0   12     -0.86      0.00
   -5    0   11     -1.13      0.00
   -5    0   10     -0.44      0.00
   -5    0    9      0.48      0.00
   -5    0    8     -0.69      0.00
   -5    0    7     -0.91      0.00
   -5    0    6     -2.66      0.00
   -5    0    5     -2.43      0.00
   -5    0    4     -2.69      0.00
   -5    0    3     -2.43      0.00
   -5    0    2     -5.58      0.00
   -5    0    1     -0.97      0.00
    5    0    0     -2.12      0.00
    5    0    1     -5.50      0.00
    5    0    2      2.21      0.00
    5    0    3      1.35      0.00
    5    0    4     -0.44      0.00
    5    0    5     -1.47      0.00
    5    0    6     -0.80      0.00
    5    0    7     -0.49      0.00
    5    0    8      0.57      0.00
    5    0    9      0.02      0.00
    5    0   10      1.24      0.00
    5    0   11     -2.45      0.00
    5    0   12     -3.29      0.00
   -5    1   14     -0.36      0.00
   -5    1   13     -0.24      0.00
   -5    1   12      1.52      0.00
   -5    1   11     -0.45      0.00
   -5    1   10      0.05      0.00
   -5    1    9      1.41      0.00
   -5    1    8     -1.63      0.00
   -5    1    7     -1.10      0.00
   -5    1    6      1.99      0.00
   -5    1    5      1.93      0.00
   -5    1    4      0.71      0.00
   -5    1    3      2.75      0.00
   -5    1    2      4.01      0.00
   -5    1    1      3.47      0.00
    5    1    0      2.70      0.00
    5    1    1      0.67      0.00
    5    1    2     -0.46      0.00
    5    1    3      1.40      0.00
    5    1    4      1.53      0.00
    5    1    5      2.45      0.00
    5    1    6      0.42      0.00
    5    1    7     -1.74      0.00
    5    1    8     -2.22      0.00
    5    1    9     -2.31      0.00
    5    1   10     -0.59      0.00
    5    1   11      0.64      0.00
    5    1   12     -0.89      0.00
   -5    2   14      0.75      0.00
   -5    2   13     -0.48      0.00
   -5    2   12     -0.86      0.00
   -5    2   11     -0.48      0.00
   -5    2   10      0.56      0.00
   -5    2    9      0.23      0.00
   -5    2    8      0.92      0.00
   -5    2    7      0.47      0.00
   -5    2    6      1.16      0.00
   -5    2    5     -0.03      0.00
   -5    2    4      0.13      0.00
   -5    2    3     -0.95      0.00
   -5    2    2      4.73      0.00
   -5    2    1      0.17      0.00
    5    2    0      3.65      0.00
    5    2    1      6.06      0.00
    5    2    2     -0.26      0.00
    5    2    3      0.89      0.00
    5    2    4     -0.82      0.00
    5    2    5      0.33      0.00
    5    2    6      0.08      0.00
    5    2    7     -1.32      0.00
    5    2    8     -2.65      0.00
    5    2    9     -1.42      0.00
    5    2   10     -1.27      0.00
    5    2   11      0.77      0.00
    5    2   12      0.06      0.00
   -5    3   14     -0.09      0.00
   -5    3   13     -1.42      0.00
   -5    3   12     -1.47      0.00
   -5    3   11      0.92      0.00
   -5    3   10      0.47      0.00
   -5    3    9     -0.59      0.00
   -5    3    8      1.17      0.00
   -5    3    7      0.28      0.00
   -5    3    6     -0.74      0.00
   -5    3    5     -0.03      0.00
   -5    3    4     -0.24      0.00
   -5    3    3     -3.14      0.00
   -5    3    2     -2.62      0.00
   -5    3    1     -2.10      0.00
    5    3    0     -1.13      0.00
    5    3    1     -1.86      0.00
    5    3    2      1.52      0.00
    5    3    3     -1.06      0.00
    5    3    4     -0.94      0.00
    5    3    5     -2.76      0.00
    5    3    6     -1.91      0.00
    5    3    7      0.19      0.00
    5    3    8     -0.04      0.00
    5    3    9      0.18      0.00
    5    3   10      2.28      0.00
    5    3   11      1.78      0.00
    5    3   12      0.43      0.00
   -5    4   14     -0.81      0.00
   -5    4   13     -0.65      0.00
   -5    4   12     -0.57      0.00
   -5    4   11     -0.03      0.00
   -5    4   10     -0.39      0.00
   -5    4    9      0.18      0.00
   -5    4    8     -0.24      0.00
   -5    4    7      0.45      0.00
   -5    4    6     -0.01      0.00
   -5    4    5      0.61      0.00
   -5    4    4     -1.92      0.00
   -5    4    3      3.33      0.00
   -5    4    2     -2.60      0.00
   -5    4    1      4.67      0.00
    5    4    0     -2.62      0.00
    5    4    1     -3.00      0.00
    5    4    2      1.26      0.00
    5    4    3     -2.14      0.00
    5    4    4      1.56      0.00
    5    4    5     -0.12      0.00
    5    4    6      1.54      0.00
    5    4    7      2.73      0.00
    5    4    8     -0.09      0.00
    5    4    9     -2.53      0.00
    5    4   10     -2.00      0.00
    5    4   11     -1.06      0.00
    5    4   12      1.39      0.00
   -5    5   14     -0.85      0.00
   -5    5   13      0.33      0.00
   -5    5   12      0.17      0.00
   -5    5   11     -0.05      0.00
   -5    5   10     -0.02      0.00
   -5    5    9     -0.10      0.00
   -5    5    8     -1.61      0.00
   -5    5    7      0.22      0.00
   -5    5    6     -0.23      0.00
   -5    5    5     -1.03      0.00
   -5    5    4      0.28      0.00
   -5    5    3      4.54      0.00
   -5    5    2      2.76      0.00
   -5    5    1      0.39      0.00
    5    5    0      1.34      0.00
    5    5    1      2.89      0.00
    5    5    2     -2.49      0.00
    5    5    3      2.88      0.00
    5    5    4      1.56      0.00
    5    5    5      0.98      0.00
    5    5    6      0.69      0.00
    5    5    7      1.44      0.00
    5    5    8      1.23      0.00
    5    5    9     -1.26      0.00
    5    5   10     -3.19      0.00
    5    5   11     -2.60      0.00
    5    5   12      1.02      0.00
   -5    6   14     -0.14      0.00
   -5    6   13      0.24      0.00
   -5    6   12      0.23      0.00
   -5    6   11      0.34      0.00
   -5    6   10      0.43      0.00
   -5    6    9      0.10      0.00
   -5    6    8      0.07      0.00
   -5    6    7     -0.59      0.00
   -5    6    6     -0.16      0.00
   -5    6    5     -3.04      0.00
   -5    6    4      1.54      0.00
   -5    6    3     -4.58      0.00
   -5    6    2      3.33      0.00
   -5    6    1     -5.02      0.00
    5    6    0      2.51      0.00
    5    6    1      2.01      0.00
    5    6    2     -1.25      0.00
    5    6    3      1.54      0.00
    5    6    4     -0.42      0.00
    5    6    5      2.67      0.00
    5    6    6     -0.57      0.00
    5    6    7     -1.89      0.00
    5    6    8      1.55      0.00
    5    6    9      1.56      0.00
    5    6   10     -1.18      0.00
    5    6   11     -0.88      0.00
    5    6   12     -1.45      0.00
   -5    7   14      1.09      0.00
   -5    7   13     -0.08      0.00
   -5    7   12      0.26      0.00
   -5    7   11     -0.47      0.00
   -5    7   10     -0.32      0.00
   -5    7    9     -1.33      0.00
   -5    7    8      1.12      0.00
   -5    7    7      0.32      0.00
   -5    7    6      0.95      0.00
   -5    7    5      0.64      0.00
   -5    7    4      1.26      0.00
   -5    7    3     -1.05      0.00
   -5    7    2      0.00      0.00
   -5    7    1     -1.00      0.00
    5    7    0      0.77      0.00
    5    7    1     -0.82      0.00
    5    7    2      3.74      0.00
    5    7    3     -2.03      0.00
    5    7    4      0.03      0.00
    5    7    5      0.50      0.00
    5    7    6      0.30      0.00
    5    7    7     -1.06      0.00
    5    7    8     -0.35      0.00
    5    7    9      0.42      0.00
    5    7   10     -3.86      0.00
    5    7   11     -0.28      0.00
    5    7   12     -3.51      0.00
   -5    8   13     -0.76      0.00
   -5    8   12     -0.11      0.00
   -5    8   11     -0.71      0.00
   -5    8   10     -0.24      0.00
   -5    8    9     -0.33      0.00
   -5    8    8     -0.11      0.00
   -5    8    7      0.62      0.00
   -5    8    6     -1.35      0.00
   -5    8    5      1.72      0.00
   -5    8    4     -3.10      0.00
   -5    8    3      2.96      0.00
   -5    8    2     -4.14      0.00
   -5    8    1      1.84      0.00
    5    8    0     -1.09      0.00
    5    8    1     -0.10      0.00
    5    8    2      0.84      0.00
    5    8    3     -0.77      0.00
    5    8    4      0.40      0.00
    5    8    5     -2.14      0.00
    5    8    6     -0.41      0.00
    5    8    7     -0.16      0.00
    5    8    8      0.04      0.00
    5    8    9      1.46      0.00
    5    8   10      2.83      0.00
    5    8   11      0.79      0.00
   -5    9   13      0.47      0.00
   -5    9   12      0.75      0.00
   -5    9   11      1.16      0.00
   -5    9   10     -0.18      0.00
   -5    9    9      0.80      0.00
   -5    9    8     -0.86      0.00
   -5    9    7      0.23      0.00
   -5    9    6     -0.07      0.00
   -5    9    5      0.45      0.00
   -5    9    4     -0.44      0.00
   -5    9    3      2.09      0.00
   -5    9    2     -0.26      0.00
   -5    9    1      1.57      0.00
    5    9    0     -0.39      0.00
    5    9    1      0.32      0.00
    5    9    2     -2.81      0.00
    5    9    3      1.06      0.00
    5    9    4     -0.44      0.00
    5    9    5     -0.21      0.00
    5    9    6     -0.61      0.00
    5    9    7     -1.47      0.00
    5    9    8     -2.14      0.00
    5    9    9     -1.80      0.00
    5    9   10      6.44      0.00
    5    9   11     -1.64      0.00
   -5   10   13     -0.26      0.00
   -5   10   12     -1.59      0.00
   -5   10   11     -1.05      0.00
   -5   10   10     -1.70      0.00
   -5   10    9     -0.46      0.00
   -5   10    8      1.08      0.00
   -5   10    7     -0.27      0.00
   -5   10    6     -0.04      0.00
   -5   10    5     -3.09      0.00
   -5   10    4      2.11      0.00
   -5   10    3     -0.38      0.00
   -5   10    2      0.76      0.00
   -5   10    1     -2.67      0.00
    5   10    0     -1.07      0.00
    5   10    1      0.46      0.00
    5   10    2     -0.63      0.00
    5   10    3     -1.59      0.00
    5   10    4     -1.85      0.00
    5   10    5      0.97      0.00
    5   10    6     -0.23      0.00
    5   10    7      0.84      0.00
    5   10    8      1.04      0.00
    5   10    9      2.32      0.00
    5   10   10      1.88      0.00
    5   10   11      0.77      0.00
   -5   11   13     -1.53      0.00
   -5   11   12     -1.31      0.00
   -5   11   11     -0.41      0.00
   -5   11   10      0.43      0.00
   -5   11    9     -0.32      0.00
   -5   11    8      0.25      0.00
   -5   11    7     -1.02      0.00
   -5   11    6     -1.26      0.00
   -5   11    5     -0.88      0.00
   -5   11    4      1.81      0.00
   -5   11    3     -1.34      0.00
   -5   11    2      0.14      0.00
   -5   11    1     -1.51      0.00
    5   11    0     -1.40      0.00
    5   11    1     -1.16      0.00
    5   11    2      1.95      0.00
    5   11    3     -0.07      0.00
    5   11    4     -0.13      0.00
    5   11    5      1.05      0.00
    5   11    6      0.42      0.00
    5   11    7     -0.35      0.00
    5   11    8     -1.12      0.00
    5   11    9      2.19      0.00
    5   11   10     -3.99      0.00
   -5   12   12      0.76      0.00
   -5   12   11     -0.02      0.00
   -5   12   10      0.35      0.00
   -5   12    9     -0.09      0.00
   -5   12    8     -0.97      0.00
   -5   12    7      0.45      0.00
   -5   12    6     -0.50      0.00
   -5   12    5      1.85      0.00
   -5   12    4     -0.40      0.00
   -5   12    3     -1.71      0.00
   -5   12    2     -0.26      0.00
   -5   12    1      0.80      0.00
    5   12    0      0.93      0.00
    5   12    1     -1.21      0.00
    5   12    2      0.18      0.00
    5   12    3      0.09      0.00
    5   12    4     -0.34      0.00
    5   12    5     -0.96      0.00
    5   12    6      2.50      0.00
    5   12    7     -0.34      0.00
    5   12    8     -2.23      0.00
    5   12    9     -3.05      0.00
    5   12   10     -2.79      0.00
   -5   13   12      2.05      0.00
   -5   13   11      1.07      0.00
   -5   13   10      0.28      0.00
   -5   13    9      0.33      0.00
   -5   13    8      0.12      0.00
   -5   13    7      0.20      0.00
   -5   13    6     -0.76      0.00
   -5   13    5      1.21      0.00
   -5   13    4     -0.19      0.00
   -5   13    3      0.55      0.00
   -5   13    2     -1.56      0.00
   -5   13    1      0.42      0.00
    5   13    0      0.24      0.00
    5   13    1      0.03      0.00
    5   13    2     -0.22      0.00
    5   13    3      0.41      0.00
    5   13    4      0.52      0.00
    5   13    5     -0.77      0.00
    5   13    6      1.66      0.00
    5   13    7      1.31      0.00
    5   13    8      0.60      0.00
    5   13    9     -2.36      0.00
    5   13   10      5.17      0.00
   -5   14   11      0.33      0.00
   -5   14   10     -0.12      0.00
   -5   14    9      0.14      0.00
   -5   14    8      0.78      0.00
   -5   14    7     -0.62      0.00
   -5   14    6      0.99      0.00
   -5   14    5     -0.36      0.00
   -5   14    4     -0.85      0.00
   -5   14    3      0.45      0.00
   -5   14    2     -0.25      0.00
   -5   14    1      0.70      0.00
    5   14    0      0.43      0.00
    5   14    1      2.24      0.00
    5   14    2      0.63      0.00
    5   14    3      0.87      0.00
    5   14    4      0.69      0.00
    5   14    5      1.05      0.00
    5   14    6     -1.54      0.00
    5   14    7      1.36      0.00
    5   14    8      0.76      0.00
    5   14    9     -2.05      0.00
   -5   15   11     -0.36      0.00
   -5   15   10     -0.23      0.00
   -5   15    9     -0.67      0.00
   -5   15    8      0.01      0.00
   -5   15    7     -0.63      0.00
   -5   15    6      1.25      0.00
   -5   15    5     -0.75      0.00
   -5   15    4      0.00      0.00
   -5   15    3     -0.42      0.00
   -5   15    2      0.26      0.00
   -5   15    1     -0.47      0.00
    5   15    0     -0.42      0.00
    5   15    1      0.50      0.00
    5   15    2      0.86      0.00
    5   15    3      1.73      0.00
    5   15    4      0.87      0.00
    5   15    5      0.71      0.00
    5   15    6     -0.98      0.00
    5   15    7     -0.37      0.00
    5   15    8     -0.38      0.00
    5   15    9      1.03      0.00
   -5   16   10     -1.23      0.00
   -5   16    9      1.03      0.00
   -5   16    8      1.62      0.00
   -5   16    7      1.49      0.00
   -5   16    6     -0.39      0.00
   -5   16    5      0.10      0.00
   -5   16    4      0.47      0.00
   -5   16    3      0.45      0.00
   -5   16    2      1.04      0.00
   -5   16    1      2.34      0.00
    5   16    0      1.39      0.00
    5   16    1     -0.95      0.00
    5   16    2     -0.54      0.00
    5   16    3      0.54      0.00
    5   16    4      1.27      0.00
    5   16    5      0.03      0.00
    5   16    6      2.84      0.00
    5   16    7      2.31      0.00
    5   16    8      1.24      0.00
   -5   17    9      1.64      0.00
   -5   17    8     -0.25      0.00
   -5   17    7     -0.04      0.00
   -5   17    6     -1.98      0.00
   -5   17    5     -0.50      0.00
   -5   17    4     -0.23      0.00
   -5   17    3      0.86      0.00
   -5   17    2     -0.37      0.00
   -5   17    1      0.20      0.00
    5   17    0      1.01      0.00
    5   17    1     -0.29      0.00
    5   17    2      0.03      0.00
    5   17    3      0.60      0.00
    5   17    4      0.94      0.00
    5   17    5      0.87      0.00
    5   17    6      0.78      0.00
    5   17    7      1.43      0.00
   -5   18    9      0.49      0.00
   -5   18    8      0.81      0.00
   -5   18    7      1.03      0.00
   -5   18    6      0.66      0.00
   -5   18    5      0.76      0.00
   -5   18    4      0.49      0.00
   -5   18    3     -0.35      0.00
   -5   18    2      0.68      0.00
   -5   18    1     -0.61      0.00
    5   18    0      1.88      0.00
    5   18    1      0.46      0.00
    5   18    2     -0.21      0.00
    5   18    3     -0.84      0.00
    5   18    4     -1.26      0.00
    5   18    5      1.71      0.00
    5   18    6      0.71      0.00
    5   18    7     -0.16      0.00
   -5   19    8      1.74      0.00
   -5   19    7      0.16      0.00
   -5   19    6      0.93      0.00
   -5   19    5      1.04      0.00
   -5   19    4      1.87      0.00
   -5   19    3      0.44      0.00
   -5   19    2      1.27      0.00
   -5   19    1     -1.06      0.00
    5   19    0     -0.21      0.00
    5   19    1      0.38      0.00
    5   19    2      0.40      0.00
    5   19    3     -1.03      0.00
    5   19    4     -0.02      0.00
    5   19    5     -0.08      0.00
    5   19    6      0.61      0.00
   -5   20    6      0.04      0.00
   -5   20    5      0.21      0.00
   -5   20    4      0.68      0.00
   -5   20    3     -0.03      0.00
   -5   20    2     -0.87      0.00
   -5   20    1      1.97      0.00
    5   20    0     -0.74      0.00
    5   20    1      0.46      0.00
    5   20    2     -0.39      0.00
    5   20    3      0.11      0.00
    5   20    4      2.52      0.00
   -5   21    5      0.86      0.00
   -5   21    4     -0.75      0.00
   -5   21    3     -0.54      0.00
   -5   21    2     -0.39      0.00
   -5   21    1      1.00      0.00
    5   21    0      0.80      0.00
    5   21    1      0.78      0.00
    5   21    2     -0.79      0.00
    5   21    3     -0.13      0.00
   -5   22    2      0.59      0.00
   -5   22    1     -0.76      0.00
    5   22    0      1.01      0.00
   -6    0   14     -0.57      0.00
   -6    0   13     -0.09      0.00
   -6    0   12      0.35      0.00
   -6    0   11      0.21      0.00
   -6    0   10     -0.59      0.00
   -6    0    9      1.00      0.00
   -6    0    8     -1.46      0.00
   -6    0    7     -0.86      0.00
   -6    0    6      1.64      0.00
   -6    0    5      0.54      0.00
   -6    0    4     -0.89      0.00
   -6    0    3      1.24      0.00
   -6    0    2      1.18      0.00
   -6    0    1      1.01      0.00
    6    0    0     -4.19      0.00
    6    0    1     -4.69      0.00
    6    0    2      0.17      0.00
    6    0    3     -0.87      0.00
    6    0    4     -1.95      0.00
    6    0    5     -1.87      0.00
    6    0    6      1.27      0.00
    6    0    7      1.21      0.00
    6    0    8     -1.10      0.00
    6    0    9     -0.35      0.00
    6    0   10      2.12      0.00
    6    0   11     -0.28      0.00
    6    0   12     -0.68      0.00
   -6    1   14     -0.46      0.00
   -6    1   13     -1.55      0.00
   -6    1   12     -0.16      0.00
   -6    1   11     -0.16      0.00
   -6    1   10     -0.68      0.00
   -6    1    9      1.31      0.00
   -6    1    8     -1.09      0.00
   -6    1    7      1.03      0.00
   -6    1    6      2.25      0.00
   -6    1    5      2.50      0.00
   -6    1    4     -1.96      0.00
   -6    1    3      3.71      0.00
   -6    1    2      2.28      0.00
   -6    1    1      3.84      0.00
    6    1    0     -0.36      0.00
    6    1    1     -2.20      0.00
    6    1    2      0.46      0.00
    6    1    3      5.35      0.00
    6    1    4      0.68      0.00
    6    1    5     -0.96      0.00
    6    1    6      0.12      0.00
    6    1    7     -0.15      0.00
    6    1    8      2.31      0.00
    6    1    9      0.23      0.00
    6    1   10     -1.97      0.00
    6    1   11     -0.34      0.00
    6    1   12     -4.57      0.00
   -6    2   14      0.79      0.00
   -6    2   13     -0.64      0.00
   -6    2   12     -1.02      0.00
   -6    2   11     -0.12      0.00
   -6    2   10      0.76      0.00
   -6    2    9     -0.89      0.00
   -6    2    8      1.32      0.00
   -6    2    7      0.86      0.00
   -6    2    6     -0.96      0.00
   -6    2    5     -0.78      0.00
   -6    2    4     -0.14      0.00
   -6    2    3     -2.78      0.00
   -6    2    2     -0.71      0.00
   -6    2    1     -1.17      0.00
    6    2    0      3.18      0.00
    6    2    1      4.85      0.00
    6    2    2      0.01      0.00
    6    2    3      1.61      0.00
    6    2    4      0.58      0.00
    6    2    5      1.25      0.00
    6    2    6      0.00      0.00
    6    2    7     -1.75      0.00
    6    2    8     -1.36      0.00
    6    2    9     -1.37      0.00
    6    2   10     -2.17      0.00
    6    2   11      0.35      0.00
    6    2   12      0.33      0.00
   -6    3   14     -0.27      0.00
   -6    3   13      0.49      0.00
   -6    3   12     -0.53      0.00
   -6    3   11     -0.03      0.00
   -6    3   10     -0.07      0.00
   -6    3    9     -1.18      0.00
   -6    3    8      1.10      0.00
   -6    3    7     -0.17      0.00
   -6    3    6     -0.96      0.00
   -6    3    5     -0.81      0.00
   -6    3    4      1.68      0.00
   -6    3    3     -1.01      0.00
   -6    3    2     -0.73      0.00
   -6    3    1     -1.81      0.00
    6    3    0      1.47      0.00
    6    3    1      0.76      0.00
    6    3    2     -0.42      0.00
    6    3    3     -2.26      0.00
    6    3    4     -0.32      0.00
    6    3    5     -1.28      0.00
    6    3    6     -2.33      0.00
    6    3    7     -0.39      0.00
    6    3    8     -1.73      0.00
    6    3    9     -1.42      0.00
    6    3   10      1.16      0.00
    6    3   11      0.08      0.00
   -6    4   14     -0.88      0.00
   -6    4   13     -0.54      0.00
   -6    4   12     -0.55      0.00
   -6    4   11     -0.25      0.00
   -6    4   10     -0.12      0.00
   -6    4    9      0.47      0.00
   -6    4    8     -1.29      0.00
   -6    4    7      0.68      0.00
   -6    4    6     -0.06      0.00
   -6    4    5     -1.10      0.00
   -6    4    4     -1.68      0.00
   -6    4    3      3.56      0.00
   -6    4    2     -0.14      0.00
   -6    4    1      1.54      0.00
    6    4    0     -1.27      0.00
    6    4    1     -3.77      0.00
    6    4    2      1.32      0.00
    6    4    3     -3.53      0.00
    6    4    4     -0.56      0.00
    6    4    5     -0.58      0.00
    6    4    6     -1.29      0.00
    6    4    7     -0.90      0.00
    6    4    8     -1.71      0.00
    6    4    9      0.38      0.00
    6    4   10      1.93      0.00
    6    4   11      0.05      0.00
   -6    5   14     -0.40      0.00
   -6    5   13     -0.35      0.00
   -6    5   12      0.86      0.00
   -6    5   11      0.42      0.00
   -6    5   10     -0.70      0.00
   -6    5    9     -0.22      0.00
   -6    5    8     -0.85      0.00
   -6    5    7      0.15      0.00
   -6    5    6     -0.01      0.00
   -6    5    5     -1.71      0.00
   -6    5    4     -0.78      0.00
   -6    5    3     -0.33      0.00
   -6    5    2      0.28      0.00
   -6    5    1      0.21      0.00
    6    5    0     -2.62      0.00
    6    5    1     -0.75      0.00
    6    5    2     -0.01      0.00
    6    5    3      1.58      0.00
    6    5    4     -0.14      0.00
    6    5    5     -0.16      0.00
    6    5    6      2.44      0.00
    6    5    7      1.50      0.00
    6    5    8     -0.65      0.00
    6    5    9     -2.89      0.00
    6    5   10     -2.22      0.00
    6    5   11      0.06      0.00
   -6    6   14      0.48      0.00
   -6    6   13     -0.06      0.00
   -6    6   12     -0.34      0.00
   -6    6   11     -0.57      0.00
   -6    6   10     -0.47      0.00
   -6    6    9     -0.15      0.00
   -6    6    8      2.21      0.00
   -6    6    7     -1.02      0.00
   -6    6    6     -0.13      0.00
   -6    6    5     -1.18      0.00
   -6    6    4      0.93      0.00
   -6    6    3     -3.71      0.00
   -6    6    2      0.29      0.00
   -6    6    1     -2.09      0.00
    6    6    0      0.33      0.00
    6    6    1      2.66      0.00
    6    6    2     -2.63      0.00
    6    6    3      3.56      0.00
    6    6    4      1.15      0.00
    6    6    5      0.55      0.00
    6    6    6     -0.22      0.00
    6    6    7      0.04      0.00
    6    6    8      1.39      0.00
    6    6    9     -1.24      0.00
    6    6   10     -0.74      0.00
    6    6   11     -1.77      0.00
   -6    7   13     -0.64      0.00
   -6    7   12     -0.28      0.00
   -6    7   11     -0.70      0.00
   -6    7   10      0.11      0.00
   -6    7    9     -0.61      0.00
   -6    7    8      0.34      0.00
   -6    7    7     -0.31      0.00
   -6    7    6     -1.11      0.00
   -6    7    5      2.04      0.00
   -6    7    4      0.68      0.00
   -6    7    3      0.72      0.00
   -6    7    2      0.06      0.00
   -6    7    1     -0.22      0.00
    6    7    0      2.17      0.00
    6    7    1      0.69      0.00
    6    7    2      2.08      0.00
    6    7    3      0.53      0.00
    6    7    4      1.78      0.00
    6    7    5      1.99      0.00
    6    7    6     -1.16      0.00
    6    7    7     -1.94      0.00
    6    7    8     -2.72      0.00
    6    7    9     -0.85      0.00
    6    7   10     -3.34      0.00
    6    7   11     -0.09      0.00
   -6    8   13     -1.04      0.00
   -6    8   12     -0.25      0.00
   -6    8   11      0.03      0.00
   -6    8   10      0.24      0.00
   -6    8    9      0.38      0.00
   -6    8    8     -2.30      0.00
   -6    8    7      0.09      0.00
   -6    8    6     -1.69      0.00
   -6    8    5      0.66      0.00
   -6    8    4     -1.78      0.00
   -6    8    3      2.48      0.00
   -6    8    2      0.45      0.00
   -6    8    1      2.69      0.00
    6    8    0      0.95      0.00
    6    8    1     -1.29      0.00
    6    8    2      1.60      0.00
    6    8    3     -2.12      0.00
    6    8    4      0.50      0.00
    6    8    5      0.03      0.00
    6    8    6      0.52      0.00
    6    8    7      1.06      0.00
    6    8    8      2.07      0.00
    6    8    9      2.12      0.00
    6    8   10     -4.66      0.00
    6    8   11      0.36      0.00
   -6    9   13      1.16      0.00
   -6    9   12      0.37      0.00
   -6    9   11      0.74      0.00
   -6    9   10     -1.07      0.00
   -6    9    9     -0.26      0.00
   -6    9    8     -0.21      0.00
   -6    9    7     -0.11      0.00
   -6    9    6      0.50      0.00
   -6    9    5     -1.22      0.00
   -6    9    4      0.80      0.00
   -6    9    3      2.63      0.00
   -6    9    2     -0.31      0.00
   -6    9    1     -0.07      0.00
    6    9    0     -0.75      0.00
    6    9    1      0.26      0.00
    6    9    2     -1.33      0.00
    6    9    3      0.70      0.00
    6    9    4      0.57      0.00
    6    9    5     -0.80      0.00
    6    9    6     -0.22      0.00
    6    9    7     -1.67      0.00
    6    9    8      0.33      0.00
    6    9    9     -1.69      0.00
    6    9   10      3.46      0.00
   -6   10   12     -1.36      0.00
   -6   10   11     -1.16      0.00
   -6   10   10     -0.76      0.00
   -6   10    9     -0.16      0.00
   -6   10    8      1.45      0.00
   -6   10    7     -1.03      0.00
   -6   10    6      0.73      0.00
   -6   10    5     -1.04      0.00
   -6   10    4      1.28      0.00
   -6   10    3     -1.49      0.00
   -6   10    2     -1.46      0.00
   -6   10    1     -2.67      0.00
    6   10    0     -1.26      0.00
    6   10    1     -0.10      0.00
    6   10    2     -2.57      0.00
    6   10    3     -1.01      0.00
    6   10    4     -0.63      0.00
    6   10    5      0.83      0.00
    6   10    6     -0.12      0.00
    6   10    7      0.27      0.00
    6   10    8     -1.38      0.00
    6   10    9     -2.60      0.00
    6   10   10      3.92      0.00
   -6   11   12      1.36      0.00
   -6   11   11      1.04      0.00
   -6   11   10      0.89      0.00
   -6   11    9     -0.47      0.00
   -6   11    8     -0.99      0.00
   -6   11    7      0.29      0.00
   -6   11    6      0.60      0.00
   -6   11    5      1.04      0.00
   -6   11    4      1.47      0.00
   -6   11    3     -2.58      0.00
   -6   11    2      1.20      0.00
   -6   11    1      1.00      0.00
    6   11    0     -0.41      0.00
    6   11    1     -0.75      0.00
    6   11    2      0.09      0.00
    6   11    3     -1.15      0.00
    6   11    4     -0.82      0.00
    6   11    5      1.75      0.00
    6   11    6     -0.29      0.00
    6   11    7      0.56      0.00
    6   11    8      0.55      0.00
    6   11    9      5.27      0.00
    6   11   10      0.59      0.00
   -6   12   12      1.01      0.00
   -6   12   11     -0.48      0.00
   -6   12   10     -0.35      0.00
   -6   12    9      0.92      0.00
   -6   12    8      1.56      0.00
   -6   12    7      2.41      0.00
   -6   12    6     -0.72      0.00
   -6   12    5      0.74      0.00
   -6   12    4     -0.10      0.00
   -6   12    3     -0.75      0.00
   -6   12    2     -1.00      0.00
   -6   12    1     -0.11      0.00
    6   12    0      0.04      0.00
    6   12    1     -0.42      0.00
    6   12    2      0.92      0.00
    6   12    3      0.33      0.00
    6   12    4     -0.19      0.00
    6   12    5      0.13      0.00
    6   12    6      1.37      0.00
    6   12    7     -1.73      0.00
    6   12    8     -1.24      0.00
    6   12    9      0.92      0.00
   -6   13   11      0.18      0.00
   -6   13   10      0.71      0.00
   -6   13    9      0.34      0.00
   -6   13    8      0.24      0.00
   -6   13    7     -1.42      0.00
   -6   13    6     -1.06      0.00
   -6   13    5      0.28      0.00
   -6   13    4     -1.92      0.00
   -6   13    3      1.09      0.00
   -6   13    2     -1.51      0.00
   -6   13    1     -0.24      0.00
    6   13    0     -1.24      0.00
    6   13    1     -1.12      0.00
    6   13    2     -0.19      0.00
    6   13    3      0.31      0.00
    6   13    4      0.12      0.00
    6   13    5     -0.68      0.00
    6   13    6      3.00      0.00
    6   13    7      1.40      0.00
    6   13    8      0.70      0.00
    6   13    9     -1.13      0.00
   -6   14   11     -0.34      0.00
   -6   14   10     -0.60      0.00
   -6   14    9     -1.01      0.00
   -6   14    8     -0.77      0.00
   -6   14    7     -1.20      0.00
   -6   14    6      0.82      0.00
   -6   14    5     -1.10      0.00
   -6   14    4     -1.66      0.00
   -6   14    3      0.13      0.00
   -6   14    2      0.48      0.00
   -6   14    1      0.31      0.00
    6   14    0      0.54      0.00
    6   14    1      0.53      0.00
    6   14    2     -0.28      0.00
    6   14    3     -0.56      0.00
    6   14    4     -0.15      0.00
    6   14    5      1.08      0.00
    6   14    6      0.21      0.00
    6   14    7      2.83      0.00
    6   14    8      1.02      0.00
   -6   15   10     -0.47      0.00
   -6   15    9      0.99      0.00
   -6   15    8      0.11      0.00
   -6   15    7     -0.83      0.00
   -6   15    6     -1.94      0.00
   -6   15    5     -1.48      0.00
   -6   15    4      1.27      0.00
   -6   15    3     -0.37      0.00
   -6   15    2      0.62      0.00
   -6   15    1      0.36      0.00
    6   15    0     -0.08      0.00
    6   15    1      1.48      0.00
    6   15    2      1.75      0.00
    6   15    3      0.45      0.00
    6   15    4      0.15      0.00
    6   15    5      0.47      0.00
    6   15    6     -2.61      0.00
    6   15    7     -1.70      0.00
    6   15    8     -0.63      0.00
   -6   16   10     -0.03      0.00
   -6   16    9      1.35      0.00
   -6   16    8      0.47      0.00
   -6   16    7     -0.10      0.00
   -6   16    6     -0.77      0.00
   -6   16    5      0.84      0.00
   -6   16    4      1.28      0.00
   -6   16    3      0.79      0.00
   -6   16    2      1.00      0.00
   -6   16    1      2.49      0.00
    6   16    0      0.74      0.00
    6   16    1     -0.05      0.00
    6   16    2     -0.10      0.00
    6   16    3      0.63      0.00
    6   16    4      1.32      0.00
    6   16    5     -0.48      0.00
    6   16    6      2.08      0.00
    6   16    7     -0.43      0.00
   -6   17    9     -0.13      0.00
   -6   17    8     -0.29      0.00
   -6   17    7      0.65      0.00
   -6   17    6      1.33      0.00
   -6   17    5      0.41      0.00
   -6   17    4     -0.90      0.00
   -6   17    3     -1.20      0.00
   -6   17    2     -2.31      0.00
   -6   17    1     -0.75      0.00
    6   17    0     -0.53      0.00
    6   17    1     -0.90      0.00
    6   17    2     -0.54      0.00
    6   17    3      1.61      0.00
    6   17    4      1.36      0.00
    6   17    5     -0.05      0.00
    6   17    6      1.51      0.00
   -6   18    8      0.46      0.00
   -6   18    7      0.95      0.00
   -6   18    6      1.05      0.00
   -6   18    5      1.66      0.00
   -6   18    4      2.08      0.00
   -6   18    3      0.50      0.00
   -6   18    2      2.07      0.00
   -6   18    1      0.61      0.00
    6   18    0      1.80      0.00
    6   18    1      0.47      0.00
    6   18    2     -0.27      0.00
    6   18    3      0.74      0.00
    6   18    4     -0.28      0.00
    6   18    5      1.82      0.00
   -6   19    7     -0.30      0.00
   -6   19    6      0.95      0.00
   -6   19    5      1.89      0.00
   -6   19    4      0.89      0.00
   -6   19    3     -0.31      0.00
   -6   19    2      0.80      0.00
   -6   19    1      0.57      0.00
    6   19    0      1.43      0.00
    6   19    1      1.18      0.00
    6   19    2      1.20      0.00
    6   19    3     -0.38      0.00
    6   19    4     -0.75      0.00
   -6   20    5     -0.52      0.00
   -6   20    4     -2.80      0.00
   -6   20    3     -0.96      0.00
   -6   20    2      0.24      0.00
   -6   20    1      3.18      0.00
    6   20    0      0.37      0.00
    6   20    1     -1.24      0.00
    6   20    2      0.48      0.00
    6   20    3     -0.07      0.00
   -6   21    3      1.98      0.00
   -6   21    2      1.92      0.00
   -6   21    1     -1.09      0.00
    6   21    0      0.95      0.00
   -7    0   14     -0.85      0.00
   -7    0   13     -0.07      0.00
   -7    0   12     -1.51      0.00
   -7    0   11      0.74      0.00
   -7    0   10     -2.24      0.00
   -7    0    9      1.04      0.00
   -7    0    8     -1.50      0.00
   -7    0    7      1.09      0.00
   -7    0    6      0.60      0.00
   -7    0    5      1.65      0.00
   -7    0    4     -4.28      0.00
   -7    0    3      4.29      0.00
   -7    0    2      1.17      0.00
   -7    0    1      3.31      0.00
    7    0    0     -0.81      0.00
    7    0    1     -2.71      0.00
    7    0    2     -1.27      0.00
    7    0    3     -6.03      0.00
    7    0    4     -1.26      0.00
    7    0    5      2.79      0.00
    7    0    6      0.80      0.00
    7    0    7     -0.48      0.00
    7    0    8     -4.00      0.00
    7    0    9     -0.20      0.00
    7    0   10      8.04      0.00
    7    0   11      0.77      0.00
   -7    1   14      1.11      0.00
   -7    1   13     -0.14      0.00
   -7    1   12      0.43      0.00
   -7    1   11     -0.78      0.00
   -7    1   10      0.15      0.00
   -7    1    9      1.32      0.00
   -7    1    8      0.08      0.00
   -7    1    7      0.72      0.00
   -7    1    6     -0.79      0.00
   -7    1    5      0.73      0.00
   -7    1    4     -0.39      0.00
   -7    1    3      1.77      0.00
   -7    1    2      0.11      0.00
   -7    1    1      1.60      0.00
    7    1    0     -2.44      0.00
    7    1    1     -3.06      0.00
    7    1    2     -0.76      0.00
    7    1    3      0.95      0.00
    7    1    4     -0.78      0.00
    7    1    5      0.14      0.00
    7    1    6      2.16      0.00
    7    1    7      0.53      0.00
    7    1    8     -2.90      0.00
    7    1    9     -3.84      0.00
    7    1   10      0.35      0.00
    7    1   11      1.37      0.00
   -7    2   14      0.60      0.00
   -7    2   13     -0.52      0.00
   -7    2   12      0.46      0.00
   -7    2   11     -0.69      0.00
   -7    2   10      1.49      0.00
   -7    2    9     -1.45      0.00
   -7    2    8      1.66      0.00
   -7    2    7     -0.48      0.00
   -7    2    6     -0.52      0.00
   -7    2    5     -2.21      0.00
   -7    2    4      3.07      0.00
   -7    2    3     -3.35      0.00
   -7    2    2      0.11      0.00
   -7    2    1     -2.38      0.00
    7    2    0     -0.15      0.00
    7    2    1      2.48      0.00
    7    2    2     -0.04      0.00
    7    2    3      3.71      0.00
    7    2    4      0.27      0.00
    7    2    5     -1.49      0.00
    7    2    6      0.05      0.00
    7    2    7     -2.20      0.00
    7    2    8      1.13      0.00
    7    2    9      2.12      0.00
    7    2   10     -3.88      0.00
    7    2   11      0.75      0.00
   -7    3   13     -0.23      0.00
   -7    3   12     -0.78      0.00
   -7    3   11      0.42      0.00
   -7    3   10     -0.14      0.00
   -7    3    9     -0.70      0.00
   -7    3    8      0.33      0.00
   -7    3    7      0.29      0.00
   -7    3    6      0.23      0.00
   -7    3    5     -0.51      0.00
   -7    3    4      0.94      0.00
   -7    3    3      0.89      0.00
   -7    3    2      0.27      0.00
   -7    3    1     -0.85      0.00
    7    3    0      1.41      0.00
    7    3    1      2.77      0.00
    7    3    2      0.40      0.00
    7    3    3      0.33      0.00
    7    3    4      0.10      0.00
    7    3    5     -1.00      0.00
    7    3    6     -0.28      0.00
    7    3    7     -0.23      0.00
    7    3    8     -0.92      0.00
    7    3    9     -1.90      0.00
    7    3   10     -1.43      0.00
    7    3   11      1.12      0.00
   -7    4   13     -0.80      0.00
   -7    4   12     -0.46      0.00
   -7    4   11      0.38      0.00
   -7    4   10     -0.90      0.00
   -7    4    9      0.62      0.00
   -7    4    8     -1.51      0.00
   -7    4    7      0.92      0.00
   -7    4    6     -0.71      0.00
   -7    4    5     -0.34      0.00
   -7    4    4     -2.43      0.00
   -7    4    3      1.60      0.00
   -7    4    2     -1.85      0.00
   -7    4    1      0.83      0.00
    7    4    0      1.67      0.00
    7    4    1     -2.48      0.00
    7    4    2      0.99      0.00
    7    4    3     -1.98      0.00
    7    4    4      0.19      0.00
    7    4    5      0.04      0.00
    7    4    6     -2.77      0.00
    7    4    7      0.60      0.00
    7    4    8     -1.27      0.00
    7    4    9     -2.77      0.00
    7    4   10      0.79      0.00
    7    4   11     -2.52      0.00
   -7    5   13     -1.00      0.00
   -7    5   12      0.13      0.00
   -7    5   11     -0.54      0.00
   -7    5   10     -0.62      0.00
   -7    5    9      0.48      0.00
   -7    5    8      0.84      0.00
   -7    5    7     -1.30      0.00
   -7    5    6     -0.75      0.00
   -7    5    5     -0.39      0.00
   -7    5    4      0.18      0.00
   -7    5    3     -0.93      0.00
   -7    5    2      0.39      0.00
   -7    5    1      0.81      0.00
    7    5    0     -0.56      0.00
    7    5    1     -1.85      0.00
    7    5    2      1.05      0.00
    7    5    3     -0.55      0.00
    7    5    4     -0.20      0.00
    7    5    5      0.46      0.00
    7    5    6      0.07      0.00
    7    5    7     -0.42      0.00
    7    5    8     -1.88      0.00
    7    5    9     -0.53      0.00
    7    5   10      0.55      0.00
   -7    6   13     -0.02      0.00
   -7    6   12     -0.18      0.00
   -7    6   11      0.01      0.00
   -7    6   10      0.41      0.00
   -7    6    9     -0.48      0.00
   -7    6    8      1.34      0.00
   -7    6    7     -1.52      0.00
   -7    6    6     -0.02      0.00
   -7    6    5      0.78      0.00
   -7    6    4      1.00      0.00
   -7    6    3     -1.66      0.00
   -7    6    2      0.31      0.00
   -7    6    1     -1.63      0.00
    7    6    0     -3.08      0.00
    7    6    1      1.46      0.00
    7    6    2     -2.05      0.00
    7    6    3      1.35      0.00
    7    6    4      0.18      0.00
    7    6    5     -0.60      0.00
    7    6    6      2.25      0.00
    7    6    7      0.70      0.00
    7    6    8      2.29      0.00
    7    6    9     -0.24      0.00
    7    6   10     -1.70      0.00
   -7    7   13      0.15      0.00
   -7    7   12      0.56      0.00
   -7    7   11      0.11      0.00
   -7    7   10     -0.29      0.00
   -7    7    9     -0.87      0.00
   -7    7    8     -1.66      0.00
   -7    7    7     -0.03      0.00
   -7    7    6     -1.16      0.00
   -7    7    5      0.84      0.00
   -7    7    4     -0.17      0.00
   -7    7    3      0.05      0.00
   -7    7    2      0.76      0.00
   -7    7    1      0.78      0.00
    7    7    0     -0.32      0.00
    7    7    1      1.08      0.00
    7    7    2     -0.50      0.00
    7    7    3      2.18      0.00
    7    7    4      1.30      0.00
    7    7    5      1.02      0.00
    7    7    6     -0.98      0.00
    7    7    7     -1.90      0.00
    7    7    8     -1.56      0.00
    7    7    9     -0.45      0.00
    7    7   10      0.96      0.00
   -7    8   13      0.16      0.00
   -7    8   12      0.83      0.00
   -7    8   11      0.32      0.00
   -7    8   10      0.15      0.00
   -7    8    9      0.32      0.00
   -7    8    8     -1.88      0.00
   -7    8    7      0.42      0.00
   -7    8    6     -0.17      0.00
   -7    8    5     -0.03      0.00
   -7    8    4      0.23      0.00
   -7    8    3      2.39      0.00
   -7    8    2      0.49      0.00
   -7    8    1      0.12      0.00
    7    8    0      2.31      0.00
    7    8    1     -0.85      0.00
    7    8    2      1.44      0.00
    7    8    3     -0.74      0.00
    7    8    4      0.35      0.00
    7    8    5      1.77      0.00
    7    8    6     -0.57      0.00
    7    8    7     -0.25      0.00
    7    8    8     -3.05      0.00
    7    8    9     -0.65      0.00
    7    8   10     -3.42      0.00
   -7    9   12      1.04      0.00
   -7    9   11     -0.13      0.00
   -7    9   10     -1.24      0.00
   -7    9    9     -0.41      0.00
   -7    9    8      0.80      0.00
   -7    9    7      0.33      0.00
   -7    9    6      1.75      0.00
   -7    9    5     -0.14      0.00
   -7    9    4     -0.58      0.00
   -7    9    3     -0.09      0.00
   -7    9    2     -2.26      0.00
   -7    9    1     -1.29      0.00
    7    9    0     -0.38      0.00
    7    9    1     -0.43      0.00
    7    9    2      1.36      0.00
    7    9    3     -1.05      0.00
    7    9    4      0.32      0.00
    7    9    5     -1.13      0.00
    7    9    6      0.36      0.00
    7    9    7      0.31      0.00
    7    9    8      2.40      0.00
    7    9    9      1.10      0.00
   -7   10   12     -1.35      0.00
   -7   10   11     -0.67      0.00
   -7   10   10     -0.34      0.00
   -7   10    9      0.56      0.00
   -7   10    8      1.54      0.00
   -7   10    7      0.01      0.00
   -7   10    6      1.41      0.00
   -7   10    5     -0.38      0.00
   -7   10    4      0.08      0.00
   -7   10    3     -1.65      0.00
   -7   10    2     -0.50      0.00
   -7   10    1      0.85      0.00
    7   10    0     -2.27      0.00
    7   10    1     -0.04      0.00
    7   10    2     -0.80      0.00
    7   10    3     -0.16      0.00
    7   10    4      0.23      0.00
    7   10    5     -1.53      0.00
    7   10    6     -0.83      0.00
    7   10    7     -0.63      0.00
    7   10    8     -0.18      0.00
    7   10    9     -3.76      0.00
   -7   11   12      0.64      0.00
   -7   11   11      0.40      0.00
   -7   11   10      0.13      0.00
   -7   11    9     -0.26      0.00
   -7   11    8      0.57      0.00
   -7   11    7      0.54      0.00
   -7   11    6     -1.12      0.00
   -7   11    5     -0.75      0.00
   -7   11    4      1.17      0.00
   -7   11    3     -1.53      0.00
   -7   11    2     -0.24      0.00
   -7   11    1      1.20      0.00
    7   11    0     -0.90      0.00
    7   11    1     -1.28      0.00
    7   11    2     -1.95      0.00
    7   11    3      0.95      0.00
    7   11    4     -0.10      0.00
    7   11    5      1.59      0.00
    7   11    6     -0.09      0.00
    7   11    7      2.13      0.00
    7   11    8      0.65      0.00
    7   11    9      0.51      0.00
   -7   12   11     -1.85      0.00
   -7   12   10      0.45      0.00
   -7   12    9      0.60      0.00
   -7   12    8      0.19      0.00
   -7   12    7     -0.11      0.00
   -7   12    6     -2.42      0.00
   -7   12    5      0.36      0.00
   -7   12    4     -1.29      0.00
   -7   12    3     -0.55      0.00
   -7   12    2     -0.11      0.00
   -7   12    1     -0.87      0.00
    7   12    0      2.11      0.00
    7   12    1     -0.17      0.00
    7   12    2     -1.44      0.00
    7   12    3     -0.80      0.00
    7   12    4     -0.21      0.00
    7   12    5      0.91      0.00
    7   12    6     -0.47      0.00
    7   12    7     -2.81      0.00
    7   12    8     -1.02      0.00
   -7   13   11      0.61      0.00
   -7   13   10      0.67      0.00
   -7   13    9     -1.02      0.00
   -7   13    8     -3.16      0.00
   -7   13    7     -2.36      0.00
   -7   13    6     -0.64      0.00
   -7   13    5      0.06      0.00
   -7   13    4     -1.98      0.00
   -7   13    3      1.11      0.00
   -7   13    2      1.00      0.00
   -7   13    1      0.32      0.00
    7   13    0     -1.29      0.00
    7   13    1      0.55      0.00
    7   13    2      1.97      0.00
    7   13    3      0.10      0.00
    7   13    4      0.49      0.00
    7   13    5     -0.38      0.00
    7   13    6      2.04      0.00
    7   13    7     -1.76      0.00
    7   13    8     -1.25      0.00
   -7   14   10     -1.33      0.00
   -7   14    9      0.22      0.00
   -7   14    8      0.12      0.00
   -7   14    7     -1.00      0.00
   -7   14    6     -0.44      0.00
   -7   14    5     -2.21      0.00
   -7   14    4     -0.28      0.00
   -7   14    3     -0.07      0.00
   -7   14    2      0.13      0.00
   -7   14    1      0.71      0.00
    7   14    0     -1.41      0.00
    7   14    1     -2.00      0.00
    7   14    2     -0.72      0.00
    7   14    3      0.96      0.00
    7   14    4      0.54      0.00
    7   14    5      1.13      0.00
    7   14    6      1.60      0.00
    7   14    7      4.06      0.00
   -7   15    9      0.41      0.00
   -7   15    8      0.81      0.00
   -7   15    7     -0.43      0.00
   -7   15    6     -0.43      0.00
   -7   15    5      0.52      0.00
   -7   15    4      1.72      0.00
   -7   15    3     -0.44      0.00
   -7   15    2      0.96      0.00
   -7   15    1      1.85      0.00
    7   15    0      0.24      0.00
    7   15    1      0.20      0.00
    7   15    2      0.93      0.00
    7   15    3      0.04      0.00
    7   15    4     -0.41      0.00
    7   15    5      1.37      0.00
    7   15    6     -1.76      0.00
    7   15    7      1.03      0.00
   -7   16    9     -0.84      0.00
   -7   16    8     -0.02      0.00
   -7   16    7      1.26      0.00
   -7   16    6      2.18      0.00
   -7   16    5      1.83      0.00
   -7   16    4     -0.30      0.00
   -7   16    3     -0.45      0.00
   -7   16    2     -0.72      0.00
   -7   16    1      1.44      0.00
    7   16    0      0.90      0.00
    7   16    1      0.70      0.00
    7   16    2      0.94      0.00
    7   16    3     -0.30      0.00
    7   16    4      1.09      0.00
    7   16    5     -0.65      0.00
    7   16    6      0.27      0.00
   -7   17    8     -0.50      0.00
   -7   17    7      0.65      0.00
   -7   17    6      0.58      0.00
   -7   17    5     -0.20      0.00
   -7   17    4      0.05      0.00
   -7   17    3      0.65      0.00
   -7   17    2     -0.62      0.00
   -7   17    1     -0.31      0.00
    7   17    0     -0.62      0.00
    7   17    1      0.73      0.00
    7   17    2     -0.92      0.00
    7   17    3      0.65      0.00
    7   17    4      2.06      0.00
    7   17    5      0.06      0.00
   -7   18    7      0.71      0.00
   -7   18    6      0.33      0.00
   -7   18    5      1.98      0.00
   -7   18    4      2.66      0.00
   -7   18    3      1.72      0.00
   -7   18    2      4.60      0.00
   -7   18    1      1.17      0.00
    7   18    0     -1.31      0.00
    7   18    1     -1.61      0.00
    7   18    2     -1.30      0.00
    7   18    3      0.72      0.00
    7   18    4     -0.40      0.00
   -7   19    5      0.45      0.00
   -7   19    4     -2.40      0.00
   -7   19    3     -1.63      0.00
   -7   19    2      0.75      0.00
   -7   19    1      0.06      0.00
    7   19    0      2.18      0.00
    7   19    1      1.41      0.00
    7   19    2      0.80      0.00
   -7   20    3      2.56      0.00
   -7   20    2      0.59      0.00
   -7   20    1     -0.28      0.00
    7   20    0      0.04      0.00
   -8    0   13      2.41      0.00
   -8    0   12      0.08      0.00
   -8    0   11      0.44      0.00
   -8    0   10     -1.03      0.00
   -8    0    9      1.73      0.00
   -8    0    8      0.23      0.00
   -8    0    7      0.58      0.00
   -8    0    6     -0.37      0.00
   -8    0    5      1.51      0.00
   -8    0    4      0.24      0.00
   -8    0    3      3.86      0.00
   -8    0    2      1.48      0.00
   -8    0    1      1.88      0.00
    8    0    0      1.11      0.00
    8    0    1     -0.18      0.00
    8    0    2      0.45      0.00
    8    0    3     -1.53      0.00
    8    0    4     -0.73      0.00
    8    0    5     -0.20      0.00
    8    0    6     -2.01      0.00
    8    0    7      1.68      0.00
    8    0    8      4.26      0.00
    8    0    9      8.42      0.00
    8    0   10      4.41      0.00
   -8    1   13     -2.06      0.00
   -8    1   12      1.37      0.00
   -8    1   11     -1.16      0.00
   -8    1   10      1.98      0.00
   -8    1    9      0.21      0.00
   -8    1    8      1.08      0.00
   -8    1    7     -0.73      0.00
   -8    1    6      1.31      0.00
   -8    1    5     -0.32      0.00
   -8    1    4      3.51      0.00
   -8    1    3     -2.22      0.00
   -8    1    2     -1.32      0.00
   -8    1    1     -0.51      0.00
    8    1    0     -0.25      0.00
    8    1    1     -3.70      0.00
    8    1    2     -1.02      0.00
    8    1    3     -1.81      0.00
    8    1    4     -1.09      0.00
    8    1    5      2.15      0.00
    8    1    6      1.09      0.00
    8    1    7      0.09      0.00
    8    1    8     -2.34      0.00
    8    1    9     -2.55      0.00
    8    1   10      7.20      0.00
   -8    2   13     -1.65      0.00
   -8    2   12      0.44      0.00
   -8    2   11      0.09      0.00
   -8    2   10      0.51      0.00
   -8    2    9     -1.93      0.00
   -8    2    8      0.26      0.00
   -8    2    7     -0.08      0.00
   -8    2    6      0.19      0.00
   -8    2    5     -0.83      0.00
   -8    2    4      1.23      0.00
   -8    2    3     -1.46      0.00
   -8    2    2     -0.73      0.00
   -8    2    1     -1.83      0.00
    8    2    0     -1.52      0.00
    8    2    1     -0.76      0.00
    8    2    2     -1.45      0.00
    8    2    3      0.74      0.00
    8    2    4      0.40      0.00
    8    2    5      0.13      0.00
    8    2    6      1.27      0.00
    8    2    7     -1.27      0.00
    8    2    8     -0.87      0.00
    8    2    9     -2.07      0.00
    8    2   10     -1.37      0.00
   -8    3   13      1.31      0.00
   -8    3   12     -1.20      0.00
   -8    3   11      0.48      0.00
   -8    3   10     -1.00      0.00
   -8    3    9      0.71      0.00
   -8    3    8     -0.23      0.00
   -8    3    7      1.26      0.00
   -8    3    6     -0.79      0.00
   -8    3    5      0.52      0.00
   -8    3    4     -1.63      0.00
   -8    3    3      1.66      0.00
   -8    3    2     -0.41      0.00
   -8    3    1     -0.97      0.00
    8    3    0     -0.32      0.00
    8    3    1      3.54      0.00
    8    3    2      0.02      0.00
    8    3    3     -0.01      0.00
    8    3    4      0.20      0.00
    8    3    5     -1.81      0.00
    8    3    6     -0.64      0.00
    8    3    7     -2.42      0.00
    8    3    8     -0.45      0.00
    8    3    9      3.87      0.00
    8    3   10     -1.73      0.00
   -8    4   13     -1.04      0.00
   -8    4   12     -0.72      0.00
   -8    4   11     -0.04      0.00
   -8    4   10     -0.53      0.00
   -8    4    9      1.01      0.00
   -8    4    8     -0.37      0.00
   -8    4    7     -0.46      0.00
   -8    4    6     -1.10      0.00
   -8    4    5     -0.48      0.00
   -8    4    4     -1.17      0.00
   -8    4    3     -0.75      0.00
   -8    4    2     -0.76      0.00
   -8    4    1      0.90      0.00
    8    4    0      0.81      0.00
    8    4    1     -0.06      0.00
    8    4    2      1.06      0.00
    8    4    3     -0.53      0.00
    8    4    4     -0.89      0.00
    8    4    5     -0.70      0.00
    8    4    6     -1.89      0.00
    8    4    7     -1.45      0.00
    8    4    8     -2.47      0.00
    8    4    9     -2.69      0.00
    8    4   10     -1.17      0.00
   -8    5   13     -0.41      0.00
   -8    5   12      1.20      0.00
   -8    5   11      0.18      0.00
   -8    5   10     -0.09      0.00
   -8    5    9     -0.27      0.00
   -8    5    8      0.89      0.00
   -8    5    7     -1.35      0.00
   -8    5    6      0.55      0.00
   -8    5    5      1.03      0.00
   -8    5    4      0.03      0.00
   -8    5    3     -1.93      0.00
   -8    5    2     -0.33      0.00
   -8    5    1      0.80      0.00
    8    5    0      1.65      0.00
    8    5    1     -2.92      0.00
    8    5    2      0.88      0.00
    8    5    3      1.50      0.00
    8    5    4      0.41      0.00
    8    5    5      0.61      0.00
    8    5    6     -1.23      0.00
    8    5    7      0.62      0.00
    8    5    8     -1.68      0.00
    8    5    9     -3.81      0.00
   -8    6   12      1.09      0.00
   -8    6   11      0.16      0.00
   -8    6   10     -0.54      0.00
   -8    6    9     -1.33      0.00
   -8    6    8     -0.03      0.00
   -8    6    7     -0.22      0.00
   -8    6    6      0.16      0.00
   -8    6    5      0.46      0.00
   -8    6    4     -0.40      0.00
   -8    6    3     -1.21      0.00
   -8    6    2     -0.92      0.00
   -8    6    1     -1.41      0.00
    8    6    0     -0.04      0.00
    8    6    1      1.18      0.00
    8    6    2      0.17      0.00
    8    6    3      0.64      0.00
    8    6    4      1.69      0.00
    8    6    5     -0.47      0.00
    8    6    6      0.27      0.00
    8    6    7      0.27      0.00
    8    6    8     -0.75      0.00
    8    6    9     -1.90      0.00
   -8    7   12      0.30      0.00
   -8    7   11     -0.71      0.00
   -8    7   10      0.26      0.00
   -8    7    9      0.40      0.00
   -8    7    8     -1.05      0.00
   -8    7    7     -0.08      0.00
   -8    7    6     -0.65      0.00
   -8    7    5     -1.03      0.00
   -8    7    4      0.73      0.00
   -8    7    3      0.69      0.00
   -8    7    2      2.39      0.00
   -8    7    1      1.14      0.00
    8    7    0     -2.99      0.00
    8    7    1      1.12      0.00
    8    7    2     -0.64      0.00
    8    7    3      1.25      0.00
    8    7    4      1.68      0.00
    8    7    5      0.72      0.00
    8    7    6      1.89      0.00
    8    7    7      0.40      0.00
    8    7    8      1.95      0.00
    8    7    9      1.26      0.00
   -8    8   12      0.40      0.00
   -8    8   11     -0.23      0.00
   -8    8   10     -0.09      0.00
   -8    8    9     -0.10      0.00
   -8    8    8     -1.44      0.00
   -8    8    7      0.53      0.00
   -8    8    6      1.01      0.00
   -8    8    5      0.17      0.00
   -8    8    4     -0.52      0.00
   -8    8    3      0.58      0.00
   -8    8    2      0.20      0.00
   -8    8    1      0.47      0.00
    8    8    0      1.54      0.00
    8    8    1     -0.12      0.00
    8    8    2     -1.80      0.00
    8    8    3      0.70      0.00
    8    8    4      0.04      0.00
    8    8    5      2.72      0.00
    8    8    6      0.14      0.00
    8    8    7     -1.78      0.00
    8    8    8     -1.51      0.00
    8    8    9      0.50      0.00
   -8    9   12     -0.50      0.00
   -8    9   11     -0.87      0.00
   -8    9   10     -2.20      0.00
   -8    9    9     -0.07      0.00
   -8    9    8      1.10      0.00
   -8    9    7      0.53      0.00
   -8    9    6      0.67      0.00
   -8    9    5     -0.32      0.00
   -8    9    4     -2.65      0.00
   -8    9    3     -0.45      0.00
   -8    9    2     -1.56      0.00
   -8    9    1      1.57      0.00
    8    9    0      1.56      0.00
    8    9    1      0.21      0.00
    8    9    2      1.47      0.00
    8    9    3     -1.37      0.00
    8    9    4     -0.40      0.00
    8    9    5      1.49      0.00
    8    9    6      0.62      0.00
    8    9    7      0.08      0.00
    8    9    8     -1.10      0.00
   -8   10   11     -0.34      0.00
   -8   10   10      0.81      0.00
   -8   10    9      0.75      0.00
   -8   10    8      1.40      0.00
   -8   10    7     -1.30      0.00
   -8   10    6     -0.37      0.00
   -8   10    5     -1.11      0.00
   -8   10    4      1.26      0.00
   -8   10    3      0.94      0.00
   -8   10    2     -0.12      0.00
   -8   10    1      0.71      0.00
    8   10    0     -2.20      0.00
    8   10    1     -1.37      0.00
    8   10    2      0.88      0.00
    8   10    3     -3.55      0.00
    8   10    4     -0.58      0.00
    8   10    5     -2.12      0.00
    8   10    6     -1.18      0.00
    8   10    7      0.17      0.00
    8   10    8     -0.08      0.00
   -8   11   11     -0.34      0.00
   -8   11   10      0.48      0.00
   -8   11    9     -2.18      0.00
   -8   11    8     -1.72      0.00
   -8   11    7     -1.00      0.00
   -8   11    6     -2.24      0.00
   -8   11    5     -0.65      0.00
   -8   11    4      0.69      0.00
   -8   11    3     -1.65      0.00
   -8   11    2      0.77      0.00
   -8   11    1      0.05      0.00
    8   11    0     -2.46      0.00
    8   11    1      0.59      0.00
    8   11    2      0.49      0.00
    8   11    3      1.17      0.00
    8   11    4     -0.80      0.00
    8   11    5     -0.74      0.00
    8   11    6      0.82      0.00
    8   11    7      2.62      0.00
    8   11    8      0.79      0.00
   -8   12   10      0.01      0.00
   -8   12    9      0.12      0.00
   -8   12    8     -1.78      0.00
   -8   12    7      1.19      0.00
   -8   12    6     -0.76      0.00
   -8   12    5      1.25      0.00
   -8   12    4     -0.48      0.00
   -8   12    3      0.37      0.00
   -8   12    2      2.43      0.00
   -8   12    1     -0.94      0.00
    8   12    0      0.02      0.00
    8   12    1     -1.71      0.00
    8   12    2     -3.33      0.00
    8   12    3      2.17      0.00
    8   12    4      0.00      0.00
    8   12    5     -0.71      0.00
    8   12    6     -0.66      0.00
    8   12    7     -0.24      0.00
   -8   13   10     -0.86      0.00
   -8   13    9      0.12      0.00
   -8   13    8     -0.61      0.00
   -8   13    7     -1.13      0.00
   -8   13    6      0.24      0.00
   -8   13    5     -1.50      0.00
   -8   13    4     -1.03      0.00
   -8   13    3      1.07      0.00
   -8   13    2     -0.29      0.00
   -8   13    1     -0.17      0.00
    8   13    0      2.00      0.00
    8   13    1      1.79      0.00
    8   13    2      0.51      0.00
    8   13    3     -1.99      0.00
    8   13    4     -0.14      0.00
    8   13    5      0.13      0.00
    8   13    6      0.21      0.00
    8   13    7     -3.33      0.00
   -8   14    9     -0.21      0.00
   -8   14    8      2.20      0.00
   -8   14    7     -0.92      0.00
   -8   14    6      0.94      0.00
   -8   14    5     -0.48      0.00
   -8   14    4     -0.21      0.00
   -8   14    3     -0.81      0.00
   -8   14    2     -1.05      0.00
   -8   14    1      0.02      0.00
    8   14    0     -2.65      0.00
    8   14    1     -0.27      0.00
    8   14    2      2.09      0.00
    8   14    3      0.87      0.00
    8   14    4     -0.07      0.00
    8   14    5      0.17      0.00
    8   14    6      1.08      0.00
   -8   15    8      0.15      0.00
   -8   15    7      0.99      0.00
   -8   15    6      0.43      0.00
   -8   15    5      2.15      0.00
   -8   15    4      0.92      0.00
   -8   15    3     -0.59      0.00
   -8   15    2      0.08      0.00
   -8   15    1      1.29      0.00
    8   15    0     -0.72      0.00
    8   15    1     -1.98      0.00
    8   15    2     -0.38      0.00
    8   15    3      1.73      0.00
    8   15    4      0.58      0.00
    8   15    5      1.77      0.00
   -8   16    8     -1.01      0.00
   -8   16    7      0.43      0.00
   -8   16    6     -0.67      0.00
   -8   16    5     -0.52      0.00
   -8   16    4     -0.14      0.00
   -8   16    3      1.07      0.00
   -8   16    2     -0.90      0.00
   -8   16    1     -0.26      0.00
    8   16    0      0.73      0.00
    8   16    1     -1.24      0.00
    8   16    2      1.52      0.00
    8   16    3      0.31      0.00
    8   16    4     -0.11      0.00
   -8   17    6      0.75      0.00
   -8   17    5     -0.16      0.00
   -8   17    4      1.14      0.00
   -8   17    3      1.64      0.00
   -8   17    2      1.77      0.00
   -8   17    1     -0.99      0.00
    8   17    0      0.60      0.00
    8   17    1      1.50      0.00
    8   17    2     -0.32      0.00
    8   17    3      0.66      0.00
   -8   18    5      1.65      0.00
   -8   18    4      0.22      0.00
   -8   18    3     -1.05      0.00
   -8   18    2      2.86      0.00
   -8   18    1      0.23      0.00
    8   18    0     -2.04      0.00
    8   18    1      0.36      0.00
    8   18    2     -1.63      0.00
   -8   19    2     -1.64      0.00
   -9    0   12      0.27      0.00
   -9    0   11      0.12      0.00
   -9    0   10      1.67      0.00
   -9    0    9     -0.16      0.00
   -9    0    8      1.22      0.00
   -9    0    7     -1.33      0.00
   -9    0    6      2.35      0.00
   -9    0    5      1.28      0.00
   -9    0    4      3.56      0.00
   -9    0    3     -0.57      0.00
   -9    0    2     -1.31      0.00
   -9    0    1      1.15      0.00
    9    0    0      0.94      0.00
    9    0    1      1.42      0.00
    9    0    2     -0.34      0.00
    9    0    3     -0.36      0.00
    9    0    4     -0.04      0.00
    9    0    5      0.92      0.00
    9    0    6     -0.13      0.00
    9    0    7      4.34      0.00
    9    0    8      1.07      0.00
    9    0    9      3.35      0.00
   -9    1   12      1.14      0.00
   -9    1   11     -0.49      0.00
   -9    1   10      1.19      0.00
   -9    1    9     -0.92      0.00
   -9    1    8     -0.18      0.00
   -9    1    7     -0.31      0.00
   -9    1    6      0.47      0.00
   -9    1    5     -1.35      0.00
   -9    1    4     -0.82      0.00
   -9    1    3     -2.64      0.00
   -9    1    2     -1.80      0.00
   -9    1    1     -0.64      0.00
    9    1    0      1.60      0.00
    9    1    1     -0.03      0.00
    9    1    2      1.23      0.00
    9    1    3      0.21      0.00
    9    1    4     -0.10      0.00
    9    1    5      0.35      0.00
    9    1    6     -0.55      0.00
    9    1    7      2.85      0.00
    9    1    8      1.74      0.00
    9    1    9      4.64      0.00
   -9    2   12      0.14      0.00
   -9    2   11      0.08      0.00
   -9    2   10     -1.05      0.00
   -9    2    9      0.38      0.00
   -9    2    8     -0.61      0.00
   -9    2    7      1.42      0.00
   -9    2    6     -1.24      0.00
   -9    2    5      0.14      0.00
   -9    2    4     -1.79      0.00
   -9    2    3      0.77      0.00
   -9    2    2      0.74      0.00
   -9    2    1     -1.22      0.00
    9    2    0     -1.09      0.00
    9    2    1     -2.48      0.00
    9    2    2     -0.78      0.00
    9    2    3      0.59      0.00
    9    2    4      0.23      0.00
    9    2    5     -0.20      0.00
    9    2    6      1.27      0.00
    9    2    7     -2.30      0.00
    9    2    8      0.29      0.00
    9    2    9     -2.75      0.00
   -9    3   12     -1.35      0.00
   -9    3   11      0.71      0.00
   -9    3   10     -0.18      0.00
   -9    3    9      1.30      0.00
   -9    3    8      0.78      0.00
   -9    3    7      0.87      0.00
   -9    3    6     -0.02      0.00
   -9    3    5     -0.14      0.00
   -9    3    4     -1.11      0.00
   -9    3    3     -0.44      0.00
   -9    3    2     -0.06      0.00
   -9    3    1     -0.68      0.00
    9    3    0      0.16      0.00
    9    3    1      1.48      0.00
    9    3    2     -0.41      0.00
    9    3    3      0.28      0.00
    9    3    4      0.44      0.00
    9    3    5     -0.15      0.00
    9    3    6      1.39      0.00
    9    3    7      0.83      0.00
    9    3    8      2.05      0.00
   -9    4   12      0.91      0.00
   -9    4   11      0.43      0.00
   -9    4   10     -0.75      0.00
   -9    4    9     -0.74      0.00
   -9    4    8      0.23      0.00
   -9    4    7     -1.19      0.00
   -9    4    6     -0.22      0.00
   -9    4    5      0.21      0.00
   -9    4    4     -0.07      0.00
   -9    4    3     -2.09      0.00
   -9    4    2     -1.05      0.00
   -9    4    1      1.71      0.00
    9    4    0      0.72      0.00
    9    4    1      1.83      0.00
    9    4    2      0.98      0.00
    9    4    3     -1.66      0.00
    9    4    4     -1.33      0.00
    9    4    5     -0.54      0.00
    9    4    6     -2.47      0.00
    9    4    7     -1.75      0.00
    9    4    8     -1.83      0.00
   -9    5   12      1.18      0.00
   -9    5   11     -0.63      0.00
   -9    5   10     -0.50      0.00
   -9    5    9     -0.31      0.00
   -9    5    8      0.15      0.00
   -9    5    7      0.02      0.00
   -9    5    6      0.30      0.00
   -9    5    5      0.91      0.00
   -9    5    4     -0.44      0.00
   -9    5    3      0.12      0.00
   -9    5    2      0.39      0.00
   -9    5    1      0.50      0.00
    9    5    0     -0.56      0.00
    9    5    1     -2.16      0.00
    9    5    2      0.01      0.00
    9    5    3      0.04      0.00
    9    5    4     -0.90      0.00
    9    5    5      0.61      0.00
    9    5    6      0.36      0.00
    9    5    7     -1.01      0.00
    9    5    8     -1.96      0.00
   -9    6   12     -0.07      0.00
   -9    6   11     -1.21      0.00
   -9    6   10      0.04      0.00
   -9    6    9     -0.33      0.00
   -9    6    8     -0.21      0.00
   -9    6    7     -0.51      0.00
   -9    6    6      0.00      0.00
   -9    6    5     -1.60      0.00
   -9    6    4      0.72      0.00
   -9    6    3      0.71      0.00
   -9    6    2      1.46      0.00
   -9    6    1     -0.33      0.00
    9    6    0      0.92      0.00
    9    6    1     -0.11      0.00
    9    6    2      0.22      0.00
    9    6    3      1.77      0.00
    9    6    4      1.91      0.00
    9    6    5     -1.19      0.00
    9    6    6     -1.88      0.00
    9    6    7     -0.65      0.00
    9    6    8     -1.27      0.00
   -9    7   11     -0.95      0.00
   -9    7   10      0.34      0.00
   -9    7    9     -0.16      0.00
   -9    7    8     -1.23      0.00
   -9    7    7     -0.94      0.00
   -9    7    6      0.67      0.00
   -9    7    5     -0.52      0.00
   -9    7    4      0.16      0.00
   -9    7    3      0.20      0.00
   -9    7    2      2.32      0.00
   -9    7    1      2.38      0.00
    9    7    0     -0.57      0.00
    9    7    1      1.26      0.00
    9    7    2      1.08      0.00
    9    7    3      1.07      0.00
    9    7    4      2.03      0.00
    9    7    5     -0.81      0.00
    9    7    6     -0.76      0.00
    9    7    7      0.47      0.00
    9    7    8     -1.23      0.00
   -9    8   11      0.11      0.00
   -9    8   10     -1.94      0.00
   -9    8    9     -0.87      0.00
   -9    8    8     -1.23      0.00
   -9    8    7      1.00      0.00
   -9    8    6     -0.25      0.00
   -9    8    5      1.23      0.00
   -9    8    4     -2.09      0.00
   -9    8    3      0.78      0.00
   -9    8    2     -1.45      0.00
   -9    8    1     -0.51      0.00
    9    8    0     -1.29      0.00
    9    8    1     -0.96      0.00
    9    8    2     -2.06      0.00
    9    8    3      1.53      0.00
    9    8    4      0.97      0.00
    9    8    5      1.49      0.00
    9    8    6      2.26      0.00
    9    8    7      0.32      0.00
   -9    9   11     -0.45      0.00
   -9    9   10     -0.37      0.00
   -9    9    9      1.54      0.00
   -9    9    8      1.47      0.00
   -9    9    7     -0.04      0.00
   -9    9    6     -0.53      0.00
   -9    9    5     -0.82      0.00
   -9    9    4     -1.02      0.00
   -9    9    3      0.65      0.00
   -9    9    2     -1.13      0.00
   -9    9    1     -0.63      0.00
    9    9    0      2.20      0.00
    9    9    1      1.38      0.00
    9    9    2     -0.50      0.00
    9    9    3      0.72      0.00
    9    9    4      0.28      0.00
    9    9    5      3.43      0.00
    9    9    6      2.62      0.00
    9    9    7     -0.98      0.00
   -9   10   10      1.76      0.00
   -9   10    9     -1.36      0.00
   -9   10    8     -0.24      0.00
   -9   10    7     -0.63      0.00
   -9   10    6      0.66      0.00
   -9   10    5     -1.67      0.00
   -9   10    4      1.93      0.00
   -9   10    3     -0.41      0.00
   -9   10    2      0.62      0.00
   -9   10    1     -0.55      0.00
    9   10    0     -0.38      0.00
    9   10    1     -1.98      0.00
    9   10    2      0.66      0.00
    9   10    3     -2.82      0.00
    9   10    4     -0.68      0.00
    9   10    5     -0.18      0.00
    9   10    6     -2.73      0.00
    9   10    7     -0.34      0.00
   -9   11   10     -1.26      0.00
   -9   11    9     -2.02      0.00
   -9   11    8     -0.82      0.00
   -9   11    7      1.35      0.00
   -9   11    6     -1.91      0.00
   -9   11    5     -0.05      0.00
   -9   11    4      0.71      0.00
   -9   11    3     -1.32      0.00
   -9   11    2      0.72      0.00
   -9   11    1     -0.76      0.00
    9   11    0     -0.87      0.00
    9   11    1     -0.11      0.00
    9   11    2      0.19      0.00
    9   11    3     -3.42      0.00
    9   11    4     -0.65      0.00
    9   11    5      0.68      0.00
    9   11    6      0.06      0.00
   -9   12    9      2.39      0.00
   -9   12    8      0.67      0.00
   -9   12    7      0.78      0.00
   -9   12    6      0.08      0.00
   -9   12    5      1.22      0.00
   -9   12    4     -0.26      0.00
   -9   12    3      0.98      0.00
   -9   12    2     -0.05      0.00
   -9   12    1     -1.21      0.00
    9   12    0     -1.46      0.00
    9   12    1      0.50      0.00
    9   12    2     -1.29      0.00
    9   12    3      0.97      0.00
    9   12    4     -1.38      0.00
    9   12    5     -2.64      0.00
    9   12    6      1.45      0.00
   -9   13    9     -0.38      0.00
   -9   13    8      0.34      0.00
   -9   13    7     -2.95      0.00
   -9   13    6      0.77      0.00
   -9   13    5     -1.51      0.00
   -9   13    4     -2.21      0.00
   -9   13    3     -0.65      0.00
   -9   13    2     -1.39      0.00
   -9   13    1     -0.02      0.00
    9   13    0      1.55      0.00
    9   13    1     -0.08      0.00
    9   13    2     -1.85      0.00
    9   13    3      0.49      0.00
    9   13    4      0.96      0.00
    9   13    5     -0.71      0.00
   -9   14    8      0.50      0.00
   -9   14    7     -0.49      0.00
   -9   14    6     -0.32      0.00
   -9   14    5      0.82      0.00
   -9   14    4      0.01      0.00
   -9   14    3     -1.45      0.00
   -9   14    2     -1.00      0.00
   -9   14    1      0.22      0.00
    9   14    0     -0.31      0.00
    9   14    1      1.72      0.00
    9   14    2      1.69      0.00
    9   14    3     -1.35      0.00
    9   14    4     -1.84      0.00
   -9   15    7      1.22      0.00
   -9   15    6     -1.99      0.00
   -9   15    5     -0.35      0.00
   -9   15    4      0.39      0.00
   -9   15    3      0.25      0.00
   -9   15    2      0.33      0.00
   -9   15    1      1.75      0.00
    9   15    0     -2.39      0.00
    9   15    1      0.20      0.00
    9   15    2      1.42      0.00
    9   15    3      1.67      0.00
   -9   16    6      0.62      0.00
   -9   16    5     -1.75      0.00
   -9   16    4     -0.85      0.00
   -9   16    3      1.18      0.00
   -9   16    2      0.47      0.00
   -9   16    1     -1.75      0.00
    9   16    0     -0.18      0.00
    9   16    1     -2.33      0.00
    9   16    2      0.86      0.00
   -9   17    4      0.36      0.00
   -9   17    3     -0.02      0.00
   -9   17    2      1.70      0.00
   -9   17    1     -0.63      0.00
    9   17    0      0.82      0.00
  -10    0   11      0.91      0.00
  -10    0   10      1.79      0.00
  -10    0    9     -1.51      0.00
  -10    0    8      1.08      0.00
  -10    0    7     -0.49      0.00
  -10    0    6      1.89      0.00
  -10    0    5     -0.93      0.00
  -10    0    4     -1.91      0.00
  -10    0    3     -2.32      0.00
  -10    0    2     -1.07      0.00
  -10    0    1     -0.02      0.00
   10    0    0     -1.62      0.00
   10    0    1     -0.69      0.00
   10    0    2     -1.56      0.00
   10    0    3     -0.55      0.00
   10    0    4     -3.08      0.00
   10    0    5      0.46      0.00
   10    0    6     -0.66      0.00
   10    0    7     -0.46      0.00
  -10    1   11     -0.51      0.00
  -10    1   10     -0.95      0.00
  -10    1    9      0.97      0.00
  -10    1    8      0.09      0.00
  -10    1    7      1.15      0.00
  -10    1    6     -0.98      0.00
  -10    1    5     -0.86      0.00
  -10    1    4     -2.00      0.00
  -10    1    3     -1.05      0.00
  -10    1    2     -0.05      0.00
  -10    1    1     -1.62      0.00
   10    1    0      2.76      0.00
   10    1    1      0.90      0.00
   10    1    2     -0.28      0.00
   10    1    3     -0.42      0.00
   10    1    4     -0.78      0.00
   10    1    5      1.77      0.00
   10    1    6      0.17      0.00
   10    1    7      7.09      0.00
  -10    2   11      0.53      0.00
  -10    2   10     -0.73      0.00
  -10    2    9      1.40      0.00
  -10    2    8     -0.10      0.00
  -10    2    7      1.42      0.00
  -10    2    6     -0.43      0.00
  -10    2    5      0.91      0.00
  -10    2    4      0.54      0.00
  -10    2    3      0.93      0.00
  -10    2    2      0.62      0.00
  -10    2    1     -0.51      0.00
   10    2    0     -0.90      0.00
   10    2    1     -1.60      0.00
   10    2    2      0.13      0.00
   10    2    3     -0.34      0.00
   10    2    4      1.98      0.00
   10    2    5     -0.84      0.00
   10    2    6      0.28      0.00
   10    2    7     -1.04      0.00
  -10    3   11      0.71      0.00
  -10    3   10     -0.46      0.00
  -10    3    9     -0.26      0.00
  -10    3    8      1.15      0.00
  -10    3    7     -0.10      0.00
  -10    3    6     -0.31      0.00
  -10    3    5     -0.74      0.00
  -10    3    4     -0.53      0.00
  -10    3    3     -1.03      0.00
  -10    3    2     -0.91      0.00
  -10    3    1      0.33      0.00
   10    3    0     -1.22      0.00
   10    3    1     -0.58      0.00
   10    3    2     -0.08      0.00
   10    3    3      1.45      0.00
   10    3    4      1.64      0.00
   10    3    5     -0.64      0.00
   10    3    6      1.66      0.00
   10    3    7     -2.56      0.00
  -10    4   11     -1.44      0.00
  -10    4   10     -0.98      0.00
  -10    4    9     -0.68      0.00
  -10    4    8     -0.56      0.00
  -10    4    7     -1.10      0.00
  -10    4    6     -0.27      0.00
  -10    4    5      0.56      0.00
  -10    4    4      0.35      0.00
  -10    4    3      0.10      0.00
  -10    4    2      1.56      0.00
  -10    4    1      2.24      0.00
   10    4    0      2.83      0.00
   10    4    1      2.80      0.00
   10    4    2      2.20      0.00
   10    4    3      2.43      0.00
   10    4    4     -0.51      0.00
   10    4    5      0.03      0.00
   10    4    6     -2.34      0.00
   10    4    7      0.32      0.00
  -10    5   11     -1.41      0.00
  -10    5   10      0.51      0.00
  -10    5    9      0.06      0.00
  -10    5    8     -0.18      0.00
  -10    5    7      0.40      0.00
  -10    5    6      1.06      0.00
  -10    5    5     -0.66      0.00
  -10    5    4      0.50      0.00
  -10    5    3      1.35      0.00
  -10    5    2      1.05      0.00
  -10    5    1     -1.23      0.00
   10    5    0      1.28      0.00
   10    5    1     -0.63      0.00
   10    5    2     -0.61      0.00
   10    5    3     -1.31      0.00
   10    5    4     -1.99      0.00
   10    5    5      1.25      0.00
   10    5    6      0.58      0.00
   10    5    7      0.02      0.00
  -10    6   11     -1.15      0.00
  -10    6   10     -0.31      0.00
  -10    6    9     -0.95      0.00
  -10    6    8     -0.25      0.00
  -10    6    7     -1.50      0.00
  -10    6    6      0.61      0.00
  -10    6    5     -0.65      0.00
  -10    6    4      0.13      0.00
  -10    6    3     -0.34      0.00
  -10    6    2     -0.73      0.00
  -10    6    1      0.34      0.00
   10    6    0     -1.41      0.00
   10    6    1     -0.72      0.00
   10    6    2      0.03      0.00
   10    6    3     -0.57      0.00
   10    6    4      1.29      0.00
   10    6    5      0.70      0.00
   10    6    6      1.87      0.00
   10    6    7      0.13      0.00
  -10    7   10     -0.50      0.00
  -10    7    9      0.12      0.00
  -10    7    8     -0.55      0.00
  -10    7    7      0.31      0.00
  -10    7    6     -0.47      0.00
  -10    7    5      0.98      0.00
  -10    7    4     -2.03      0.00
  -10    7    3      0.42      0.00
  -10    7    2      0.30      0.00
  -10    7    1      0.71      0.00
   10    7    0     -0.24      0.00
   10    7    1      0.22      0.00
   10    7    2      1.06      0.00
   10    7    3      0.68      0.00
   10    7    4      2.75      0.00
   10    7    5     -0.08      0.00
   10    7    6     -2.37      0.00
  -10    8   10     -0.59      0.00
  -10    8    9      1.32      0.00
  -10    8    8      0.25      0.00
  -10    8    7      1.64      0.00
  -10    8    6     -1.68      0.00
  -10    8    5     -0.42      0.00
  -10    8    4     -1.40      0.00
  -10    8    3     -0.11      0.00
  -10    8    2     -1.90      0.00
  -10    8    1     -3.06      0.00
   10    8    0     -0.05      0.00
   10    8    1     -0.43      0.00
   10    8    2     -1.16      0.00
   10    8    3      1.19      0.00
   10    8    4      0.31      0.00
   10    8    5     -1.67      0.00
   10    8    6     -1.24      0.00
  -10    9   10      1.56      0.00
  -10    9    9      0.88      0.00
  -10    9    8      0.67      0.00
  -10    9    7      0.38      0.00
  -10    9    6      1.51      0.00
  -10    9    5     -2.62      0.00
  -10    9    4      0.19      0.00
  -10    9    3     -1.75      0.00
  -10    9    2      0.11      0.00
  -10    9    1      0.64      0.00
   10    9    0     -0.03      0.00
   10    9    1      0.86      0.00
   10    9    2     -1.51      0.00
   10    9    3      1.53      0.00
   10    9    4      1.17      0.00
   10    9    5      2.39      0.00
   10    9    6      4.61      0.00
  -10   10    9     -2.50      0.00
  -10   10    8      0.06      0.00
  -10   10    7     -0.13      0.00
  -10   10    6     -0.83      0.00
  -10   10    5     -1.42      0.00
  -10   10    4      2.39      0.00
  -10   10    3      0.66      0.00
  -10   10    2      0.65      0.00
  -10   10    1      0.44      0.00
   10   10    0     -0.28      0.00
   10   10    1     -0.67      0.00
   10   10    2      0.23      0.00
   10   10    3     -0.62      0.00
   10   10    4     -1.52      0.00
   10   10    5      0.70      0.00
  -10   11    9      0.45      0.00
  -10   11    8      0.13      0.00
  -10   11    7     -1.37      0.00
  -10   11    6     -3.07      0.00
  -10   11    5      2.25      0.00
  -10   11    4      0.38      0.00
  -10   11    3      0.48      0.00
  -10   11    2     -0.43      0.00
  -10   11    1     -0.01      0.00
   10   11    0     -1.01      0.00
   10   11    1     -2.58      0.00
   10   11    2      0.45      0.00
   10   11    3     -0.76      0.00
   10   11    4      0.67      0.00
  -10   12    8     -0.78      0.00
  -10   12    7     -1.35      0.00
  -10   12    6      1.76      0.00
  -10   12    5      0.78      0.00
  -10   12    4     -2.30      0.00
  -10   12    3      0.21      0.00
  -10   12    2      1.08      0.00
  -10   12    1      0.96      0.00
   10   12    0     -0.33      0.00
   10   12    1     -0.48      0.00
   10   12    2     -1.77      0.00
   10   12    3     -3.33      0.00
   10   12    4     -1.25      0.00
  -10   13    7     -1.68      0.00
  -10   13    6     -0.45      0.00
  -10   13    5     -2.14      0.00
  -10   13    4     -1.16      0.00
  -10   13    3     -1.22      0.00
  -10   13    2     -0.45      0.00
  -10   13    1     -0.08      0.00
   10   13    0      1.40      0.00
   10   13    1      1.23      0.00
   10   13    2     -1.13      0.00
   10   13    3     -0.58      0.00
  -10   14    6     -1.61      0.00
  -10   14    5     -0.38      0.00
  -10   14    4      0.48      0.00
  -10   14    3     -0.91      0.00
  -10   14    2     -0.68      0.00
  -10   14    1      0.51      0.00
   10   14    0      0.59      0.00
   10   14    1     -0.06      0.00
   10   14    2     -1.27      0.00
  -10   15    4     -0.80      0.00
  -10   15    3      1.33      0.00
  -10   15    2      1.12      0.00
  -10   15    1     -0.45      0.00
   10   15    0     -0.19      0.00
  -11    0   10      0.25      0.00
  -11    0    9      0.14      0.00
  -11    0    8      3.35      0.00
  -11    0    7     -0.50      0.00
  -11    0    6     -0.09      0.00
  -11    0    5     -0.47      0.00
  -11    0    4     -0.72      0.00
  -11    0    3     -1.72      0.00
  -11    0    2      0.06      0.00
  -11    0    1     -1.96      0.00
   11    0    0     -3.50      0.00
   11    0    1     -0.45      0.00
   11    0    2      0.61      0.00
   11    0    3      0.99      0.00
   11    0    4      0.14      0.00
   11    0    5      1.01      0.00
   11    0    6     -0.58      0.00
  -11    1   10     -1.04      0.00
  -11    1    9      1.91      0.00
  -11    1    8     -0.35      0.00
  -11    1    7     -0.03      0.00
  -11    1    6     -2.07      0.00
  -11    1    5      0.15      0.00
  -11    1    4      2.08      0.00
  -11    1    3     -0.07      0.00
  -11    1    2     -0.36      0.00
  -11    1    1      0.03      0.00
   11    1    0      0.60      0.00
   11    1    1      1.43      0.00
   11    1    2      0.24      0.00
   11    1    3      0.88      0.00
   11    1    4     -3.56      0.00
   11    1    5      1.21      0.00
   11    1    6     -0.73      0.00
  -11    2   10     -0.43      0.00
  -11    2    9      0.79      0.00
  -11    2    8     -1.21      0.00
  -11    2    7      1.01      0.00
  -11    2    6     -0.66      0.00
  -11    2    5     -0.46      0.00
  -11    2    4     -0.81      0.00
  -11    2    3      0.76      0.00
  -11    2    2      0.05      0.00
  -11    2    1      1.49      0.00
   11    2    0      2.14      0.00
   11    2    1      0.84      0.00
   11    2    2      0.19      0.00
   11    2    3     -1.14      0.00
   11    2    4     -0.30      0.00
   11    2    5     -0.56      0.00
   11    2    6      0.75      0.00
  -11    3   10     -0.37      0.00
  -11    3    9     -0.62      0.00
  -11    3    8     -0.37      0.00
  -11    3    7     -1.08      0.00
  -11    3    6      0.46      0.00
  -11    3    5     -0.19      0.00
  -11    3    4     -1.01      0.00
  -11    3    3     -0.28      0.00
  -11    3    2      0.84      0.00
  -11    3    1      0.81      0.00
   11    3    0     -2.50      0.00
   11    3    1     -3.39      0.00
   11    3    2     -1.93      0.00
   11    3    3     -2.91      0.00
   11    3    4      1.46      0.00
   11    3    5     -1.06      0.00
  -11    4   10      0.41      0.00
  -11    4    9     -1.08      0.00
  -11    4    8     -0.56      0.00
  -11    4    7     -0.74      0.00
  -11    4    6      1.44      0.00
  -11    4    5      0.20      0.00
  -11    4    4      1.30      0.00
  -11    4    3      0.57      0.00
  -11    4    2      1.74      0.00
  -11    4    1     -0.22      0.00
   11    4    0     -0.22      0.00
   11    4    1      0.85      0.00
   11    4    2      2.35      0.00
   11    4    3      2.85      0.00
   11    4    4      0.91      0.00
   11    4    5     -0.16      0.00
  -11    5    9     -0.28      0.00
  -11    5    8      0.90      0.00
  -11    5    7      0.36      0.00
  -11    5    6      0.08      0.00
  -11    5    5     -0.87      0.00
  -11    5    4     -0.41      0.00
  -11    5    3      0.27      0.00
  -11    5    2     -1.97      0.00
  -11    5    1     -1.76      0.00
   11    5    0      2.40      0.00
   11    5    1      1.77      0.00
   11    5    2      0.87      0.00
   11    5    3      3.91      0.00
   11    5    4     -0.70      0.00
   11    5    5      0.25      0.00
  -11    6    9      0.45      0.00
  -11    6    8      0.11      0.00
  -11    6    7     -0.47      0.00
  -11    6    6     -0.79      0.00
  -11    6    5      0.77      0.00
  -11    6    4     -1.72      0.00
  -11    6    3      0.02      0.00
  -11    6    2     -0.41      0.00
  -11    6    1      1.87      0.00
   11    6    0      1.22      0.00
   11    6    1      1.34      0.00
   11    6    2     -0.17      0.00
   11    6    3     -0.59      0.00
   11    6    4     -1.06      0.00
   11    6    5     -0.34      0.00
  -11    7    9      1.48      0.00
  -11    7    8      0.09      0.00
  -11    7    7      1.29      0.00
  -11    7    6     -1.29      0.00
  -11    7    5     -0.85      0.00
  -11    7    4     -1.01      0.00
  -11    7    3      0.00      0.00
  -11    7    2      0.77      0.00
  -11    7    1     -0.73      0.00
   11    7    0     -1.45      0.00
   11    7    1     -1.15      0.00
   11    7    2      2.46      0.00
   11    7    3     -0.75      0.00
   11    7    4      2.52      0.00
  -11    8    8     -0.43      0.00
  -11    8    7      0.53      0.00
  -11    8    6      0.18      0.00
  -11    8    5     -1.78      0.00
  -11    8    4      0.69      0.00
  -11    8    3     -1.73      0.00
  -11    8    2     -0.92      0.00
  -11    8    1     -1.23      0.00
   11    8    0     -0.05      0.00
   11    8    1     -2.22      0.00
   11    8    2     -0.71      0.00
   11    8    3     -0.13      0.00
   11    8    4      1.16      0.00
  -11    9    8     -0.08      0.00
  -11    9    7     -0.69      0.00
  -11    9    6      0.59      0.00
  -11    9    5     -1.31      0.00
  -11    9    4      1.60      0.00
  -11    9    3      1.32      0.00
  -11    9    2      1.54      0.00
  -11    9    1      2.35      0.00
   11    9    0      0.28      0.00
   11    9    1      1.25      0.00
   11    9    2     -1.76      0.00
   11    9    3      2.19      0.00
  -11   10    7     -2.50      0.00
  -11   10    6     -3.08      0.00
  -11   10    5      1.92      0.00
  -11   10    4      2.31      0.00
  -11   10    3      2.45      0.00
  -11   10    2      0.13      0.00
  -11   10    1      0.34      0.00
   11   10    0     -0.39      0.00
   11   10    1      0.90      0.00
   11   10    2     -1.46      0.00
   11   10    3     -0.73      0.00
  -11   11    6      0.32      0.00
  -11   11    5      2.27      0.00
  -11   11    4     -2.12      0.00
  -11   11    3     -0.70      0.00
  -11   11    2      1.06      0.00
  -11   11    1      1.08      0.00
   11   11    0     -0.84      0.00
   11   11    1     -1.00      0.00
   11   11    2      1.13      0.00
  -11   12    5     -1.79      0.00
  -11   12    4     -1.13      0.00
  -11   12    3      0.05      0.00
  -11   12    2      0.69      0.00
  -11   12    1     -1.02      0.00
   11   12    0     -2.10      0.00
   11   12    1     -3.31      0.00
  -11   13    4      0.33      0.00
  -11   13    3     -1.81      0.00
  -11   13    2     -2.48      0.00
  -11   13    1     -1.65      0.00
  -12    0    8      1.83      0.00
  -12    0    7     -2.65      0.00
  -12    0    6     -2.76      0.00
  -12    0    5     -0.48      0.00
  -12    0    4      3.00      0.00
  -12    0    3     -1.68      0.00
  -12    0    2     -0.35      0.00
  -12    0    1      0.27      0.00
   12    0    0     -0.61      0.00
   12    0    1     -1.00      0.00
   12    0    2     -0.48      0.00
   12    0    3     -0.34      0.00
  -12    1    8     -3.54      0.00
  -12    1    7      0.94      0.00
  -12    1    6     -0.21      0.00
  -12    1    5     -0.75      0.00
  -12    1    4     -0.55      0.00
  -12    1    3     -0.46      0.00
  -12    1    2     -1.74      0.00
  -12    1    1      1.70      0.00
   12    1    0     -2.25      0.00
   12    1    1     -0.61      0.00
   12    1    2      0.65      0.00
   12    1    3      1.84      0.00
  -12    2    8     -2.16      0.00
  -12    2    7      0.53      0.00
  -12    2    6      1.15      0.00
  -12    2    5      0.21      0.00
  -12    2    4     -2.49      0.00
  -12    2    3      1.68      0.00
  -12    2    2      1.47      0.00
  -12    2    1      1.07      0.00
   12    2    0      1.70      0.00
   12    2    1      3.44      0.00
   12    2    2      2.44      0.00
   12    2    3      2.06      0.00
  -12    3    8      0.56      0.00
  -12    3    7     -1.11      0.00
  -12    3    6      1.44      0.00
  -12    3    5      0.33      0.00
  -12    3    4      0.72      0.00
  -12    3    3     -0.18      0.00
  -12    3    2      1.06      0.00
  -12    3    1     -1.52      0.00
   12    3    0      1.04      0.00
   12    3    1      0.00      0.00
   12    3    2     -0.82      0.00
   12    3    3     -2.09      0.00
  -12    4    8      1.53      0.00
  -12    4    7      0.58      0.00
  -12    4    6     -0.16      0.00
  -12    4    5     -0.99      0.00
  -12    4    4      0.85      0.00
  -12    4    3     -0.05      0.00
  -12    4    2     -0.17      0.00
  -12    4    1     -0.69      0.00
   12    4    0     -0.12      0.00
   12    4    1     -2.11      0.00
   12    4    2     -0.54      0.00
   12    4    3     -2.86      0.00
  -12    5    8      0.67      0.00
  -12    5    7      1.03      0.00
  -12    5    6     -0.84      0.00
  -12    5    5      0.84      0.00
  -12    5    4     -0.99      0.00
  -12    5    3      0.89      0.00
  -12    5    2     -1.14      0.00
  -12    5    1      0.50      0.00
   12    5    0     -0.56      0.00
   12    5    1     -0.30      0.00
   12    5    2      0.74      0.00
   12    5    3      2.62      0.00
  -12    6    7     -0.04      0.00
  -12    6    6     -0.32      0.00
  -12    6    5      0.37      0.00
  -12    6    4      0.01      0.00
  -12    6    3      0.50      0.00
  -12    6    2      0.78      0.00
  -12    6    1      1.54      0.00
   12    6    0      0.74      0.00
   12    6    1      2.93      0.00
   12    6    2     -0.94      0.00
  -12    7    7      0.16      0.00
  -12    7    6     -0.08      0.00
  -12    7    5     -1.73      0.00
  -12    7    4      1.13      0.00
  -12    7    3     -1.04      0.00
  -12    7    2      0.10      0.00
  -12    7    1     -0.92      0.00
   12    7    0      0.64      0.00
   12    7    1      2.05      0.00
   12    7    2      3.08      0.00
  -12    8    6      0.27      0.00
  -12    8    5     -0.11      0.00
  -12    8    4      0.79      0.00
  -12    8    3      0.41      0.00
  -12    8    2      0.31      0.00
  -12    8    1     -0.21      0.00
   12    8    0     -0.11      0.00
   12    8    1     -2.92      0.00
  -12    9    5      1.18      0.00
  -12    9    4      1.26      0.00
  -12    9    3      2.43      0.00
  -12    9    2      0.72      0.00
  -12    9    1      1.28      0.00
   12    9    0     -0.46      0.00
  -12   10    3     -0.60      0.00
  -12   10    2     -0.20      0.00
  -13    0    5     -1.24      0.00
  -13    0    4      0.30      0.00
  -13    0    3     -1.80      0.00
  -13    0    2     -2.98      0.00
  -13    0    1      1.16      0.00
   13    0    0      1.37      0.00
  -13    1    5     -0.15      0.00
  -13    1    4     -2.82      0.00
  -13    1    3      1.45      0.00
  -13    1    2     -0.35      0.00
  -13    1    1      0.83      0.00
   13    1    0     -1.01      0.00
  -13    2    5      0.69      0.00
  -13    2    4     -0.53      0.00
  -13    2    3      1.45      0.00
  -13    2    2      2.72      0.00
  -13    2    1     -0.69      0.00
   13    2    0     -0.50      0.00
  -13    3    4      1.42      0.00
  -13    3    3     -1.71      0.00
  -13    3    2     -0.76      0.00
  -13    3    1     -1.60      0.00
  -13    4    4      0.89      0.00
  -13    4    3      0.96      0.00
  -13    4    2     -0.03      0.00
  -13    4    1      1.25      0.00
    1    0    0     65.02      0.00
    1    1    0     84.66      0.00
    2    1    0     38.74      0.00
    0    2    0    -77.91      0.00
    1    2    0    -29.07      0.00
   13    3    0      0.24      0.00
   13    4    0      1.80      0.00
   13    5    0      0.82      0.00
   13    6    0     -0.58      0.00
   13    7    0      0.02      0.00
   13    8    0      1.03      0.00
   12   10    0     -0.81      0.00
   12   11    0      0.39      0.00
   12   12    0     -1.00      0.00
   11   13    0      1.02      0.00
   11   14    0     -0.16      0.00
   11   15    0      0.40      0.00
   10   16    0     -1.46      0.00
   10   17    0      0.60      0.00
    9   18    0     -1.42      0.00
    8   19    0      0.60      0.00
    9   19    0     -0.66      0.00
    8   20    0      1.22      0.00
    7   21    0      1.59      0.00
    6   22    0     -0.50      0.00
    4   23    0     -0.98      0.00
    5   23    0      0.07      0.00
    0   24    0      1.23      0.00
    1   24    0      0.48      0.00
    2   24    0      0.68      0.00
    3   24    0      0.48      0.00
    4   24    0     -0.93      0.00
   -1    0    1      6.86      0.00
    0    0    1      7.88      0.00
    1    0    1    -11.88      0.00
   13    0    1      1.35      0.00
   -1    1    1     10.39      0.00
    0    1    1     14.20      0.00
    1    1    1      7.02      0.00
   13    1    1     -1.31      0.00
    0    2    1     32.62      0.00
   13    2    1      0.28      0.00
   13    3    1      1.81      0.00
   13    4    1      0.49      0.00
  -13    5    1      0.57      0.00
   13    5    1     -1.23      0.00
  -13    6    1      0.84      0.00
   13    6    1      0.07      0.00
  -13    7    1     -0.82      0.00
   13    7    1      2.47      0.00
  -13    8    1     -0.41      0.00
  -13    9    1      1.29      0.00
   12    9    1     -1.04      0.00
  -12   10    1      0.53      0.00
   12   10    1      0.70      0.00
  -12   11    1     -0.70      0.00
   12   11    1      0.66      0.00
  -12   12    1     -2.38      0.00
   11   13    1      0.14      0.00
  -11   14    1     -0.47      0.00
   11   14    1      0.23      0.00
  -11   15    1     -1.88      0.00
   10   15    1      1.73      0.00
  -10   16    1     -3.02      0.00
   10   16    1     -0.17      0.00
  -10   17    1      0.98      0.00
    9   17    1     -0.72      0.00
   10   17    1     -0.94      0.00
   -9   18    1      0.73      0.00
    9   18    1      1.11      0.00
   -9   19    1     -0.86      0.00
   -8   19    1     -1.43      0.00
    8   19    1     -1.06      0.00
   -8   20    1     -1.10      0.00
    7   20    1     -0.24      0.00
    8   20    1      0.73      0.00
   -7   21    1     -2.88      0.00
    6   21    1      0.53      0.00
    7   21    1     -0.87      0.00
   -6   22    1     -1.15      0.00
    5   22    1      0.41      0.00
    6   22    1      0.78      0.00
   -5   23    1      0.05      0.00
   -4   23    1      0.57      0.00
    4   23    1      0.61      0.00
    5   23    1     -0.08      0.00
   -4   24    1     -1.54      0.00
   -3   24    1     -0.25      0.00
   -2   24    1     -0.19      0.00
   -1   24    1     -0.10      0.00
    0   24    1      1.01      0.00
    1   24    1      0.88      0.00
    2   24    1      0.29      0.00
    3   24    1     -0.36      0.00
    4   24    1     -0.18      0.00
  -14    0    2     -1.53      0.00
   13    0    2     -0.78      0.00
  -14    1    2      1.82      0.00
   13    1    2     -0.78      0.00
   13    2    2      1.41      0.00
   13    3    2      1.42      0.00
   13    4    2     -0.01      0.00
  -13    5    2     -0.17      0.00
   -1    5    2     -2.68      0.00
   13    5    2      0.30      0.00
  -13    6    2      0.20      0.00
   13    6    2     -1.68      0.00
  -13    7    2      0.11      0.00
  -13    8    2      0.22      0.00
   12    8    2      2.02      0.00
  -13    9    2     -0.09      0.00
   12    9    2     -1.06      0.00
   12   10    2     -2.11      0.00
  -12   11    2      0.67      0.00
   12   11    2     -0.29      0.00
  -12   12    2     -1.89      0.00
   11   12    2     -0.67      0.00
  -12   13    2     -0.95      0.00
   11   13    2     -0.83      0.00
  -11   14    2      0.02      0.00
   11   14    2     -1.05      0.00
  -11   15    2      0.05      0.00
   10   15    2      0.79      0.00
  -10   16    2      0.01      0.00
   10   16    2      1.30      0.00
  -10   17    2      0.33      0.00
    9   17    2      0.99      0.00
   -9   18    2      0.24      0.00
    9   18    2     -1.59      0.00
   -9   19    2     -1.82      0.00
    8   19    2     -0.01      0.00
   -8   20    2     -1.54      0.00
    7   20    2      1.06      0.00
   -7   21    2     -0.72      0.00
    6   21    2     -0.72      0.00
    7   21    2     -0.09      0.00
   -6   22    2      0.47      0.00
    5   22    2      0.95      0.00
    6   22    2     -0.59      0.00
   -5   23    2     -0.11      0.00
   -4   23    2      0.24      0.00
    3   23    2     -0.19      0.00
    4   23    2     -0.73      0.00
    5   23    2     -0.30      0.00
   -4   24    2     -0.87      0.00
   -3   24    2     -0.16      0.00
   -2   24    2      0.55      0.00
   -1   24    2      1.06      0.00
    0   24    2      1.03      0.00
    1   24    2      0.62      0.00
    2   24    2      0.16      0.00
    3   24    2     -0.02      0.00
  -14    0    3      0.47      0.00
   13    0    3     -1.46      0.00
  -14    1    3      0.98      0.00
   13    1    3     -0.09      0.00
  -14    2    3     -0.76      0.00
   13    2    3      1.62      0.00
   13    3    3      1.12      0.00
  -13    5    3      1.32      0.00
    0    5    3     -3.79      0.00
  -13    6    3     -0.59      0.00
   12    6    3      2.37      0.00
  -13    7    3     -0.80      0.00
   12    7    3      0.37      0.00
  -13    8    3      1.13      0.00
   12    8    3     -1.13      0.00
  -13    9    3      0.34      0.00
   12    9    3      0.95      0.00
  -12   11    3     -0.66      0.00
   11   11    3      0.69      0.00
  -12   12    3     -0.48      0.00
   11   12    3     -0.46      0.00
  -12   13    3     -1.31      0.00
   11   13    3     -2.29      0.00
  -11   14    3      0.18      0.00
   10   14    3     -0.39      0.00
  -11   15    3      1.34      0.00
   10   15    3      0.39      0.00
  -10   16    3      0.86      0.00
    9   16    3      0.49      0.00
  -10   17    3      0.26      0.00
    9   17    3      1.69      0.00
   -9   18    3     -0.67      0.00
    8   18    3     -0.52      0.00
   -9   19    3      0.90      0.00
   -8   19    3     -0.37      0.00
    7   19    3      0.29      0.00
    8   19    3      0.21      0.00
   -8   20    3      2.38      0.00
    7   20    3      0.23      0.00
   -7   21    3      2.23      0.00
    6   21    3     -0.23      0.00
   -6   22    3      1.89      0.00
   -5   22    3      0.86      0.00
    4   22    3     -0.29      0.00
    5   22    3      0.84      0.00
   -5   23    3      0.89      0.00
   -4   23    3      1.13      0.00
   -3   23    3      0.71      0.00
    2   23    3      0.52      0.00
    3   23    3      0.44      0.00
    4   23    3     -1.66      0.00
   -3   24    3      0.28      0.00
   -2   24    3     -0.42      0.00
   -1   24    3      0.87      0.00
    0   24    3      2.59      0.00
    1   24    3      0.03      0.00
    2   24    3     -0.34      0.00
    3   24    3      1.25      0.00
  -14    0    4     -1.87      0.00
   12    0    4      1.83      0.00
  -14    1    4     -0.99      0.00
   12    1    4     -0.09      0.00
   12    2    4     -0.27      0.00
   12    3    4      0.53      0.00
   12    4    4     -0.66      0.00
  -13    5    4     -0.19      0.00
   12    5    4      0.25      0.00
  -13    6    4      0.52      0.00
   12    6    4     -0.20      0.00
  -13    7    4      0.22      0.00
   12    7    4      0.14      0.00
  -13    8    4      0.17      0.00
   12    8    4      0.38      0.00
  -13    9    4      0.47      0.00
   11    9    4      1.84      0.00
  -12   10    4     -0.07      0.00
   11   10    4     -0.98      0.00
  -12   11    4     -1.59      0.00
   11   11    4     -0.61      0.00
  -12   12    4      0.36      0.00
   11   12    4      0.29      0.00
   10   13    4      0.19      0.00
  -11   14    4     -0.53      0.00
   10   14    4     -0.51      0.00
  -11   15    4      0.22      0.00
    9   15    4      0.12      0.00
  -10   16    4     -0.09      0.00
    9   16    4     -0.21      0.00
  -10   17    4      1.48      0.00
    8   17    4      2.92      0.00
    9   17    4      1.57      0.00
   -9   18    4      0.19      0.00
    8   18    4      0.20      0.00
   -9   19    4      0.13      0.00
   -8   19    4     -1.55      0.00
    7   19    4     -0.35      0.00
   -8   20    4      1.73      0.00
   -7   20    4     -0.39      0.00
    6   20    4      1.52      0.00
    7   20    4      0.12      0.00
   -7   21    4      2.94      0.00
   -6   21    4      0.55      0.00
    5   21    4     -1.29      0.00
    6   21    4      1.43      0.00
   -6   22    4      1.71      0.00
   -5   22    4      0.71      0.00
    4   22    4      0.84      0.00
    5   22    4     -1.44      0.00
   -5   23    4      0.54      0.00
   -4   23    4      1.32      0.00
   -3   23    4      1.00      0.00
   -2   23    4      0.73      0.00
   -1   23    4      1.67      0.00
    0   23    4     -0.02      0.00
    1   23    4     -1.26      0.00
    2   23    4     -0.51      0.00
    3   23    4     -0.08      0.00
   -3   24    4      0.46      0.00
   -2   24    4      0.36      0.00
   -1   24    4      0.22      0.00
    0   24    4      0.99      0.00
    1   24    4     -0.02      0.00
    2   24    4     -0.21      0.00
   12    0    5      0.00      0.00
   12    1    5      2.69      0.00
   12    2    5      0.61      0.00
  -13    3    5     -0.80      0.00
   12    3    5     -0.91      0.00
  -13    4    5      0.54      0.00
   12    4    5     -0.11      0.00
  -13    5    5      1.34      0.00
   12    5    5      0.91      0.00
  -13    6    5     -1.11      0.00
  -13    7    5     -0.65      0.00
   11    7    5      2.11      0.00
  -13    8    5      1.20      0.00
   11    8    5     -0.34      0.00
   11    9    5     -0.17      0.00
  -12   10    5      1.57      0.00
   11   10    5      0.53      0.00
  -12   11    5     -0.66      0.00
   10   11    5      1.77      0.00
  -12   12    5     -1.36      0.00
   10   12    5     -0.70      0.00
  -11   13    5     -1.91      0.00
   10   13    5     -2.50      0.00
  -11   14    5     -0.23      0.00
    9   14    5      0.42      0.00
  -11   15    5      0.24      0.00
  -10   15    5     -1.50      0.00
    9   15    5      0.83      0.00
  -10   16    5      0.08      0.00
    8   16    5     -0.68      0.00
    9   16    5      0.42      0.00
  -10   17    5      1.32      0.00
   -9   17    5      0.97      0.00
    8   17    5     -0.28      0.00
   -9   18    5      0.87      0.00
    7   18    5      0.88      0.00
   -8   19    5     -0.18      0.00
    6   19    5      1.39      0.00
    7   19    5      1.73      0.00
   -8   20    5      0.11      0.00
   -7   20    5     -0.90      0.00
    5   20    5     -0.22      0.00
    6   20    5     -0.65      0.00
   -7   21    5      0.46      0.00
   -6   21    5      0.28      0.00
    4   21    5     -1.26      0.00
    5   21    5     -0.72      0.00
   -6   22    5     -0.23      0.00
   -5   22    5      1.31      0.00
   -4   22    5      0.74      0.00
    2   22    5      0.95      0.00
    3   22    5      0.80      0.00
    4   22    5      1.24      0.00
   -4   23    5      1.57      0.00
   -3   23    5      0.76      0.00
   -2   23    5      0.40      0.00
   -1   23    5      0.15      0.00
    0   23    5     -1.38      0.00
    1   23    5     -0.52      0.00
    2   23    5      0.30      0.00
    3   23    5     -0.30      0.00
   -1   24    5      0.90      0.00
  -13    0    6     -0.06      0.00
  -13    1    6      1.46      0.00
  -13    2    6      0.31      0.00
  -13    3    6      0.22      0.00
   11    3    6      2.10      0.00
  -13    4    6     -0.23      0.00
   11    4    6     -1.57      0.00
  -13    5    6     -0.15      0.00
   11    5    6     -2.02      0.00
  -13    6    6     -0.18      0.00
   11    6    6      1.71      0.00
  -13    7    6      0.21      0.00
   11    7    6      1.13      0.00
  -13    8    6     -0.41      0.00
   11    8    6     -2.01      0.00
  -12    9    6     -1.20      0.00
  -12   10    6     -0.62      0.00
   10   10    6      0.36      0.00
  -12   11    6      1.36      0.00
   10   11    6     -2.63      0.00
  -11   12    6      1.67      0.00
   10   12    6      1.09      0.00
  -11   13    6     -1.63      0.00
    9   13    6     -0.43      0.00
  -11   14    6     -0.48      0.00
    9   14    6      0.70      0.00
  -10   15    6     -0.14      0.00
    8   15    6     -0.81      0.00
  -10   16    6      1.49      0.00
    8   16    6     -0.51      0.00
   -9   17    6      2.42      0.00
    7   17    6      2.30      0.00
   -9   18    6     -0.50      0.00
   -8   18    6      1.57      0.00
    6   18    6     -1.16      0.00
    7   18    6     -0.96      0.00
   -8   19    6      0.20      0.00
   -7   19    6      1.16      0.00
    6   19    6      1.91      0.00
   -7   20    6      0.15      0.00
   -6   20    6      0.45      0.00
    4   20    6     -0.05      0.00
    5   20    6     -0.75      0.00
   -6   21    6      0.37      0.00
   -5   21    6      0.34      0.00
    3   21    6     -0.39      0.00
    4   21    6     -0.17      0.00
   -5   22    6      0.14      0.00
   -4   22    6     -0.06      0.00
   -3   22    6      0.39      0.00
   -2   22    6     -0.34      0.00
   -1   22    6     -0.38      0.00
    0   22    6     -0.83      0.00
    1   22    6     -0.31      0.00
    2   22    6      0.19      0.00
    3   22    6     -0.24      0.00
   -3   23    6      0.36      0.00
   -2   23    6      0.91      0.00
   -1   23    6      0.78      0.00
    0   23    6      0.33      0.00
    1   23    6     -0.35      0.00
  -13    0    7     -0.79      0.00
   11    0    7     -5.06      0.00
  -13    1    7      1.70      0.00
   11    1    7      2.29      0.00
  -13    2    7     -0.15      0.00
   11    2    7      3.93      0.00
  -13    3    7      0.26      0.00
   11    3    7     -0.84      0.00
  -13    4    7      0.80      0.00
   11    4    7     -1.60      0.00
  -13    5    7      0.42      0.00
   11    5    7     -0.76      0.00
  -13    6    7     -0.53      0.00
   10    7    7     -0.95      0.00
  -12    8    7     -0.39      0.00
   10    8    7      0.13      0.00
  -12    9    7     -1.43      0.00
   10    9    7      0.47      0.00
  -12   10    7     -1.02      0.00
   10   10    7      0.04      0.00
  -11   11    7     -0.88      0.00
    9   11    7      1.71      0.00
  -11   12    7      0.64      0.00
    9   12    7      1.20      0.00
  -11   13    7     -0.39      0.00
    9   13    7     -2.37      0.00
  -10   14    7      1.24      0.00
    8   14    7      1.56      0.00
  -10   15    7      1.09      0.00
    8   15    7      1.67      0.00
   -9   16    7      0.06      0.00
    7   16    7     -1.83      0.00
   -9   17    7      0.53      0.00
   -8   17    7      0.29      0.00
    6   17    7      2.46      0.00
    7   17    7      0.74      0.00
   -8   18    7      1.20      0.00
    6   18    7     -0.39      0.00
   -7   19    7      0.65      0.00
    5   19    7      0.52      0.00
   -7   20    7      0.12      0.00
   -6   20    7     -0.09      0.00
   -5   20    7     -1.52      0.00
    3   20    7      0.02      0.00
    4   20    7     -0.33      0.00
   -5   21    7      0.61      0.00
   -4   21    7     -0.05      0.00
   -3   21    7     -0.43      0.00
    1   21    7     -0.43      0.00
    2   21    7     -0.05      0.00
    3   21    7      0.00      0.00
   -4   22    7     -0.35      0.00
   -3   22    7     -1.10      0.00
   -2   22    7     -2.69      0.00
   -1   22    7     -0.87      0.00
    0   22    7      0.43      0.00
    1   22    7     -0.53      0.00
    2   22    7     -0.98      0.00
  -13    0    8     -2.16      0.00
   10    0    8     -0.40      0.00
  -13    1    8     -2.62      0.00
   10    1    8      0.10      0.00
  -13    2    8      0.44      0.00
   10    2    8     -0.26      0.00
  -13    3    8      2.04      0.00
   10    3    8      0.94      0.00
  -13    4    8      0.58      0.00
   10    4    8      1.04      0.00
   10    5    8     -1.51      0.00
  -12    6    8     -0.45      0.00
   10    6    8     -0.23      0.00
  -12    7    8     -0.16      0.00
   10    7    8     -1.54      0.00
  -12    8    8     -0.45      0.00
    9    8    8      1.47      0.00
  -12    9    8     -0.15      0.00
    9    9    8      0.07      0.00
  -11   10    8     -0.25      0.00
    9   10    8     -0.94      0.00
  -11   11    8     -0.77      0.00
    9   11    8     -0.57      0.00
  -11   12    8     -0.95      0.00
    8   12    8      1.73      0.00
  -10   13    8     -1.00      0.00
    8   13    8     -1.17      0.00
  -10   14    8     -0.43      0.00
    7   14    8      1.56      0.00
  -10   15    8     -0.30      0.00
   -9   15    8     -1.49      0.00
    7   15    8      1.13      0.00
   -9   16    8     -0.48      0.00
    6   16    8     -0.94      0.00
   -8   17    8      0.11      0.00
    5   17    8      2.01      0.00
    6   17    8      1.15      0.00
   -8   18    8      1.43      0.00
   -7   18    8      0.76      0.00
    4   18    8      0.64      0.00
    5   18    8      0.55      0.00
   -7   19    8      1.22      0.00
   -6   19    8      0.53      0.00
    3   19    8     -1.29      0.00
    4   19    8     -0.90      0.00
   -6   20    8      0.18      0.00
   -5   20    8     -0.99      0.00
   -4   20    8     -0.06      0.00
    1   20    8     -1.53      0.00
    2   20    8      0.35      0.00
    3   20    8      0.44      0.00
   -4   21    8      0.44      0.00
   -3   21    8      0.79      0.00
   -2   21    8      0.53      0.00
   -1   21    8      0.26      0.00
    0   21    8      0.41      0.00
    1   21    8     -1.19      0.00
    2   21    8     -1.25      0.00
  -12    0    9      0.94      0.00
   10    0    9     -1.53      0.00
  -12    1    9      0.84      0.00
   10    1    9      1.27      0.00
  -12    2    9      0.04      0.00
   10    2    9      1.17      0.00
  -12    3    9     -1.45      0.00
    9    3    9      1.18      0.00
  -12    4    9     -0.77      0.00
    9    4    9      2.57      0.00
  -12    5    9      0.77      0.00
    9    5    9     -1.81      0.00
  -12    6    9      0.85      0.00
    9    6    9     -3.07      0.00
  -12    7    9      0.15      0.00
    9    7    9     -1.91      0.00
  -12    8    9     -0.65      0.00
  -11    8    9      0.27      0.00
    9    8    9      1.03      0.00
  -11    9    9     -0.94      0.00
    8    9    9     -0.14      0.00
  -11   10    9     -1.51      0.00
    8   10    9     -0.85      0.00
  -11   11    9      0.37      0.00
    8   11    9     -1.47      0.00
  -10   12    9      1.18      0.00
    7   12    9      2.61      0.00
  -10   13    9     -1.20      0.00
    7   13    9     -0.21      0.00
   -9   14    9     -0.42      0.00
    6   14    9     -1.56      0.00
    7   14    9     -0.01      0.00
   -9   15    9      0.50      0.00
   -8   15    9     -0.56      0.00
    6   15    9     -0.44      0.00
   -8   16    9      0.86      0.00
    5   16    9      1.98      0.00
    6   16    9      1.11      0.00
   -8   17    9      0.89      0.00
   -7   17    9      0.19      0.00
    4   17    9     -1.52      0.00
    5   17    9      0.45      0.00
   -7   18    9      1.15      0.00
   -6   18    9     -0.02      0.00
    3   18    9      0.43      0.00
    4   18    9     -0.51      0.00
   -6   19    9      0.80      0.00
   -5   19    9      1.21      0.00
   -4   19    9      1.72      0.00
   -3   19    9     -0.01      0.00
    1   19    9     -0.04      0.00
    2   19    9      1.76      0.00
    3   19    9      0.90      0.00
   -4   20    9      0.99      0.00
   -3   20    9      0.66      0.00
   -2   20    9     -0.85      0.00
   -1   20    9     -0.04      0.00
    0   20    9      0.04      0.00
    1   20    9     -1.66      0.00
    2   20    9     -0.71      0.00
  -12    0   10      0.29      0.00
    9    0   10     -3.50      0.00
  -12    1   10     -0.63      0.00
    9    1   10      3.90      0.00
  -12    2   10     -0.07      0.00
    9    2   10      2.52      0.00
  -12    3   10      0.38      0.00
    9    3   10     -0.38      0.00
  -12    4   10      0.22      0.00
    9    4   10     -0.97      0.00
  -12    5   10     -0.38      0.00
  -11    5   10      0.29      0.00
    8    5   10      1.19      0.00
  -11    6   10     -0.59      0.00
    8    6   10     -1.76      0.00
  -11    7   10      0.50      0.00
    8    7   10     -1.14      0.00
  -11    8   10      0.51      0.00
    8    8   10      0.71      0.00
  -11    9   10      0.46      0.00
    7    9   10     -1.50      0.00
    8    9   10     -1.61      0.00
  -10   10   10     -0.16      0.00
    7   10   10      2.22      0.00
  -10   11   10     -1.02      0.00
    7   11   10      1.10      0.00
  -10   12   10      0.61      0.00
   -9   12   10     -0.39      0.00
    6   12   10     -3.86      0.00
    7   12   10     -1.14      0.00
   -9   13   10     -0.46      0.00
    6   13   10      1.08      0.00
   -9   14   10      0.20      0.00
   -8   14   10     -1.28      0.00
    5   14   10     -0.87      0.00
    6   14   10      2.26      0.00
   -8   15   10      0.30      0.00
   -7   15   10     -0.36      0.00
    4   15   10     -0.99      0.00
    5   15   10     -3.66      0.00
   -7   16   10      0.18      0.00
    3   16   10      1.60      0.00
    4   16   10      4.35      0.00
   -7   17   10      0.68      0.00
   -6   17   10      1.15      0.00
   -5   17   10      0.31      0.00
    2   17   10      0.01      0.00
    3   17   10     -2.74      0.00
   -6   18   10      0.87      0.00
   -5   18   10      1.94      0.00
   -4   18   10      0.49      0.00
   -3   18   10     -0.09      0.00
   -2   18   10      0.65      0.00
   -1   18   10     -0.51      0.00
    0   18   10     -1.85      0.00
    1   18   10     -1.00      0.00
    2   18   10      0.61      0.00
   -4   19   10      1.68      0.00
   -3   19   10      1.00      0.00
   -2   19   10      1.01      0.00
   -1   19   10      0.81      0.00
    0   19   10      0.57      0.00
    1   19   10      0.13      0.00
  -11    0   11      0.23      0.00
    8    0   11     -1.35      0.00
  -11    1   11     -0.72      0.00
    8    1   11      1.14      0.00
  -11    2   11      0.48      0.00
    8    2   11      0.22      0.00
  -11    3   11     -0.93      0.00
    8    3   11      2.46      0.00
  -11    4   11     -1.33      0.00
    8    4   11     -0.14      0.00
  -11    5   11     -0.47      0.00
    7    5   11     -0.05      0.00
    8    5   11     -1.70      0.00
  -11    6   11     -0.03      0.00
    7    6   11     -0.72      0.00
  -11    7   11      1.02      0.00
  -10    7   11      0.24      0.00
    7    7   11     -0.27      0.00
  -10    8   11      0.62      0.00
    7    8   11      0.88      0.00
  -10    9   11     -0.63      0.00
    6    9   11     -1.10      0.00
    7    9   11      0.24      0.00
  -10   10   11     -0.40      0.00
   -9   10   11     -0.31      0.00
    6   10   11     -2.52      0.00
   -9   11   11     -0.59      0.00
    5   11   11      5.05      0.00
    6   11   11      2.56      0.00
   -9   12   11     -0.20      0.00
   -8   12   11     -1.02      0.00
    5   12   11     -0.95      0.00
   -8   13   11      0.95      0.00
    4   13   11     -1.22      0.00
    5   13   11     -0.54      0.00
   -8   14   11     -0.36      0.00
   -7   14   11      0.09      0.00
    4   14   11      0.07      0.00
   -7   15   11     -0.01      0.00
   -6   15   11     -0.44      0.00
    2   15   11     -1.95      0.00
    3   15   11     -0.99      0.00
    4   15   11      0.54      0.00
   -6   16   11     -0.07      0.00
   -5   16   11     -0.71      0.00
   -4   16   11      0.60      0.00
    1   16   11      0.65      0.00
    2   16   11      0.38      0.00
    3   16   11     -0.92      0.00
   -5   17   11     -0.49      0.00
   -4   17   11     -0.60      0.00
   -3   17   11      1.03      0.00
   -2   17   11     -0.61      0.00
   -1   17   11     -0.81      0.00
    0   17   11      0.32      0.00
    1   17   11     -0.26      0.00
    2   17   11      0.47      0.00
   -3   18   11      0.65      0.00
   -2   18   11      1.16      0.00
   -1   18   11     -0.31      0.00
    0   18   11      0.54      0.00
  -11    0   12      1.62      0.00
  -10    0   12      1.41      0.00
    7    0   12      3.10      0.00
  -11    1   12     -0.28      0.00
  -10    1   12      1.22      0.00
    7    1   12     -2.11      0.00
  -11    2   12     -0.18      0.00
  -10    2   12     -0.35      0.00
    7    2   12     -3.08      0.00
  -10    3   12      0.00      0.00
    6    3   12      2.09      0.00
    7    3   12      2.43      0.00
  -10    4   12      0.15      0.00
    6    4   12     -1.45      0.00
    7    4   12     -0.01      0.00
  -10    5   12     -0.30      0.00
    6    5   12      1.33      0.00
  -10    6   12     -0.37      0.00
    6    6   12      1.06      0.00
  -10    7   12     -1.09      0.00
   -9    7   12     -0.91      0.00
    6    7   12     -1.63      0.00
   -9    8   12     -0.33      0.00
    5    8   12      0.25      0.00
    6    8   12     -1.92      0.00
   -9    9   12     -0.34      0.00
    5    9   12      3.30      0.00
   -9   10   12     -0.82      0.00
   -8   10   12     -1.95      0.00
    4   10   12     -1.18      0.00
    5   10   12      0.05      0.00
   -8   11   12      0.45      0.00
    4   11   12     -1.20      0.00
    5   11   12      0.06      0.00
   -8   12   12     -0.36      0.00
   -7   12   12     -0.79      0.00
    3   12   12      3.07      0.00
    4   12   12      0.51      0.00
   -7   13   12     -0.06      0.00
   -6   13   12     -0.19      0.00
    2   13   12     -2.31      0.00
    3   13   12     -0.02      0.00
   -6   14   12     -0.38      0.00
   -5   14   12      0.76      0.00
    1   14   12      1.64      0.00
    2   14   12     -0.26      0.00
    3   14   12     -0.93      0.00
   -6   15   12     -0.19      0.00
   -5   15   12     -0.91      0.00
   -4   15   12      0.92      0.00
   -3   15   12      1.43      0.00
   -2   15   12     -0.82      0.00
   -1   15   12     -0.30      0.00
    0   15   12     -0.68      0.00
    1   15   12      0.15      0.00
    2   15   12      0.44      0.00
   -4   16   12     -0.34      0.00
   -3   16   12      0.92      0.00
   -2   16   12      0.51      0.00
   -1   16   12      0.09      0.00
    0   16   12     -0.03      0.00
  -10    0   13     -1.85      0.00
   -9    0   13     -1.04      0.00
    5    0   13     -1.77      0.00
    6    0   13      0.42      0.00
  -10    1   13      0.38      0.00
   -9    1   13     -3.37      0.00
    5    1   13     -0.56      0.00
    6    1   13      0.01      0.00
  -10    2   13      1.44      0.00
   -9    2   13      1.51      0.00
    5    2   13      1.02      0.00
    6    2   13     -0.77      0.00
  -10    3   13     -0.13      0.00
   -9    3   13      0.90      0.00
    5    3   13      0.55      0.00
   -9    4   13     -0.85      0.00
    5    4   13     -1.39      0.00
   -9    5   13      0.81      0.00
    5    5   13     -1.58      0.00
   -9    6   13      0.96      0.00
   -8    6   13      1.74      0.00
    4    6   13      2.39      0.00
    5    6   13      0.25      0.00
   -9    7   13     -0.23      0.00
   -8    7   13      0.50      0.00
    4    7   13      0.62      0.00
    5    7   13      1.52      0.00
   -8    8   13      0.32      0.00
    4    8   13     -0.14      0.00
   -8    9   13      0.92      0.00
   -7    9   13      2.08      0.00
    3    9   13     -0.42      0.00
    4    9   13     -0.02      0.00
   -8   10   13     -1.25      0.00
   -7   10   13     -0.72      0.00
   -6   10   13     -0.46      0.00
    2   10   13      0.15      0.00
    3   10   13     -0.35      0.00
    4   10   13      0.10      0.00
   -7   11   13     -0.13      0.00
   -6   11   13     -0.46      0.00
    2   11   13      1.00      0.00
    3   11   13     -0.23      0.00
   -6   12   13      1.04      0.00
   -5   12   13      0.51      0.00
   -4   12   13     -0.80      0.00
    0   12   13      0.07      0.00
    1   12   13     -1.56      0.00
    2   12   13      0.06      0.00
   -5   13   13      1.05      0.00
   -4   13   13     -0.10      0.00
   -3   13   13     -0.79      0.00
   -2   13   13      0.62      0.00
   -1   13   13      1.24      0.00
    0   13   13      1.65      0.00
    1   13   13      0.15      0.00
   -4   14   13      0.86      0.00
   -3   14   13     -0.79      0.00
   -2   14   13     -0.68      0.00
   -1   14   13     -0.32      0.00
    0   14   13      0.38      0.00
   -8    0   14      0.66      0.00
    3    0   14     -1.31      0.00
    4    0   14     -1.41      0.00
   -8    1   14      1.40      0.00
    3    1   14      0.60      0.00
    4    1   14     -0.03      0.00
   -8    2   14     -1.09      0.00
    3    2   14      0.15      0.00
    4    2   14      0.22      0.00
   -8    3   14     -0.80      0.00
   -7    3   14     -1.57      0.00
    3    3   14     -0.40      0.00
    4    3   14     -0.71      0.00
   -8    4   14      0.22      0.00
   -7    4   14     -0.34      0.00
    3    4   14     -0.72      0.00
    4    4   14     -0.25      0.00
   -8    5   14     -0.69      0.00
   -7    5   14     -0.16      0.00
    3    5   14      1.36      0.00
    4    5   14      0.17      0.00
   -8    6   14      0.10      0.00
   -7    6   14     -0.60      0.00
    2    6   14     -1.28      0.00
    3    6   14      0.83      0.00
   -7    7   14     -0.06      0.00
   -6    7   14      0.34      0.00
    2    7   14     -0.32      0.00
    3    7   14      0.06      0.00
   -7    8   14     -0.53      0.00
   -6    8   14     -1.10      0.00
   -5    8   14      0.05      0.00
    1    8   14      0.38      0.00
    2    8   14      0.38      0.00
    3    8   14      0.00      0.00
   -6    9   14     -0.73      0.00
   -5    9   14     -1.09      0.00
   -4    9   14     -0.43      0.00
   -1    9   14     -0.48      0.00
    0    9   14     -0.67      0.00
    1    9   14     -0.41      0.00
    2    9   14      0.57      0.00
   -6   10   14      0.18      0.00
   -5   10   14      0.03      0.00
   -4   10   14      0.29      0.00
   -3   10   14      0.31      0.00
   -2   10   14     -0.16      0.00
   -1   10   14     -0.50      0.00
    0   10   14     -0.26      0.00
    1   10   14     -0.17      0.00
   -5   11   14     -0.24      0.00
   -4   11   14     -0.16      0.00
   -3   11   14      0.93      0.00
   -2   11   14      0.60      0.00
   -1   11   14     -0.16      0.00
    0   11   14     -0.85      0.00
    1   11   14     -0.23      0.00
   -3   12   14     -0.30      0.00
   -2   12   14      0.42      0.00
   -1   12   14      0.34      0.00
   -7    0   15      0.12      0.00
   -6    0   15      0.65      0.00
   -5    0   15      2.41      0.00
    0    0   15     -0.90      0.00
    1    0   15     -2.40      0.00
    2    0   15      0.31      0.00
   -7    1   15     -0.18      0.00
   -6    1   15     -0.77      0.00
   -5    1   15      0.28      0.00
    0    1   15      2.12      0.00
    1    1   15     -0.40      0.00
    2    1   15     -1.33      0.00
   -7    2   15      0.35      0.00
   -6    2   15     -0.23      0.00
   -5    2   15     -0.74      0.00
    0    2   15      0.33      0.00
    1    2   15      1.44      0.00
    2    2   15     -0.06      0.00
   -7    3   15      0.05      0.00
   -6    3   15     -0.05      0.00
   -5    3   15     -0.98      0.00
   -4    3   15     -0.62      0.00
   -1    3   15     -1.06      0.00
    0    3   15     -1.10      0.00
    1    3   15     -0.06      0.00
    2    3   15      0.74      0.00
   -6    4   15      1.01      0.00
   -5    4   15      0.34      0.00
   -4    4   15     -0.54      0.00
   -3    4   15      0.11      0.00
   -2    4   15      0.15      0.00
   -1    4   15      0.38      0.00
    0    4   15     -0.20      0.00
    1    4   15     -0.76      0.00
    2    4   15     -0.19      0.00
   -6    5   15      0.13      0.00
   -5    5   15      1.67      0.00
   -4    5   15      0.69      0.00
   -3    5   15      0.02      0.00
   -2    5   15      0.35      0.00
   -1    5   15      0.26      0.00
    0    5   15      1.31      0.00
    1    5   15      0.38      0.00
   -6    6   15     -0.65      0.00
   -5    6   15     -0.13      0.00
   -4    6   15      1.69      0.00
   -3    6   15      0.53      0.00
   -2    6   15      0.09      0.00
   -1    6   15     -0.87      0.00
    0    6   15     -0.46      0.00
    1    6   15      0.32      0.00
   -5    7   15     -1.25      0.00
   -4    7   15     -0.93      0.00
   -3    7   15      0.47      0.00
   -2    7   15      0.57      0.00
   -1    7   15      0.63      0.00
    0    7   15     -0.36      0.00
   -4    8   15     -0.55      0.00
   -3    8   15     -1.02      0.00
   -2    8   15     -0.58      0.00
   -1    8   15      0.05      0.00
    0    8   15      0.44      0.00
   -3    9   15      0.09      0.00
   -2    9   15     -0.42      0.00
   -3    0   16      0.01      0.00
   -2    0   16      0.40      0.00
   -3    1   16     -1.01      0.00
   -2    1   16     -0.10      0.00
   -3    2   16      0.22      0.00
   -2    2   16     -0.65      0.00
    0    0    0      0.00      0.00
# SQUEEZE RESULTS (Version =  30118)
# Note: Data are Listed for all Voids in the P1 Unit Cell
# i.e. Centre of Gravity, Solvent Accessible Volume,
# Recovered number of Electrons in the Void and
# Details about the Squeezed Material
loop_
  _platon_squeeze_void_nr
  _platon_squeeze_void_average_x
  _platon_squeeze_void_average_y
  _platon_squeeze_void_average_z
  _platon_squeeze_void_volume
  _platon_squeeze_void_count_electrons
  _platon_squeeze_void_content
   1  0.000  0.003  0.004       734       146 ' '
# Missing Reflections Below sin(th)/lambda = 0.25
loop_
  _platon_missing_refln_index_h
  _platon_missing_refln_index_k
  _platon_missing_refln_index_l
  _platon_missing_refln_theta
    1    0    0     1.924
    1    1    0     2.193
    2    1    0     3.991
    0    2    0     2.107
    1    2    0     2.854
   -1    0    1     2.319
    0    0    1     1.681
    1    0    1     2.772
   -1    1    1     2.547
    0    1    1     1.984
    1    1    1     2.966
    0    2    1     2.696
   -1    5    2     6.372
    0    5    3     7.312
_platon_squeeze_void_probe_radius                  1.20
_platon_squeeze_details
)
TITL 1 in P2(1)/m
CELL   10.7590   19.3300   12.3080     90.00    100.26     90.00
SPGR P21/m
# Solvent Accessible Volume =       734
# Electrons Found in S.A.V. =       144
# Note: Atoms in Void are Labelled as Cxxx and Qxxx for all Others
C101 0.075 0.752 0.484 !       2.58 eA-3
C102 0.129 0.753 0.547 !       2.38 eA-3
C103 0.029 0.748 0.406 !       2.04 eA-3
C104 0.162 0.752 0.469 !       1.43 eA-3
Q105 0.767 0.314 0.444 !       1.35 eA-3
Q106 0.126 0.754 0.921 !       1.33 eA-3
C107 0.871 0.253 0.344 !       1.32 eA-3
C108 0.797 0.215 0.438 !       1.28 eA-3
C109 0.045 0.749 0.297 !       1.22 eA-3
C110 0.238 0.751 0.250 !       1.09 eA-3
C111 0.123 0.845-0.009 !       1.04 eA-3
Q112 0.966 0.250 0.156 !       1.03 eA-3
Q113 0.879 0.288 0.003 !       1.01 eA-3
C114 0.169 0.720 0.392 !       0.96 eA-3
C115 0.949 0.286 0.451 !       0.95 eA-3
C116 0.703 0.253 0.094 !       0.94 eA-3
C117 0.136 0.627 0.019 !       0.91 eA-3
C118 0.949 0.359 0.029 !       0.88 eA-3
C119 0.060 0.611 0.072 !       0.85 eA-3
C120 0.229 0.750 0.672 !       0.85 eA-3
C121 0.291 0.744 0.188 !       0.82 eA-3
C122 0.128 0.702 0.324 !       0.81 eA-3
Q123 0.500 0.500 0.000 !       0.81 eA-3
C124 0.888 0.203 0.399 !       0.77 eA-3
Q125 0.606 0.255 0.391 !       0.77 eA-3
C126 0.786 0.251 0.110 !       0.77 eA-3
Q127 0.312 0.599 0.164 !       0.77 eA-3
Q128 0.767 0.155 0.060 !       0.77 eA-3
C129 0.346 0.857 0.136 !       0.76 eA-3
C130 0.767 0.235 0.149 !       0.75 eA-3
Q131 0.347 0.907 0.246 !       0.75 eA-3
C132 0.298 0.640 0.166 !       0.72 eA-3
Q133 0.722 0.304 0.351 !       0.72 eA-3
Q134 0.264 0.826 0.599 !       0.72 eA-3
Q135 0.063 0.744 0.954 !       0.72 eA-3
C136 0.190 0.757 0.344 !       0.72 eA-3
Q137 0.423 0.580 0.231 !       0.72 eA-3
Q138 0.813 0.334 0.352 !       0.70 eA-3
Q139 0.983 0.257 0.297 !       0.69 eA-3
C140 0.890 0.094-0.005 !       0.69 eA-3
C141 0.145 0.748 0.078 !       0.67 eA-3
C142 0.871 0.407 0.896 !       0.66 eA-3
C143 0.214 0.752 0.015 !       0.66 eA-3
C144 0.717 0.252 0.047 !       0.65 eA-3
Q145 0.751 0.125 0.018 !       0.64 eA-3
C146 0.746 0.252 0.500 !       0.63 eA-3
C147 0.169 0.641 0.094 !       0.63 eA-3
Q148 0.090 0.716 0.771 !       0.63 eA-3
Q149 0.861 0.247 0.172 !       0.63 eA-3
C150 0.238 0.701 0.244 !       0.61 eA-3
C151 0.799 0.195 0.034 !       0.61 eA-3
Q152 1.000 0.454 0.011 !       0.59 eA-3
Q153 0.474 0.754 0.125 !       0.59 eA-3
C154 0.767 0.225 0.249 !       0.59 eA-3
Q155 0.980 0.800 0.905 !       0.59 eA-3
Q156 0.990 0.537 0.097 !       0.58 eA-3
Q157 0.451 0.169 0.350 !       0.58 eA-3
Q158 0.396 0.660 0.189 !       0.57 eA-3
C159 0.047 0.667 0.025 !       0.57 eA-3
Q160 0.311 0.813 0.481 !       0.57 eA-3
C161 0.690 0.247 0.344 !       0.57 eA-3
C162 0.231 0.842 0.034 !       0.56 eA-3
Q163 0.502 0.221 0.330 !       0.56 eA-3
C164 0.298 0.828 0.176 !       0.56 eA-3
C165 0.268 0.631 0.077 !       0.55 eA-3
Q166 0.593 0.202 0.717 !       0.54 eA-3
Q167 0.255 0.598 0.220 !       0.54 eA-3
Q168 0.387 0.748 0.938 !       0.54 eA-3
Q169 0.517 0.256 0.110 !       0.54 eA-3
Q170 0.575 0.250 0.173 !       0.54 eA-3
Q171 0.436 0.441 0.030 !       0.54 eA-3
Q172 0.567 0.253 0.500 !       0.53 eA-3
Q173 0.028 0.751 0.203 !       0.53 eA-3
Q174 0.357 0.722 0.536 !       0.53 eA-3
Q175 0.328 0.876 0.049 !       0.53 eA-3
Q176 0.908 0.031 0.006 !       0.52 eA-3
Q177 0.310 0.534 0.262 !       0.52 eA-3
Q178 0.234 0.860 0.210 !       0.52 eA-3
Q179 0.916 0.969 0.014 !       0.52 eA-3
Q180 0.940 0.222 0.312 !       0.52 eA-3
Q181 0.640 0.248 0.015 !       0.52 eA-3
Q182 0.855 0.190 0.282 !       0.52 eA-3
C183 0.080 0.797 0.200 !       0.52 eA-3
Q184 0.704 0.301 0.179 !       0.51 eA-3
Q185 0.325 0.746 0.469 !       0.51 eA-3
Q186 0.515 0.469 0.102 !       0.51 eA-3
Q187 0.956 0.807 0.427 !       0.51 eA-3
Q188 0.045 0.940 0.941 !       0.51 eA-3
Q189 0.699 0.286 0.278 !       0.50 eA-3
Q190 0.493 0.250 0.952 !       0.50 eA-3
)
;
_shelx_fab_checksum              14655
loop_
_space_group_symop_operation_xyz
'x, y, z'
'-x, y+1/2, -z'
'-x, -y, -z'
'x, -y-1/2, z'
loop_
_atom_site_label
_atom_site_type_symbol
_atom_site_fract_x
_atom_site_fract_y
_atom_site_fract_z
_atom_site_U_iso_or_equiv
_atom_site_adp_type
_atom_site_occupancy
_atom_site_site_symmetry_order
_atom_site_calc_flag
_atom_site_refinement_flags_posn
_atom_site_refinement_flags_adp
_atom_site_refinement_flags_occupancy
_atom_site_disorder_assembly
_atom_site_disorder_group
Mg1 Mg 0.2523(3) 0.2500 0.2547(2) 0.0475(8) Uani 1 2 d S T P . .
Mg2 Mg 0.4044(3) 0.2500 0.5400(2) 0.0506(8) Uani 1 2 d S T P . .
S1 S 0.1541(6) 0.0640(3) 0.6031(5) 0.073(2) Uani 0.509(10) 1 d . . P A 1
C3 C 0.0452(18) 0.0449(9) 0.4028(16) 0.075(5) Uani 0.509(10) 1 d D . P A 1
C5 C 0.0079(19) 0.0473(9) 0.2758(17) 0.093(6) Uani 0.509(10) 1 d D U P A 1
H5A H -0.0454 0.0085 0.2508 0.139 Uiso 0.509(10) 1 calc R U P A 1
H5B H -0.0369 0.0895 0.2542 0.139 Uiso 0.509(10) 1 calc R U P A 1
H5C H 0.0826 0.0454 0.2434 0.139 Uiso 0.509(10) 1 calc R U P A 1
S1' S 0.0081(5) 0.0623(2) 0.3448(5) 0.0692(19) Uani 0.491(10) 1 d . . P A 2
C3' C 0.0960(17) 0.0656(10) 0.5556(15) 0.055(4) Uani 0.491(10) 1 d D . P A 2
C5' C 0.167(2) 0.0830(10) 0.6729(16) 0.104(8) Uani 0.491(10) 1 d D . P A 2
H5'A H 0.1314 0.0568 0.7262 0.156 Uiso 0.491(10) 1 calc R U P A 2
H5'B H 0.2546 0.0715 0.6786 0.156 Uiso 0.491(10) 1 calc R U P A 2
H5'C H 0.1587 0.1315 0.6868 0.156 Uiso 0.491(10) 1 calc R U P A 2
S2 S 0.6315(6) 0.0541(3) 0.1586(5) 0.111(3) Uani 0.495(9) 1 d . . P B 1
C8 C 0.3812(14) 0.0566(7) 0.0292(12) 0.074(5) Uani 0.495(9) 1 d D U P B 1
C10 C 0.249(2) 0.0750(16) -0.021(3) 0.156(14) Uani 0.495(9) 1 d D U P B 1
H10A H 0.2200 0.0451 -0.0821 0.234 Uiso 0.495(9) 1 calc R U P B 1
H10B H 0.1957 0.0695 0.0338 0.234 Uiso 0.495(9) 1 calc R U P B 1
H10C H 0.2459 0.1222 -0.0452 0.234 Uiso 0.495(9) 1 calc R U P B 1
S2' S 0.3078(7) 0.0641(3) 0.0010(5) 0.100(2) Uani 0.505(9) 1 d . . P B 2
C8' C 0.4391(14) -0.0495(7) -0.1171(11) 0.073(4) Uani 0.505(9) 1 d D U P B 2
C10' C 0.692(3) 0.042(2) 0.179(3) 0.27(3) Uani 0.505(9) 1 d D U P B 2
H10G H 0.6937 0.0755 0.2366 0.404 Uiso 0.505(9) 1 d R U P B 2
H10H H 0.6992 -0.0037 0.2104 0.404 Uiso 0.505(9) 1 d R U P B 2
H10I H 0.7605 0.0501 0.1405 0.404 Uiso 0.505(9) 1 d R U P B 2
C1 C 0.1971(7) 0.1511(3) 0.4364(6) 0.0648(18) Uani 1 1 d . . . . .
C2 C 0.1183(7) 0.0915(3) 0.4616(5) 0.0681(18) Uani 1 1 d . U . . .
C4 C -0.0245(9) -0.0032(4) 0.4457(7) 0.103(3) Uani 1 1 d . U . . .
C6 C 0.4309(9) 0.1399(3) 0.1945(6) 0.072(2) Uani 1 1 d . . . . .
C7 C 0.4568(7) 0.0834(3) 0.1134(5) 0.081(2) Uani 1 1 d D . . . .
C9 C 0.4412(9) 0.0004(4) -0.0263(8) 0.121(4) Uani 1 1 d D U . . .
O1 O 0.1764(5) 0.1726(2) 0.3389(4) 0.0700(13) Uani 1 1 d . . . . .
O2 O 0.2737(5) 0.1735(2) 0.5158(4) 0.0846(16) Uani 1 1 d . . . . .
O3 O 0.3285(5) 0.1736(2) 0.1679(4) 0.0723(14) Uani 1 1 d . . . . .
O4 O 0.5106(6) 0.1477(3) 0.2800(5) 0.116(2) Uani 1 1 d . . . . .
O5 O 0.4014(7) 0.2500 0.7063(5) 0.091(2) Uani 1 2 d DS T P . .
N1 N 0.3024(10) 0.2500 0.8553(7) 0.090(3) Uani 1 2 d DS T P . .
C11 C 0.4222(15) 0.2500 0.9303(9) 0.143(6) Uani 1 2 d DS T P . .
H11A H 0.4068 0.2500 1.0047 0.214 Uiso 1 2 d R U P . .
H11B H 0.4695 0.2095 0.9183 0.214 Uiso 1 1 d R U . . .
C12 C 0.1826(12) 0.2500 0.8973(10) 0.117(5) Uani 1 2 d DS T P . .
H12A H 0.1148 0.2500 0.8349 0.176 Uiso 1 2 d R U P . .
H12B H 0.1768 0.2095 0.9411 0.176 Uiso 1 1 d R U . . .
C13 C 0.3013(11) 0.2500 0.7454(7) 0.083(3) Uani 1 2 d DS T P . .
H13A H 0.2241 0.2500 0.6973 0.099 Uiso 1 2 calc R U P . .
O6 O 0.5414(6) 0.1764(3) 0.5682(5) 0.1026(19) Uani 1 1 d D . . . .
N2 N 0.6225(14) 0.0710(7) 0.6131(13) 0.218(6) Uani 1 1 d D U . . .
C14 C 0.719(3) 0.0781(14) 0.534(2) 0.372(15) Uani 1 1 d D U . . .
H14A H 0.7685 0.0367 0.5372 0.559 Uiso 1 1 calc R U . . .
H14B H 0.6744 0.0851 0.4602 0.559 Uiso 1 1 calc R U . . .
H14C H 0.7731 0.1169 0.5563 0.559 Uiso 1 1 calc R U . . .
C15 C 0.629(2) 0.0045(12) 0.667(2) 0.346(14) Uani 1 1 d D U . . .
H15A H 0.6963 -0.0221 0.6450 0.519 Uiso 1 1 calc R U . . .
H15B H 0.6460 0.0108 0.7452 0.519 Uiso 1 1 calc R U . . .
H15C H 0.5507 -0.0194 0.6452 0.519 Uiso 1 1 calc R U . . .
C16 C 0.5525(12) 0.1267(7) 0.6115(11) 0.158(5) Uani 1 1 d D U . . .
H16A H 0.4968 0.1229 0.6609 0.190 Uiso 1 1 calc R U . . .
O1W O 0.4248(5) 0.2500 0.3755(4) 0.0493(14) Uani 1 2 d S T P . .
H1WA H 0.4965 0.2178 0.3425 0.059 Uiso 0.5 1 d R U P . .
H1WB H 0.4602 0.2100 0.4087 0.059 Uiso 0.5 1 d R U P . .
O2W O 0.0871(7) 0.2500 0.1418(5) 0.088(2) Uani 1 2 d S T P . .
H2WA H 0.0621 0.2117 0.1118 0.106 Uiso 0.5 1 d R U P . .
H2WB H 0.0165 0.2500 0.1638 0.106 Uiso 1 2 d R U P . .
loop_
_atom_site_aniso_label
_atom_site_aniso_U_11
_atom_site_aniso_U_22
_atom_site_aniso_U_33
_atom_site_aniso_U_23
_atom_site_aniso_U_13
_atom_site_aniso_U_12
Mg1 0.0731(19) 0.0331(11) 0.0427(15) 0.000 0.0278(14) 0.000
Mg2 0.0682(19) 0.0456(14) 0.0417(15) 0.000 0.0201(14) 0.000
S1 0.083(4) 0.075(3) 0.060(4) 0.024(3) 0.006(3) -0.029(3)
C3 0.097(13) 0.087(11) 0.042(9) 0.032(8) 0.009(9) -0.010(9)
C5 0.130(13) 0.076(10) 0.068(11) 0.034(8) 0.007(10) -0.043(9)
S1' 0.088(3) 0.067(3) 0.053(4) 0.012(2) 0.014(3) -0.033(2)
C3' 0.048(10) 0.066(8) 0.049(11) 0.000(8) -0.001(7) -0.030(8)
C5' 0.147(18) 0.099(13) 0.057(11) 0.024(10) -0.007(12) -0.087(12)
S2 0.099(5) 0.127(4) 0.095(4) -0.067(3) -0.015(3) 0.062(4)
C8 0.104(10) 0.066(7) 0.050(7) -0.023(6) 0.010(7) 0.006(7)
C10 0.120(19) 0.147(18) 0.18(2) -0.004(14) -0.024(15) -0.003(15)
S2' 0.103(6) 0.101(3) 0.085(4) -0.053(3) -0.016(3) 0.047(3)
C8' 0.082(9) 0.059(6) 0.073(8) -0.006(6) 0.007(7) 0.042(7)
C10' 0.27(3) 0.26(3) 0.27(3) -0.039(18) 0.015(19) 0.015(19)
C1 0.083(5) 0.062(4) 0.051(4) -0.004(3) 0.018(4) -0.018(4)
C2 0.086(5) 0.064(3) 0.058(4) 0.007(3) 0.024(4) -0.029(3)
C4 0.126(7) 0.074(4) 0.130(7) -0.021(5) 0.086(7) -0.044(4)
C6 0.117(7) 0.054(3) 0.048(4) -0.006(3) 0.019(4) 0.015(4)
C7 0.107(6) 0.076(4) 0.058(4) -0.009(4) 0.014(4) 0.034(4)
C9 0.174(8) 0.094(5) 0.112(7) -0.039(4) 0.073(7) 0.021(6)
O1 0.091(3) 0.062(2) 0.063(3) 0.006(2) 0.030(3) -0.022(2)
O2 0.105(4) 0.084(3) 0.067(3) 0.018(3) 0.023(3) -0.035(3)
O3 0.110(4) 0.054(2) 0.057(3) -0.010(2) 0.026(3) 0.022(3)
O4 0.133(5) 0.124(4) 0.083(4) -0.045(4) -0.004(4) 0.066(4)
O5 0.097(5) 0.128(6) 0.057(4) 0.000 0.042(4) 0.000
N1 0.133(9) 0.085(5) 0.066(6) 0.000 0.058(6) 0.000
C11 0.182(17) 0.201(16) 0.041(7) 0.000 0.006(9) 0.000
C12 0.135(12) 0.149(11) 0.077(8) 0.000 0.045(8) 0.000
C13 0.108(9) 0.095(7) 0.048(6) 0.000 0.023(6) 0.000
O6 0.131(5) 0.080(3) 0.097(4) 0.020(3) 0.020(4) 0.037(3)
N2 0.228(9) 0.183(8) 0.243(10) 0.042(8) 0.038(8) 0.040(8)
C14 0.41(2) 0.36(2) 0.36(2) -0.008(17) 0.074(18) 0.055(18)
C15 0.36(2) 0.33(2) 0.37(2) 0.079(16) 0.110(17) 0.045(17)
C16 0.133(8) 0.155(8) 0.197(9) 0.038(7) 0.056(7) 0.032(7)
O1W 0.069(4) 0.036(2) 0.045(3) 0.000 0.016(3) 0.000
O2W 0.101(5) 0.115(5) 0.056(4) 0.000 0.035(4) 0.000
loop_
_atom_type_symbol
_atom_type_description
_atom_type_scat_dispersion_real
_atom_type_scat_dispersion_imag
_atom_type_scat_source
C C 0.0033 0.0016 'International Tables Vol C Tables 4.2.6.8 and 6.1.1.4'
H H 0.0000 0.0000 'International Tables Vol C Tables 4.2.6.8 and 6.1.1.4'
N N 0.0061 0.0033 'International Tables Vol C Tables 4.2.6.8 and 6.1.1.4'
O O 0.0106 0.0060 'International Tables Vol C Tables 4.2.6.8 and 6.1.1.4'
Mg Mg 0.0486 0.0363 'International Tables Vol C Tables 4.2.6.8 and 6.1.1.4'
S S 0.1246 0.1234 'International Tables Vol C Tables 4.2.6.8 and 6.1.1.4'
loop_
_geom_angle_atom_site_label_1
_geom_angle_atom_site_label_2
_geom_angle_atom_site_label_3
_geom_angle
_geom_angle_site_symmetry_1
_geom_angle_site_symmetry_3
_geom_angle_publ_flag
O2W Mg1 O1 88.1(2) . . ?
O2W Mg1 O1 88.1(2) . 4_565 ?
O1 Mg1 O1 92.6(2) . 4_565 ?
O2W Mg1 O3 91.4(2) . . ?
O1 Mg1 O3 88.34(16) . . ?
O1 Mg1 O3 178.97(19) 4_565 . ?
O2W Mg1 O3 91.4(2) . 4_565 ?
O1 Mg1 O3 178.97(19) . 4_565 ?
O1 Mg1 O3 88.34(16) 4_565 4_565 ?
O3 Mg1 O3 90.7(2) . 4_565 ?
O2W Mg1 O1W 179.2(2) . . ?
O1 Mg1 O1W 91.30(19) . . ?
O1 Mg1 O1W 91.30(19) 4_565 . ?
O3 Mg1 O1W 89.15(19) . . ?
O3 Mg1 O1W 89.15(19) 4_565 . ?
O2W Mg1 Mg2 148.08(19) . . ?
O1 Mg1 Mg2 70.31(15) . . ?
O1 Mg1 Mg2 70.31(15) 4_565 . ?
O3 Mg1 Mg2 110.47(17) . . ?
O3 Mg1 Mg2 110.47(17) 4_565 . ?
O1W Mg1 Mg2 31.07(13) . . ?
O2 Mg2 O2 93.8(3) 4_565 . ?
O2 Mg2 O6 177.4(3) 4_565 . ?
O2 Mg2 O6 88.7(2) . . ?
O2 Mg2 O6 88.7(2) 4_565 4_565 ?
O2 Mg2 O6 177.4(3) . 4_565 ?
O6 Mg2 O6 88.9(4) . 4_565 ?
O2 Mg2 O5 90.7(2) 4_565 . ?
O2 Mg2 O5 90.7(2) . . ?
O6 Mg2 O5 88.2(2) . . ?
O6 Mg2 O5 88.2(2) 4_565 . ?
O2 Mg2 O1W 92.8(2) 4_565 . ?
O2 Mg2 O1W 92.8(2) . . ?
O6 Mg2 O1W 88.1(2) . . ?
O6 Mg2 O1W 88.1(2) 4_565 . ?
O5 Mg2 O1W 174.9(3) . . ?
O2 Mg2 Mg1 70.96(16) 4_565 . ?
O2 Mg2 Mg1 70.96(16) . . ?
O6 Mg2 Mg1 110.86(19) . . ?
O6 Mg2 Mg1 110.86(19) 4_565 . ?
O5 Mg2 Mg1 152.5(2) . . ?
O1W Mg2 Mg1 32.54(17) . . ?
C2 S1 C4 81.6(4) . 3_556 ?
C2 C3 C4 124.7(14) . . ?
C2 C3 C5 123.7(13) . . ?
C4 C3 C5 110.6(14) . . ?
C2 S1' C4 81.6(4) . . ?
C2 C3' C4 119.5(13) . 3_556 ?
C2 C3' C5' 126.8(14) . . ?
C4 C3' C5' 111.6(14) 3_556 . ?
C7 S2 C9 72.6(4) . 3_655 ?
C7 C8 C9 113.1(11) . . ?
C7 C8 C10 130.3(16) . . ?
C9 C8 C10 116.5(17) . . ?
C9 S2' C7 73.1(4) . . ?
C7 C8' C9 114.2(11) 3_655 . ?
C7 C8' C10' 144(2) 3_655 3_655 ?
C9 C8' C10' 102.0(19) . 3_655 ?
O2 C1 O1 128.3(6) . . ?
O2 C1 C2 115.3(6) . . ?
O1 C1 C2 116.3(6) . . ?
C3 C2 C1 135.6(9) . . ?
C3' C2 C1 132.2(9) . . ?
C3' C2 S1' 112.8(8) . . ?
C1 C2 S1' 113.4(5) . . ?
C3 C2 S1 109.4(9) . . ?
C1 C2 S1 113.4(5) . . ?
C4 C4 C3 100.2(12) 3_556 . ?
C4 C4 C3' 101.6(10) 3_556 3_556 ?
C4 C4 S1 121.3(7) 3_556 3_556 ?
C3 C4 S1 138.5(11) . 3_556 ?
C4 C4 S1' 121.0(7) 3_556 . ?
C3' C4 S1' 137.4(10) 3_556 . ?
O4 C6 O3 126.3(6) . . ?
O4 C6 C7 117.3(7) . . ?
O3 C6 C7 116.4(7) . . ?
C8 C7 C6 129.6(8) . . ?
C8' C7 C6 126.4(8) 3_655 . ?
C8 C7 S2 123.0(6) . . ?
C6 C7 S2 107.4(5) . . ?
C8' C7 S2' 121.6(6) 3_655 . ?
C6 C7 S2' 111.9(5) . . ?
C9 C9 C8' 104.4(8) 3_655 . ?
C9 C9 C8 104.0(9) 3_655 . ?
C9 C9 S2' 126.3(6) 3_655 . ?
C8' C9 S2' 128.8(9) . . ?
C9 C9 S2 127.1(6) 3_655 3_655 ?
C8 C9 S2 128.7(9) . 3_655 ?
C1 O1 Mg1 134.5(4) . . ?
C1 O2 Mg2 135.9(4) . . ?
C6 O3 Mg1 129.4(4) . . ?
C13 O5 Mg2 123.3(7) . . ?
C13 N1 C11 119.1(9) . . ?
C13 N1 C12 120.0(10) . . ?
C11 N1 C12 120.9(9) . . ?
O5 C13 N1 121.9(10) . . ?
C16 O6 Mg2 135.3(8) . . ?
C16 N2 C15 136.2(18) . . ?
C16 N2 C14 111.4(15) . . ?
C15 N2 C14 112.3(18) . . ?
O6 C16 N2 137.7(14) . . ?
Mg2 O1W Mg1 116.4(3) . . ?
loop_
_geom_bond_atom_site_label_1
_geom_bond_atom_site_label_2
_geom_bond_distance
_geom_bond_site_symmetry_2
_geom_bond_publ_flag
Mg1 O2W 2.052(8) . ?
Mg1 O1 2.069(4) . ?
Mg1 O1 2.069(4) 4_565 ?
Mg1 O3 2.075(4) . ?
Mg1 O3 2.075(4) 4_565 ?
Mg1 O1W 2.161(6) . ?
Mg1 Mg2 3.599(4) . ?
Mg2 O2 2.025(5) 4_565 ?
Mg2 O2 2.025(5) . ?
Mg2 O6 2.034(6) . ?
Mg2 O6 2.034(6) 4_565 ?
Mg2 O5 2.053(6) . ?
Mg2 O1W 2.074(5) . ?
S1 C2 1.795(8) . ?
S1 C4 1.842(10) 3_556 ?
C3 C2 1.324(18) . ?
C3 C4 1.358(17) . ?
C3 C5 1.54(2) . ?
S1' C2 1.784(9) . ?
S1' C4 1.850(9) . ?
C3' C2 1.321(18) . ?
C3' C4 1.430(17) 3_556 ?
C3' C5' 1.55(2) . ?
S2 C7 1.947(9) . ?
S2 C9 1.980(10) 3_655 ?
C8 C7 1.306(14) . ?
C8 C9 1.490(12) . ?
C8 C10 1.49(2) . ?
S2' C9 1.965(9) . ?
S2' C7 1.958(10) . ?
C8' C7 1.291(13) 3_655 ?
C8' C9 1.473(12) . ?
C8' C10' 1.48(2) 3_655 ?
C10' C8' 1.48(2) 3_655 ?
C1 O2 1.239(8) . ?
C1 O1 1.252(8) . ?
C1 C2 1.495(8) . ?
C4 C4 1.352(18) 3_556 ?
C4 C3' 1.430(17) 3_556 ?
C4 S1 1.842(10) 3_556 ?
C6 O4 1.242(9) . ?
C6 O3 1.271(9) . ?
C6 C7 1.539(8) . ?
C7 C8' 1.291(13) 3_655 ?
C9 C9 1.31(2) 3_655 ?
C9 S2 1.980(10) 3_655 ?
O5 C13 1.257(10) . ?
N1 C13 1.350(10) . ?
N1 C11 1.446(13) . ?
N1 C12 1.471(11) . ?
O6 C16 1.095(11) . ?
N2 C16 1.311(13) . ?
N2 C15 1.440(16) . ?
N2 C14 1.547(16) . ?
