#------------------------------------------------------------------------------
#$Date: 2020-05-16 04:59:24 +0300 (Sat, 16 May 2020) $
#$Revision: 252071 $
#$URL: file:///home/coder/svn-repositories/cod/cif/7/24/05/7240537.cif $
#------------------------------------------------------------------------------
#
# This file is available in the Crystallography Open Database (COD),
# http://www.crystallography.net/
#
# All data on this site have been placed in the public domain by the
# contributors.
#
data_7240537
loop_
_publ_author_name
'Liu, Jian-Jun'
'Que, Qi-Tao'
'Liu, Dan'
'Suo, Hongbo'
'Liu, Jiaming'
'Xia, Shu-Biao'
_publ_section_title
;
 A multifunction photochromic metal-organic framework with Lewis acid
 sites for selective amines and anion sensing
;
_journal_name_full               CrystEngComm
_journal_paper_doi               10.1039/D0CE00560F
_journal_year                    2020
_chemical_formula_moiety         'C36 H30 Eu N4 O12, Cl'
_chemical_formula_sum            'C36 H30 Cl Eu N4 O12'
_chemical_formula_weight         898.05
_space_group_crystal_system      triclinic
_space_group_IT_number           2
_space_group_name_Hall           '-P 1'
_space_group_name_H-M_alt        'P -1'
_atom_sites_solution_hydrogens   mixed
_audit_creation_method           SHELXL-2014/7
_audit_update_record
;
2020-04-01 deposited with the CCDC.	2020-05-14 downloaded from the CCDC.
;
_cell_angle_alpha                95.8520(10)
_cell_angle_beta                 106.5110(10)
_cell_angle_gamma                107.9380(10)
_cell_formula_units_Z            2
_cell_length_a                   9.6088(7)
_cell_length_b                   14.6537(11)
_cell_length_c                   16.9619(14)
_cell_measurement_reflns_used    12867
_cell_measurement_temperature    100(2)
_cell_measurement_theta_max      27.560
_cell_measurement_theta_min      2.363
_cell_volume                     2131.0(3)
_computing_cell_refinement       'Bruker SMART'
_computing_data_collection       'Bruker SMART'
_computing_data_reduction        'Bruker SMART'
_computing_structure_refinement  'SHELXL-2014/7 (Sheldrick, 2014)'
_computing_structure_solution    'SHELXS-97 (Sheldrick, 1990)'
_diffrn_ambient_temperature      100(2)
_diffrn_measured_fraction_theta_full 0.987
_diffrn_measured_fraction_theta_max 0.941
_diffrn_measurement_device_type  'CCD area detector'
_diffrn_measurement_method       'phi and omega scans'
_diffrn_radiation_type           MoK\a
_diffrn_radiation_wavelength     0.71073
_diffrn_reflns_av_R_equivalents  0.0214
_diffrn_reflns_av_unetI/netI     0.0498
_diffrn_reflns_Laue_measured_fraction_full 0.987
_diffrn_reflns_Laue_measured_fraction_max 0.941
_diffrn_reflns_limit_h_max       12
_diffrn_reflns_limit_h_min       -10
_diffrn_reflns_limit_k_max       18
_diffrn_reflns_limit_k_min       -19
_diffrn_reflns_limit_l_max       21
_diffrn_reflns_limit_l_min       -16
_diffrn_reflns_number            12867
_diffrn_reflns_point_group_measured_fraction_full 0.987
_diffrn_reflns_point_group_measured_fraction_max 0.941
_diffrn_reflns_theta_full        25.242
_diffrn_reflns_theta_max         27.560
_diffrn_reflns_theta_min         2.363
_exptl_absorpt_coefficient_mu    1.594
_exptl_absorpt_correction_T_max  1.0000
_exptl_absorpt_correction_T_min  0.8569
_exptl_absorpt_correction_type   multi-scan
_exptl_absorpt_process_details   '(SADABS; Bruker, 2004)'
_exptl_crystal_colour            yellow
_exptl_crystal_density_diffrn    1.400
_exptl_crystal_description       block
_exptl_crystal_F_000             900
_exptl_crystal_size_max          0.32
_exptl_crystal_size_mid          0.25
_exptl_crystal_size_min          0.06
_refine_diff_density_max         1.796
_refine_diff_density_min         -2.295
_refine_diff_density_rms         0.139
_refine_ls_extinction_method     none
_refine_ls_goodness_of_fit_ref   1.047
_refine_ls_hydrogen_treatment    mixed
_refine_ls_matrix_type           full
_refine_ls_number_parameters     511
_refine_ls_number_reflns         9270
_refine_ls_number_restraints     12
_refine_ls_restrained_S_all      1.046
_refine_ls_R_factor_all          0.0456
_refine_ls_R_factor_gt           0.0393
_refine_ls_shift/su_max          0.002
_refine_ls_shift/su_mean         0.000
_refine_ls_structure_factor_coef Fsqd
_refine_ls_weighting_details
'w=1/[\s^2^(Fo^2^)+(0.0705P)^2^+1.4465P] where P=(Fo^2^+2Fc^2^)/3'
_refine_ls_weighting_scheme      calc
_refine_ls_wR_factor_gt          0.1088
_refine_ls_wR_factor_ref         0.1129
_reflns_Friedel_coverage         0.000
_reflns_number_gt                8142
_reflns_number_total             9270
_reflns_threshold_expression     'I > 2\s(I)'
_cod_data_source_file            d0ce00560f2.cif
_cod_data_source_block           Complex1
_cod_database_code               7240537
_shelx_shelxl_version_number     2014/7
_shelx_space_group_comment
;
The symmetry employed for this shelxl refinement is uniquely defined
by the following loop, which should always be used as a source of
symmetry information in preference to the above space-group names.
They are only intended as comments.
;
_shelx_res_file
;

    ljj1_sq.res created by SHELXL-2014/7


REM  ljj1_a.res in P-1
REM R1 =  0.0552 for    8144 Fo > 4sig(Fo)  and  0.0621 for all    9275 data
REM    217 parameters refined using      0 restraints
REM Highest difference peak  5.439,  deepest hole -4.099,  1-sigma level  0.212
TITL ljj1_a.res in P-1
CELL 0.71073 9.6088 14.6537 16.9619 95.852 106.511 107.938
ZERR 2.0000 0.0007 0.0011 0.0014 0.001 0.001 0.001
LATT 1
SFAC C H O N EU CL
UNIT 72 60 24 8 2 2
MERG 2
FMAP 2
GRID
ABIN
DFIX 0.85 0.02 O10 H10A O10 H10B
DANG 1.33 0.01 H10A H10B
DFIX 0.85 0.02 O11 H11A O11 H11B
DANG 1.33 0.01 H11A H11B
DFIX 0.85 0.02 O12 H12A O12 H12B
DANG 1.33 0.01 H12A H12B
DFIX 0.85 0.02 O9 H9A O9 H9B
DANG 1.33 0.01 H9A H9B
ACTA
OMIT  0   0   1
OMIT    0  -1   1
OMIT   -1   1   1
OMIT    0   1   0
OMIT   1  -1   1
PLAN 20
TEMP -173
BOND $H
L.S. 5
WGHT    0.070500    1.446500
FVAR       0.28801
EU1   5    0.071771    0.268035    0.576214    11.00000    0.00692    0.01090 =
         0.00886    0.00063    0.00326    0.00077
O8    3    0.908984    0.569009    0.416521    11.00000    0.01054    0.01232 =
         0.01555    0.00124    0.00568    0.00215
O2    3   -0.193043    0.007852    0.401985    11.00000    0.01389    0.01407 =
         0.01354    0.00287    0.00521    0.00398
O10   3    0.001030    0.273089    0.700459    11.00000    0.01124    0.03802 =
         0.01484    0.00455    0.00692    0.00971
H10A  2   -0.085270    0.275976    0.698022    11.00000   -1.50000
H10B  2    0.040715    0.266863    0.750076    11.00000   -1.50000
O12   3    0.319986    0.378978    0.691776    11.00000    0.01114    0.01736 =
         0.01599   -0.00314    0.00070    0.00658
H12A  2    0.399634    0.364093    0.706464    11.00000   -1.50000
H12B  2    0.315980    0.404807    0.737971    11.00000   -1.50000
O4    3   -0.699071   -0.241306    0.363243    11.00000    0.00965    0.02267 =
         0.01276   -0.00308    0.00425    0.00297
O5    3    0.265873    0.279749    0.516910    11.00000    0.01201    0.02029 =
         0.01775    0.00409    0.00892    0.00363
O1    3   -0.045236    0.099880    0.528808    11.00000    0.00971    0.01269 =
         0.01542   -0.00082    0.00090    0.00018
O9    3   -0.029807    0.266803    0.423865    11.00000    0.01584    0.02106 =
         0.01379    0.00145    0.00522    0.00388
H9A   2   -0.124630    0.250539    0.394169    11.00000   -1.50000
H9B   2    0.010878    0.248164    0.391083    11.00000   -1.50000
O7    3    0.752940    0.430810    0.322889    11.00000    0.02194    0.01382 =
         0.01514   -0.00030    0.01075    0.00026
O3    3   -0.797487   -0.241932    0.467685    11.00000    0.00888    0.01606 =
         0.01385    0.00485    0.00389    0.00231
O11   3    0.210519    0.175658    0.662562    11.00000    0.01418    0.01366 =
         0.01596   -0.00210    0.00157    0.00304
H11A  2    0.308658    0.204989    0.678554    11.00000   -1.50000
H11B  2    0.200627    0.117663    0.642150    11.00000   -1.50000
O6    3    0.244944    0.266327    0.381533    11.00000    0.01458    0.03474 =
         0.01703    0.00222    0.00602   -0.00225
N2    4   -0.367000    0.001300    0.717125    11.00000    0.01102    0.01627 =
         0.00914   -0.00107    0.00166    0.00311
N3    4    0.802894    0.503559    0.685241    11.00000    0.01138    0.01552 =
         0.00789    0.00027    0.00239    0.00374
N1    4   -0.311919    0.175579    1.134615    11.00000    0.03387    0.02691 =
         0.01605    0.00039    0.00995    0.01160
N4    4    1.256650    0.668864    1.114629    11.00000    0.02648    0.02926 =
         0.01219   -0.00133   -0.00153    0.01300
C20   1    0.485501    0.368289    0.485187    11.00000    0.01035    0.01091 =
         0.01441    0.00432    0.00464    0.00454
C21   1    0.562054    0.391934    0.427454    11.00000    0.01283    0.00929 =
         0.00952    0.00051    0.00553    0.00229
AFIX  43
H21   2    0.510474    0.362801    0.369459    11.00000   -1.20000
AFIX   0
C8    1   -0.482739    0.045360    0.814538    11.00000    0.01752    0.02222 =
         0.01646    0.00279    0.00679    0.00839
AFIX  43
H8    2   -0.572643    0.049479    0.825283    11.00000   -1.20000
AFIX   0
C22   1    0.713661    0.458024    0.454506    11.00000    0.01298    0.00865 =
         0.01595    0.00357    0.00622    0.00670
C3    1   -0.330401    0.111918    0.967950    11.00000    0.02271    0.02137 =
         0.01442   -0.00111    0.00527    0.00886
C25   1    0.716306    0.469906    0.596132    11.00000    0.01372    0.01304 =
         0.00830    0.00091    0.00200    0.00695
C24   1    0.792373    0.497971    0.540042    11.00000    0.00996    0.00953 =
         0.01234   -0.00041    0.00353    0.00191
AFIX  43
H24   2    0.895884    0.543408    0.559101    11.00000   -1.20000
AFIX   0
C23   1    0.795516    0.486269    0.391907    11.00000    0.01305    0.01254 =
         0.01426    0.00281    0.00565    0.00382
C30   1    1.031252    0.525587    0.797614    11.00000    0.01765    0.03091 =
         0.01383    0.00277    0.00475    0.01008
AFIX  43
H30   2    1.129714    0.518613    0.816665    11.00000   -1.20000
AFIX   0
C17   1   -0.687569   -0.215708    0.438711    11.00000    0.00820    0.01113 =
         0.01534    0.00294    0.00291    0.00560
C7    1   -0.342606    0.074802    0.880830    11.00000    0.01982    0.01962 =
         0.01445    0.00227    0.00584    0.00634
C18   1   -0.164287    0.031744    0.479313    11.00000    0.00843    0.00887 =
         0.01800    0.00487    0.00401    0.00438
C31   1    0.941269    0.493645    0.713737    11.00000    0.01233    0.02579 =
         0.01318    0.00081    0.00534    0.00595
AFIX  43
H31   2    0.978286    0.464079    0.675546    11.00000   -1.20000
AFIX   0
C26   1    0.564008    0.407506    0.570998    11.00000    0.01213    0.01410 =
         0.01242    0.00460    0.00756    0.00547
AFIX  43
H26   2    0.513515    0.391504    0.611079    11.00000   -1.20000
AFIX   0
C15   1   -0.281277   -0.023238    0.517367    11.00000    0.00962    0.01159 =
         0.01597    0.00341    0.00427    0.00615
C14   1   -0.416580   -0.098977    0.466275    11.00000    0.01068    0.00941 =
         0.01131    0.00124    0.00293    0.00426
AFIX  43
H14   2   -0.428788   -0.120972    0.409230    11.00000   -1.20000
AFIX   0
C13   1   -0.534027   -0.142731    0.497980    11.00000    0.00640    0.01091 =
         0.01201    0.00139    0.00169    0.00263
C10   1   -0.229445    0.028755    0.780013    11.00000    0.01111    0.02333 =
         0.01456    0.00096    0.00367    0.00472
AFIX  43
H10   2   -0.141860    0.021827    0.768238    11.00000   -1.20000
AFIX   0
C4    1   -0.455772    0.123483    0.987625    11.00000    0.02648    0.04282 =
         0.01662   -0.00303    0.00497    0.01558
AFIX  43
H4    2   -0.551818    0.109696    0.944265    11.00000   -1.20000
AFIX   0
C16   1   -0.264217    0.008274    0.600919    11.00000    0.00923    0.01045 =
         0.01345   -0.00233   -0.00104    0.00164
AFIX  43
H16   2   -0.173092    0.059911    0.636566    11.00000   -1.20000
AFIX   0
C9    1   -0.493007    0.010469    0.733883    11.00000    0.01382    0.02445 =
         0.01440    0.00134    0.00396    0.00845
AFIX  43
H9    2   -0.588950   -0.007398    0.689458    11.00000   -1.20000
AFIX   0
C12   1   -0.516096   -0.112277    0.581007    11.00000    0.01003    0.01385 =
         0.01528    0.00426    0.00576    0.00490
AFIX  43
H12   2   -0.594575   -0.142642    0.603447    11.00000   -1.20000
AFIX   0
C11   1   -0.381347   -0.036405    0.631453    11.00000    0.01343    0.01638 =
         0.01015    0.00148    0.00278    0.00848
C33   1    1.016381    0.634444    1.004220    11.00000    0.01905    0.04040 =
         0.01568   -0.00125    0.00363    0.01022
AFIX  43
H33   2    0.913207    0.634336    0.988237    11.00000   -1.20000
AFIX   0
C32   1    1.072559    0.602923    0.944537    11.00000    0.01944    0.01919 =
         0.01257    0.00171    0.00396    0.00831
C29   1    0.977487    0.567802    0.853835    11.00000    0.01602    0.01744 =
         0.00978    0.00010    0.00265    0.00565
C6    1   -0.214777    0.066708    0.861075    11.00000    0.01528    0.02847 =
         0.01723   -0.00093    0.00178    0.00624
AFIX  43
H6    2   -0.116406    0.087605    0.904006    11.00000   -1.20000
AFIX   0
C19   1    0.318509    0.299124    0.458391    11.00000    0.00957    0.01691 =
         0.01442    0.00294    0.00492    0.00369
C5    1   -0.440627    0.155045    1.070288    11.00000    0.03100    0.04286 =
         0.02135   -0.00420    0.01044    0.01569
AFIX  43
H5    2   -0.528329    0.162450    1.081582    11.00000   -1.20000
AFIX   0
C1    1   -0.190853    0.165123    1.115914    11.00000    0.03257    0.04484 =
         0.01589   -0.00540    0.00171    0.01491
AFIX  43
H1    2   -0.096724    0.179312    1.160866    11.00000   -1.20000
AFIX   0
C2    1   -0.193952    0.134980    1.035331    11.00000    0.03002    0.05623 =
         0.01686   -0.00013    0.00664    0.02227
AFIX  43
H2    2   -0.103390    0.130030    1.025990    11.00000   -1.20000
AFIX   0
C34   1    1.111368    0.666421    1.087961    11.00000    0.02549    0.03529 =
         0.01383    0.00185    0.00717    0.00970
AFIX  43
H34   2    1.070178    0.687589    1.128115    11.00000   -1.20000
AFIX   0
C36   1    1.225474    0.606182    0.972659    11.00000    0.02822    0.06186 =
         0.01876   -0.00957   -0.00172    0.02874
AFIX  43
H36   2    1.270663    0.586052    0.934170    11.00000   -1.20000
AFIX   0
C27   1    0.745889    0.541686    0.738777    11.00000    0.02281    0.04258 =
         0.01724   -0.00193    0.00061    0.02342
AFIX  43
H27   2    0.645950    0.546295    0.718301    11.00000   -1.20000
AFIX   0
C35   1    1.310871    0.639238    1.057669    11.00000    0.03128    0.06183 =
         0.02274   -0.00760   -0.00591    0.02934
AFIX  43
H35   2    1.414682    0.640561    1.075832    11.00000   -1.20000
AFIX   0
C28   1    0.830623    0.574009    0.822695    11.00000    0.03197    0.04622 =
         0.01487   -0.00435    0.00438    0.02472
AFIX  43
H28   2    0.788973    0.600826    0.859892    11.00000   -1.20000
AFIX   0
CL1   6   -0.526965   -0.279232    0.272722    11.00000    0.10436    0.12552 =
         0.10819    0.02403    0.03507    0.04422
HKLF 4

REM  ljj1_a.res in P-1
REM R1 =  0.0393 for    8142 Fo > 4sig(Fo)  and  0.0456 for all    9270 data
REM    511 parameters refined using     12 restraints

END

WGHT      0.0693      1.2967

REM Highest difference peak  1.796,  deepest hole -2.295,  1-sigma level  0.139
Q1    1  -0.6144 -0.2555  0.5759  11.00000  0.05    0.69
Q2    1  -0.3169  0.2362  0.2970  11.00000  0.05    0.67
Q3    1  -0.6212 -0.2990  0.2101  11.00000  0.05    0.65
Q4    1   0.1345  0.3527  0.6010  11.00000  0.05    0.59
Q5    1   0.1764  0.2969  0.6103  11.00000  0.05    0.58
Q6    1  -0.0434  0.2451  0.5427  11.00000  0.05    0.57
Q7    1  -0.0381  0.2156  0.5420  11.00000  0.05    0.55
Q8    1  -0.5783 -0.2600  0.3184  11.00000  0.05    0.52
Q9    1  -0.6079 -0.1659  0.4619  11.00000  0.05    0.52
Q10   1   0.4027  0.3376  0.4739  11.00000  0.05    0.51
Q11   1  -0.3575 -0.0505  0.4996  11.00000  0.05    0.47
Q12   1  -0.0045  0.0766  0.3095  11.00000  0.05    0.47
Q13   1  -0.4684 -0.1212  0.4913  11.00000  0.05    0.47
Q14   1   0.7245  0.3119  0.3041  11.00000  0.05    0.46
Q15   1   1.4042  0.5937  1.0631  11.00000  0.05    0.46
Q16   1   0.0328  0.1951  0.5644  11.00000  0.05    0.46
Q17   1  -0.0207  0.2164  0.6090  11.00000  0.05    0.45
Q18   1  -0.5028 -0.0006  0.7806  11.00000  0.05    0.45
Q19   1  -0.2661  0.0883  0.8653  11.00000  0.05    0.45
Q20   1   0.6551  0.4326  0.5815  11.00000  0.05    0.45
;
_shelx_res_checksum              57407
_shelx_fab_file
;
    1    0    0     -9.77      0.00
    2    0    0    -29.73      0.00
    3    0    0     13.37      0.00
    4    0    0    -13.57      0.00
    5    0    0     -1.12      0.00
    6    0    0     18.89      0.00
    7    0    0      3.62      0.00
    8    0    0      3.16      0.00
    9    0    0      3.29      0.00
   10    0    0     -1.53      0.00
   11    0    0      1.59      0.00
  -11    1    0     -2.74      0.00
  -10    1    0     -0.17      0.00
   -9    1    0      7.66      0.00
   -8    1    0     -0.32      0.00
   -7    1    0      2.65      0.00
   -6    1    0     10.32      0.00
   -5    1    0     -2.86      0.00
   -4    1    0     -7.68      0.00
   -3    1    0    -10.84      0.00
   -2    1    0      6.75      0.00
    0    1    0     20.99      0.00
    1    1    0     -6.45      0.00
    2    1    0    -10.92      0.00
    3    1    0    -16.47      0.00
    4    1    0      9.20      0.00
    5    1    0     12.95      0.00
    6    1    0      8.25      0.00
    7    1    0      7.72      0.00
    8    1    0      0.81      0.00
    9    1    0      0.19      0.00
   10    1    0      3.95      0.00
  -11    2    0      0.33      0.00
  -10    2    0      4.59      0.00
   -9    2    0     -3.61      0.00
   -8    2    0      1.42      0.00
   -7    2    0      5.31      0.00
   -6    2    0     -4.86      0.00
   -5    2    0      5.91      0.00
   -4    2    0    -12.91      0.00
   -3    2    0     -8.12      0.00
   -2    2    0     84.73      0.00
   -1    2    0     30.34      0.00
    0    2    0    -21.46      0.00
    1    2    0     10.03      0.00
    2    2    0     -5.27      0.00
    3    2    0    -12.81      0.00
    4    2    0     11.45      0.00
    5    2    0     16.70      0.00
    6    2    0      1.22      0.00
    7    2    0      1.09      0.00
    8    2    0      5.35      0.00
    9    2    0     -1.10      0.00
   10    2    0     -1.28      0.00
  -11    3    0      0.96      0.00
  -10    3    0      0.22      0.00
   -9    3    0     -6.23      0.00
   -8    3    0      1.04      0.00
   -7    3    0      7.02      0.00
   -6    3    0     -6.57      0.00
   -5    3    0    -15.66      0.00
   -4    3    0     13.79      0.00
   -3    3    0     -8.77      0.00
   -2    3    0     -0.60      0.00
   -1    3    0     32.59      0.00
    0    3    0     -8.55      0.00
    1    3    0    -13.65      0.00
    2    3    0      9.62      0.00
    3    3    0    -10.33      0.00
    4    3    0      1.83      0.00
    5    3    0     10.77      0.00
    6    3    0      0.25      0.00
    7    3    0      1.71      0.00
    8    3    0     -1.43      0.00
    9    3    0     -0.49      0.00
   10    3    0      2.10      0.00
  -11    4    0      0.03      0.00
  -10    4    0     -3.11      0.00
   -9    4    0      0.30      0.00
   -8    4    0      0.19      0.00
   -7    4    0     -0.72      0.00
   -6    4    0     -8.10      0.00
   -5    4    0     -8.25      0.00
   -4    4    0    -22.15      0.00
   -3    4    0     -1.14      0.00
   -2    4    0      7.11      0.00
   -1    4    0      0.41      0.00
    0    4    0     12.38      0.00
    1    4    0     -4.08      0.00
    2    4    0    -31.31      0.00
    3    4    0      5.01      0.00
    4    4    0      3.89      0.00
    5    4    0     -3.39      0.00
    6    4    0      5.82      0.00
    7    4    0     -4.30      0.00
    8    4    0     -4.04      0.00
    9    4    0      3.37      0.00
   10    4    0      2.35      0.00
  -11    5    0     -1.36      0.00
  -10    5    0     -1.24      0.00
   -9    5    0      0.84      0.00
   -8    5    0     -1.64      0.00
   -7    5    0    -10.29      0.00
   -6    5    0     -2.78      0.00
   -5    5    0    -18.38      0.00
   -4    5    0    -19.22      0.00
   -3    5    0     13.55      0.00
   -2    5    0     11.18      0.00
   -1    5    0    -13.48      0.00
    0    5    0     15.59      0.00
    1    5    0    -27.06      0.00
    2    5    0    -27.72      0.00
    3    5    0      5.87      0.00
    4    5    0      5.41      0.00
    5    5    0     -5.67      0.00
    6    5    0     -2.92      0.00
    7    5    0     -1.97      0.00
    8    5    0     -1.61      0.00
    9    5    0      2.59      0.00
  -11    6    0      1.67      0.00
  -10    6    0     -5.87      0.00
   -9    6    0      0.03      0.00
   -8    6    0     -2.20      0.00
   -7    6    0    -10.68      0.00
   -6    6    0     -9.42      0.00
   -5    6    0      2.71      0.00
   -4    6    0     -9.68      0.00
   -3    6    0      0.35      0.00
   -2    6    0      8.35      0.00
   -1    6    0      2.15      0.00
    0    6    0    -30.50      0.00
    1    6    0    -21.10      0.00
    2    6    0     -0.87      0.00
    3    6    0     -2.94      0.00
    4    6    0     -2.21      0.00
    5    6    0      0.42      0.00
    6    6    0     -6.67      0.00
    7    6    0     -2.53      0.00
    8    6    0      2.07      0.00
    9    6    0     -1.25      0.00
  -11    7    0     -5.10      0.00
  -10    7    0      2.96      0.00
   -9    7    0     -4.74      0.00
   -8    7    0     -8.08      0.00
   -7    7    0      3.92      0.00
   -6    7    0     -1.78      0.00
   -5    7    0    -11.55      0.00
   -4    7    0      5.92      0.00
   -3    7    0     -6.29      0.00
   -2    7    0     -2.95      0.00
   -1    7    0      0.53      0.00
    0    7    0    -31.08      0.00
    1    7    0    -11.41      0.00
    2    7    0     10.42      0.00
    3    7    0     -8.18      0.00
    4    7    0     -3.99      0.00
    5    7    0      2.01      0.00
    6    7    0     -6.70      0.00
    7    7    0     -3.93      0.00
    8    7    0      1.41      0.00
  -11    8    0     -0.19      0.00
  -10    8    0      0.87      0.00
   -9    8    0     -8.26      0.00
   -8    8    0      3.66      0.00
   -7    8    0      6.58      0.00
   -6    8    0    -10.51      0.00
   -5    8    0     -9.07      0.00
   -4    8    0      9.01      0.00
   -3    8    0     -1.29      0.00
   -2    8    0     -5.53      0.00
   -1    8    0     -9.43      0.00
    0    8    0     -7.14      0.00
    1    8    0     -3.93      0.00
    2    8    0     -3.73      0.00
    3    8    0      3.09      0.00
    4    8    0     -2.97      0.00
    5    8    0     -6.21      0.00
    6    8    0     -3.84      0.00
    7    8    0      0.54      0.00
    8    8    0     -1.62      0.00
  -11    9    0     -0.09      0.00
  -10    9    0     -5.44      0.00
   -9    9    0      8.28      0.00
   -8    9    0      3.97      0.00
   -7    9    0    -10.25      0.00
   -6    9    0     -0.72      0.00
   -5    9    0      4.73      0.00
   -4    9    0     -5.53      0.00
   -3    9    0     11.26      0.00
   -2    9    0     -0.62      0.00
   -1    9    0    -13.12      0.00
    0    9    0      2.14      0.00
    1    9    0     -0.46      0.00
    2    9    0     -4.36      0.00
    3    9    0      2.98      0.00
    4    9    0     -0.08      0.00
    5    9    0     -9.83      0.00
    6    9    0      2.82      0.00
    7    9    0     -0.59      0.00
  -11   10    0      0.38      0.00
  -10   10    0      3.94      0.00
   -9   10    0      2.80      0.00
   -8   10    0     -3.55      0.00
   -7   10    0     -4.29      0.00
   -6   10    0      3.25      0.00
   -5   10    0      6.63      0.00
   -4   10    0      2.22      0.00
   -3   10    0      5.11      0.00
   -2   10    0      6.17      0.00
   -1   10    0    -10.94      0.00
    0   10    0     -1.22      0.00
    1   10    0      6.43      0.00
    2   10    0     -1.67      0.00
    3   10    0     -0.31      0.00
    4   10    0      0.44      0.00
    5   10    0     -0.07      0.00
    6   10    0     -2.53      0.00
    7   10    0      1.73      0.00
  -11   11    0      3.01      0.00
  -10   11    0     -0.57      0.00
   -9   11    0     -2.56      0.00
   -8   11    0      2.35      0.00
   -7   11    0      0.13      0.00
   -6   11    0      4.27      0.00
   -5   11    0      6.96      0.00
   -4   11    0      6.42      0.00
   -3   11    0      2.37      0.00
   -2   11    0     -4.98      0.00
   -1   11    0      2.68      0.00
    0   11    0     -1.41      0.00
    1   11    0      0.71      0.00
    2   11    0      7.79      0.00
    3   11    0      0.42      0.00
    4   11    0     -0.83      0.00
    5   11    0      1.83      0.00
    6   11    0      0.55      0.00
  -11   12    0     -1.96      0.00
  -10   12    0      1.11      0.00
   -9   12    0      3.02      0.00
   -8   12    0     -3.88      0.00
   -7   12    0      8.95      0.00
   -6   12    0      2.30      0.00
   -5   12    0     -1.74      0.00
   -4   12    0     11.05      0.00
   -3   12    0     -1.74      0.00
   -2   12    0     -7.27      0.00
   -1   12    0      7.02      0.00
    0   12    0      1.72      0.00
    1   12    0      0.75      0.00
    2   12    0      9.64      0.00
    3   12    0      1.08      0.00
    4   12    0     -1.47      0.00
    5   12    0      1.93      0.00
  -11   13    0     -1.08      0.00
  -10   13    0      2.74      0.00
   -9   13    0     -0.94      0.00
   -8   13    0      2.76      0.00
   -6   13    0     -0.14      0.00
   -5   13    0      4.09      0.00
   -4   13    0      2.38      0.00
   -3   13    0     -0.07      0.00
   -2   13    0     -0.42      0.00
   -1   13    0      1.22      0.00
    0   13    0      5.53      0.00
    1   13    0      5.50      0.00
    2   13    0     -0.46      0.00
    3   13    0      4.86      0.00
    4   13    0     -1.24      0.00
  -10   14    0     -0.62      0.00
   -9   14    0      3.47      0.00
   -8   14    0     -0.48      0.00
   -7   14    0     -4.76      0.00
   -6   14    0      4.78      0.00
   -5   14    0      6.79      0.00
   -4   14    0     -3.68      0.00
   -3   14    0     -0.26      0.00
   -2   14    0      5.72      0.00
   -1   14    0     -2.39      0.00
    0   14    0      3.12      0.00
    1   14    0      6.11      0.00
    2   14    0      0.15      0.00
    3   14    0     -1.40      0.00
  -10   15    0      2.10      0.00
   -9   15    0     -2.74      0.00
   -8   15    0     -0.57      0.00
   -7   15    0      0.25      0.00
   -6   15    0      3.12      0.00
   -5   15    0      5.19      0.00
   -4   15    0     -2.64      0.00
   -3   15    0     -1.14      0.00
   -2   15    0      2.97      0.00
   -1   15    0     -0.44      0.00
    0   15    0      1.08      0.00
    1   15    0      4.07      0.00
    2   15    0     -0.41      0.00
   -9   16    0     -0.12      0.00
   -8   16    0      0.82      0.00
   -7   16    0      2.62      0.00
   -6   16    0      3.39      0.00
   -5   16    0     -2.05      0.00
   -4   16    0      0.62      0.00
   -3   16    0     -0.88      0.00
   -2   16    0     -3.95      0.00
   -1   16    0      3.51      0.00
    0   16    0      2.08      0.00
    1   16    0     -2.99      0.00
   -8   17    0     -0.16      0.00
   -7   17    0      3.06      0.00
   -6   17    0      1.67      0.00
   -5   17    0     -5.47      0.00
   -4   17    0     -0.99      0.00
   -3   17    0     -0.02      0.00
   -1   17    0      0.78      0.00
    0   17    0     -0.20      0.00
   -7   18    0      1.02      0.00
   -6   18    0     -1.49      0.00
   -5   18    0     -2.12      0.00
   -4   18    0     -1.06      0.00
   -1   18    0     -1.81      0.00
    4  -19    1      1.45      0.00
    1  -18    1      2.91      0.00
    4  -18    1      5.43      0.00
    5  -18    1     -2.38      0.00
    6  -18    1      0.04      0.00
    7  -18    1      1.86      0.00
    0  -17    1      1.89      0.00
    1  -17    1      2.07      0.00
    3  -17    1      3.53      0.00
    4  -17    1      1.29      0.00
    5  -17    1     -2.38      0.00
    6  -17    1      1.29      0.00
    7  -17    1      2.32      0.00
    8  -17    1      2.01      0.00
   -2  -16    1     -0.26      0.00
   -1  -16    1      1.53      0.00
    0  -16    1      1.33      0.00
    1  -16    1      0.92      0.00
    2  -16    1      4.66      0.00
    3  -16    1      0.67      0.00
    4  -16    1     -3.98      0.00
    5  -16    1      3.37      0.00
    6  -16    1      3.54      0.00
    7  -16    1      1.46      0.00
    8  -16    1      2.32      0.00
    9  -16    1      0.55      0.00
   -2  -15    1     -4.66      0.00
   -1  -15    1      4.95      0.00
    0  -15    1      2.13      0.00
    1  -15    1     -3.48      0.00
    2  -15    1      5.93      0.00
    3  -15    1     -0.10      0.00
    4  -15    1     -3.87      0.00
    5  -15    1      4.44      0.00
    6  -15    1      5.28      0.00
    7  -15    1      0.54      0.00
    8  -15    1      0.58      0.00
    9  -15    1     -3.39      0.00
   10  -15    1      1.41      0.00
   -3  -14    1     -1.20      0.00
   -2  -14    1      0.81      0.00
   -1  -14    1     -0.99      0.00
    0  -14    1     -0.08      0.00
    1  -14    1      3.75      0.00
    2  -14    1     -2.26      0.00
    3  -14    1     -0.85      0.00
    4  -14    1      1.77      0.00
    5  -14    1      2.22      0.00
    6  -14    1      2.05      0.00
    7  -14    1      1.18      0.00
    8  -14    1     -4.90      0.00
    9  -14    1      1.49      0.00
   10  -14    1      0.15      0.00
   -4  -13    1     -5.97      0.00
   -3  -13    1     -0.88      0.00
   -2  -13    1      2.20      0.00
   -1  -13    1     -5.06      0.00
    0  -13    1     -0.69      0.00
    1  -13    1      6.50      0.00
    2  -13    1     -6.32      0.00
    3  -13    1     -4.35      0.00
    4  -13    1      7.10      0.00
    5  -13    1     -1.66      0.00
    6  -13    1     -4.16      0.00
    7  -13    1      2.99      0.00
    8  -13    1     -0.54      0.00
    9  -13    1     -2.63      0.00
   10  -13    1      1.54      0.00
   -5  -12    1     -1.33      0.00
   -4  -12    1     -1.11      0.00
   -3  -12    1     -6.72      0.00
   -2  -12    1      0.76      0.00
   -1  -12    1     -1.18      0.00
    0  -12    1     -2.60      0.00
    1  -12    1     -0.30      0.00
    2  -12    1     -4.37      0.00
    3  -12    1     -4.24      0.00
    4  -12    1     -1.25      0.00
    5  -12    1     -2.95      0.00
    6  -12    1      1.58      0.00
    7  -12    1      2.00      0.00
    8  -12    1     -3.27      0.00
    9  -12    1      1.21      0.00
   10  -12    1     -0.94      0.00
   11  -12    1      1.13      0.00
   -6  -11    1     -0.59      0.00
   -5  -11    1     -4.24      0.00
   -4  -11    1     -1.41      0.00
   -3  -11    1     -2.09      0.00
   -2  -11    1     -8.08      0.00
   -1  -11    1      0.95      0.00
    0  -11    1      0.89      0.00
    1  -11    1    -11.76      0.00
    2  -11    1     -4.37      0.00
    3  -11    1     -1.05      0.00
    4  -11    1    -11.10      0.00
    5  -11    1      5.56      0.00
    6  -11    1      8.38      0.00
    7  -11    1     -9.20      0.00
    8  -11    1      2.48      0.00
    9  -11    1     -1.94      0.00
   10  -11    1     -3.73      0.00
   11  -11    1      1.87      0.00
   -7  -10    1      1.28      0.00
   -6  -10    1     -0.37      0.00
   -5  -10    1     -5.86      0.00
   -4  -10    1     -2.33      0.00
   -3  -10    1     -0.91      0.00
   -2  -10    1    -10.02      0.00
   -1  -10    1      0.62      0.00
    0  -10    1      3.24      0.00
    1  -10    1    -17.09      0.00
    2  -10    1     -4.75      0.00
    3  -10    1     -2.96      0.00
    4  -10    1     -0.65      0.00
    5  -10    1      5.96      0.00
    6  -10    1     -2.52      0.00
    7  -10    1     -3.17      0.00
    8  -10    1     -6.86      0.00
    9  -10    1     -4.32      0.00
   10  -10    1      2.80      0.00
   11  -10    1     -0.37      0.00
   -8   -9    1      0.62      0.00
   -7   -9    1     -1.93      0.00
   -6   -9    1      0.97      0.00
   -5   -9    1     -2.39      0.00
   -4   -9    1     -6.23      0.00
   -3   -9    1     -4.59      0.00
   -2   -9    1      4.72      0.00
   -1   -9    1     -2.51      0.00
    0   -9    1     -9.23      0.00
    1   -9    1      1.09      0.00
    2   -9    1    -14.20      0.00
    3   -9    1     -2.96      0.00
    4   -9    1      9.82      0.00
    5   -9    1     -3.97      0.00
    6   -9    1     -7.53      0.00
    7   -9    1     -4.76      0.00
    8   -9    1     -6.13      0.00
    9   -9    1      2.64      0.00
   10   -9    1      0.37      0.00
   11   -9    1     -1.90      0.00
   -8   -8    1      1.56      0.00
   -7   -8    1      0.94      0.00
   -6   -8    1     -4.50      0.00
   -5   -8    1      2.75      0.00
   -4   -8    1     -4.98      0.00
   -3   -8    1     -2.42      0.00
   -2   -8    1     10.73      0.00
   -1   -8    1     -0.68      0.00
    0   -8    1    -11.74      0.00
    1   -8    1     -2.13      0.00
    2   -8    1     -3.87      0.00
    3   -8    1     -8.22      0.00
    4   -8    1      9.28      0.00
    5   -8    1     -3.55      0.00
    6   -8    1    -12.85      0.00
    7   -8    1      1.08      0.00
    8   -8    1      4.82      0.00
    9   -8    1     -6.38      0.00
   10   -8    1      1.47      0.00
   11   -8    1     -0.87      0.00
   -9   -7    1      0.12      0.00
   -8   -7    1      2.65      0.00
   -7   -7    1      0.72      0.00
   -6   -7    1     -1.63      0.00
   -5   -7    1      2.04      0.00
   -4   -7    1      5.06      0.00
   -3   -7    1      0.29      0.00
   -2   -7    1      8.88      0.00
   -1   -7    1      5.66      0.00
    0   -7    1    -12.92      0.00
    1   -7    1    -10.53      0.00
    2   -7    1      0.39      0.00
    3   -7    1      7.79      0.00
    4   -7    1     -1.59      0.00
    5   -7    1     -3.19      0.00
    6   -7    1      7.89      0.00
    7   -7    1      0.95      0.00
    8   -7    1     -7.71      0.00
    9   -7    1      3.06      0.00
   10   -7    1     -1.30      0.00
   11   -7    1     -2.14      0.00
   -9   -6    1      2.66      0.00
   -8   -6    1      0.06      0.00
   -7   -6    1      3.88      0.00
   -6   -6    1      7.52      0.00
   -5   -6    1     -2.00      0.00
   -4   -6    1      3.67      0.00
   -3   -6    1     20.65      0.00
   -2   -6    1     -2.34      0.00
   -1   -6    1     -7.42      0.00
    0   -6    1      5.32      0.00
    1   -6    1    -19.08      0.00
    2   -6    1      9.99      0.00
    3   -6    1     26.96      0.00
    4   -6    1     -3.76      0.00
    5   -6    1     15.95      0.00
    6   -6    1      8.35      0.00
    7   -6    1    -18.92      0.00
    8   -6    1      0.92      0.00
    9   -6    1      4.91      0.00
   10   -6    1     -4.82      0.00
   11   -6    1      4.27      0.00
   -9   -5    1      4.43      0.00
   -8   -5    1      1.21      0.00
   -7   -5    1      5.78      0.00
   -6   -5    1      6.22      0.00
   -5   -5    1     -2.27      0.00
   -4   -5    1      9.97      0.00
   -3   -5    1     19.32      0.00
   -2   -5    1     -6.06      0.00
   -1   -5    1    -11.31      0.00
    0   -5    1      9.14      0.00
    1   -5    1      7.49      0.00
    2   -5    1     18.25      0.00
    3   -5    1     27.47      0.00
    4   -5    1     28.33      0.00
    5   -5    1     -3.28      0.00
    6   -5    1    -18.55      0.00
    7   -5    1      0.34      0.00
    8   -5    1      2.66      0.00
    9   -5    1      0.14      0.00
   10   -5    1      6.20      0.00
   11   -5    1      2.54      0.00
  -10   -4    1      2.86      0.00
   -9   -4    1      0.50      0.00
   -8   -4    1      6.44      0.00
   -7   -4    1      0.27      0.00
   -6   -4    1      0.08      0.00
   -5   -4    1     11.66      0.00
   -4   -4    1      9.13      0.00
   -3   -4    1     -4.83      0.00
   -2   -4    1     10.53      0.00
   -1   -4    1     12.33      0.00
    0   -4    1    -19.81      0.00
    1   -4    1     37.10      0.00
    2   -4    1     42.09      0.00
    3   -4    1     21.39      0.00
    4   -4    1      7.86      0.00
    5   -4    1     -8.31      0.00
    6   -4    1    -13.35      0.00
    7   -4    1      7.13      0.00
    8   -4    1      8.01      0.00
    9   -4    1      3.09      0.00
   10   -4    1      4.97      0.00
   11   -4    1      0.99      0.00
  -10   -3    1      0.24      0.00
   -9   -3    1     -1.25      0.00
   -8   -3    1      2.58      0.00
   -7   -3    1      4.84      0.00
   -6   -3    1     -4.95      0.00
   -5   -3    1     10.87      0.00
   -4   -3    1      7.20      0.00
   -3   -3    1     -9.80      0.00
   -2   -3    1     28.02      0.00
   -1   -3    1     -3.79      0.00
    0   -3    1    -15.89      0.00
    1   -3    1     45.50      0.00
    2   -3    1     54.43      0.00
    3   -3    1     -3.16      0.00
    4   -3    1      8.02      0.00
    5   -3    1     -4.57      0.00
    6   -3    1     -2.81      0.00
    7   -3    1      9.26      0.00
    8   -3    1      8.64      0.00
    9   -3    1      1.75      0.00
   10   -3    1      0.85      0.00
   11   -3    1     -0.88      0.00
  -10   -2    1     -3.29      0.00
   -9   -2    1     -0.68      0.00
   -8   -2    1      3.56      0.00
   -7   -2    1     -1.76      0.00
   -6   -2    1      1.88      0.00
   -5   -2    1     -3.04      0.00
   -4   -2    1      7.36      0.00
   -3   -2    1     26.09      0.00
   -2   -2    1    -25.45      0.00
   -1   -2    1    -16.45      0.00
    0   -2    1     19.98      0.00
    1   -2    1     26.65      0.00
    3   -2    1     36.77      0.00
    4   -2    1    -18.16      0.00
    5   -2    1     -4.41      0.00
    6   -2    1     10.67      0.00
    7   -2    1      4.16      0.00
    8   -2    1      1.34      0.00
    9   -2    1      3.25      0.00
   10   -2    1      1.06      0.00
   11   -2    1     -0.75      0.00
  -11   -1    1     -5.85      0.00
  -10   -1    1     -1.66      0.00
   -9   -1    1      5.94      0.00
   -8   -1    1     -4.86      0.00
   -7   -1    1     -3.41      0.00
   -6   -1    1      5.88      0.00
   -5   -1    1     -1.15      0.00
   -4   -1    1      6.01      0.00
   -3   -1    1      6.26      0.00
   -2   -1    1    -33.32      0.00
   -1   -1    1    -51.90      0.00
    0   -1    1     32.63      0.00
    1   -1    1     92.88      0.00
    2   -1    1     18.15      0.00
    3   -1    1      3.90      0.00
    4   -1    1     -6.57      0.00
    5   -1    1    -13.71      0.00
    6   -1    1      8.23      0.00
    7   -1    1      1.90      0.00
    8   -1    1     -0.02      0.00
    9   -1    1      6.41      0.00
   10   -1    1     -1.80      0.00
   11   -1    1     -1.45      0.00
  -11    0    1     -1.09      0.00
  -10    0    1     -0.78      0.00
   -9    0    1      0.38      0.00
   -8    0    1     -1.22      0.00
   -7    0    1     -4.94      0.00
   -6    0    1      5.05      0.00
   -5    0    1      3.99      0.00
   -4    0    1    -14.36      0.00
   -3    0    1    -19.02      0.00
   -2    0    1    -42.91      0.00
    0    0    1    143.25      0.00
    1    0    1     20.58      0.00
    2    0    1    -10.86      0.00
    3    0    1    -14.27      0.00
    4    0    1    -16.13      0.00
    5    0    1     -6.94      0.00
    6    0    1     -2.88      0.00
    7    0    1      6.59      0.00
    8    0    1      6.73      0.00
    9    0    1     -4.90      0.00
   10    0    1     -2.42      0.00
   11    0    1      2.23      0.00
  -11    1    1     -2.64      0.00
  -10    1    1      1.27      0.00
   -9    1    1     -1.86      0.00
   -8    1    1     -1.67      0.00
   -7    1    1      3.58      0.00
   -6    1    1    -10.62      0.00
   -5    1    1     -5.31      0.00
   -4    1    1     -2.08      0.00
   -3    1    1    -58.48      0.00
   -2    1    1    -37.98      0.00
   -1    1    1    148.59      0.00
    1    1    1     -1.35      0.00
    2    1    1      9.32      0.00
    3    1    1    -46.94      0.00
    4    1    1    -16.92      0.00
    5    1    1      4.80      0.00
    6    1    1     -1.48      0.00
    7    1    1      6.66      0.00
    8    1    1     -0.61      0.00
    9    1    1     -6.55      0.00
   10    1    1      2.89      0.00
  -11    2    1      1.52      0.00
  -10    2    1      3.90      0.00
   -9    2    1     -5.54      0.00
   -8    2    1     -1.54      0.00
   -7    2    1     -0.09      0.00
   -6    2    1    -15.79      0.00
   -5    2    1     -4.58      0.00
   -4    2    1    -18.22      0.00
   -3    2    1    -29.76      0.00
   -2    2    1     62.21      0.00
   -1    2    1    -33.86      0.00
    0    2    1    -16.99      0.00
    1    2    1     -0.81      0.00
    2    2    1    -24.16      0.00
    3    2    1    -21.53      0.00
    4    2    1    -12.02      0.00
    5    2    1      0.33      0.00
    6    2    1      6.47      0.00
    7    2    1     -3.46      0.00
    8    2    1     -4.72      0.00
    9    2    1      1.26      0.00
   10    2    1     -2.40      0.00
  -11    3    1      2.27      0.00
  -10    3    1     -3.59      0.00
   -9    3    1     -1.27      0.00
   -8    3    1     -5.45      0.00
   -7    3    1    -11.17      0.00
   -6    3    1      4.44      0.00
   -5    3    1    -19.90      0.00
   -4    3    1     -8.91      0.00
   -3    3    1     33.76      0.00
   -2    3    1    -54.48      0.00
   -1    3    1    -25.65      0.00
    0    3    1     31.78      0.00
    1    3    1    -17.91      0.00
    2    3    1    -30.54      0.00
    3    3    1     -3.23      0.00
    4    3    1     -7.98      0.00
    5    3    1     -4.96      0.00
    6    3    1      3.77      0.00
    7    3    1     -2.44      0.00
    8    3    1     -5.78      0.00
    9    3    1     -1.43      0.00
   10    3    1      0.11      0.00
  -12    4    1      1.04      0.00
  -11    4    1     -1.82      0.00
  -10    4    1     -5.16      0.00
   -9    4    1      1.18      0.00
   -8    4    1     -4.73      0.00
   -7    4    1     -6.94      0.00
   -6    4    1     -1.66      0.00
   -5    4    1      9.15      0.00
   -4    4    1    -10.19      0.00
   -3    4    1    -28.07      0.00
   -2    4    1     -2.43      0.00
   -1    4    1     -4.19      0.00
    0    4    1     14.77      0.00
    1    4    1      1.66      0.00
    2    4    1    -27.65      0.00
    3    4    1     -9.44      0.00
    4    4    1      0.90      0.00
    5    4    1     -2.89      0.00
    6    4    1      0.36      0.00
    7    4    1     -3.22      0.00
    8    4    1     -5.00      0.00
    9    4    1     -1.25      0.00
  -12    5    1      0.40      0.00
  -11    5    1     -1.93      0.00
  -10    5    1      2.33      0.00
   -9    5    1     -1.94      0.00
   -8    5    1     -1.04      0.00
   -7    5    1     -2.97      0.00
   -6    5    1      7.03      0.00
   -5    5    1     -0.10      0.00
   -4    5    1    -16.08      0.00
   -3    5    1    -11.85      0.00
   -2    5    1     14.43      0.00
   -1    5    1     22.75      0.00
    0    5    1      4.21      0.00
    1    5    1    -15.96      0.00
    2    5    1     -3.42      0.00
    3    5    1    -11.64      0.00
    4    5    1     -0.61      0.00
    5    5    1      8.32      0.00
    6    5    1     -6.50      0.00
    7    5    1     -4.93      0.00
    8    5    1      0.99      0.00
    9    5    1     -0.95      0.00
  -12    6    1     -0.73      0.00
  -11    6    1      3.21      0.00
  -10    6    1      2.42      0.00
   -9    6    1     -2.36      0.00
   -8    6    1     -3.19      0.00
   -7    6    1     11.59      0.00
   -6    6    1     -7.77      0.00
   -5    6    1     -3.67      0.00
   -4    6    1     11.72      0.00
   -3    6    1     -1.13      0.00
   -2    6    1     10.68      0.00
   -1    6    1     38.26      0.00
    0    6    1    -19.25      0.00
    1    6    1    -14.01      0.00
    2    6    1      5.74      0.00
    3    6    1     -3.11      0.00
    4    6    1      1.05      0.00
    5    6    1      4.78      0.00
    6    6    1     -2.40      0.00
    7    6    1     -1.85      0.00
    8    6    1      2.33      0.00
    9    6    1     -0.37      0.00
  -12    7    1      2.60      0.00
  -11    7    1     -0.73      0.00
  -10    7    1      4.72      0.00
   -9    7    1     -3.02      0.00
   -8    7    1     -0.50      0.00
   -7    7    1      1.77      0.00
   -6    7    1      7.27      0.00
   -5    7    1     -0.51      0.00
   -4    7    1      6.58      0.00
   -3    7    1     14.69      0.00
   -2    7    1     17.53      0.00
   -1    7    1     -3.38      0.00
    0    7    1     -0.99      0.00
    1    7    1     -2.00      0.00
    2    7    1     -1.98      0.00
    3    7    1      6.87      0.00
    4    7    1      5.55      0.00
    5    7    1      0.14      0.00
    6    7    1      3.29      0.00
    7    7    1      1.28      0.00
    8    7    1     -1.63      0.00
  -12    8    1     -0.13      0.00
  -11    8    1      5.04      0.00
  -10    8    1     -4.16      0.00
   -9    8    1     -2.46      0.00
   -8    8    1      4.30      0.00
   -7    8    1      3.76      0.00
   -6    8    1      5.56      0.00
   -5    8    1      5.25      0.00
   -4    8    1      1.82      0.00
   -3    8    1     18.69      0.00
   -2    8    1      8.03      0.00
   -1    8    1    -11.37      0.00
    0    8    1      7.58      0.00
    1    8    1      7.94      0.00
    2    8    1     -7.63      0.00
    3    8    1     10.27      0.00
    4    8    1     11.16      0.00
    5    8    1     -1.43      0.00
    6    8    1      1.03      0.00
    7    8    1      1.61      0.00
    8    8    1     -0.69      0.00
  -12    9    1      2.25      0.00
  -11    9    1      0.47      0.00
  -10    9    1     -7.62      0.00
   -9    9    1      5.92      0.00
   -8    9    1      9.23      0.00
   -7    9    1     -3.89      0.00
   -6    9    1      3.56      0.00
   -5    9    1     12.77      0.00
   -4    9    1     -2.68      0.00
   -3    9    1      5.95      0.00
   -2    9    1      7.54      0.00
   -1    9    1      1.27      0.00
    0    9    1      3.26      0.00
    1    9    1     -0.10      0.00
    2    9    1      7.02      0.00
    3    9    1      7.06      0.00
    4    9    1      5.46      0.00
    5    9    1      1.37      0.00
    6    9    1      0.27      0.00
    7    9    1     -0.50      0.00
  -11   10    1     -3.90      0.00
  -10   10    1      5.93      0.00
   -9   10    1      3.55      0.00
   -8   10    1     -5.13      0.00
   -7   10    1      5.48      0.00
   -6   10    1      3.20      0.00
   -5   10    1     -5.12      0.00
   -4   10    1     10.42      0.00
   -3   10    1      0.59      0.00
   -2   10    1      2.95      0.00
   -1   10    1     10.86      0.00
    0   10    1     -7.10      0.00
    1   10    1      0.54      0.00
    2   10    1     12.50      0.00
    3   10    1      2.90      0.00
    4   10    1     -0.52      0.00
    5   10    1      6.15      0.00
    6   10    1     -2.36      0.00
  -11   11    1      1.20      0.00
  -10   11    1      0.23      0.00
   -9   11    1     -5.04      0.00
   -8   11    1     -0.22      0.00
   -7   11    1      5.22      0.00
   -6   11    1     -3.90      0.00
   -5   11    1     -0.44      0.00
   -4   11    1      7.63      0.00
   -3   11    1      5.23      0.00
   -2   11    1     -3.42      0.00
   -1   11    1      1.22      0.00
    0   11    1     -0.01      0.00
    1   11    1     -1.34      0.00
    2   11    1      6.34      0.00
    3   11    1      5.48      0.00
    4   11    1      0.65      0.00
    5   11    1     -1.14      0.00
    6   11    1      2.15      0.00
  -11   12    1     -3.98      0.00
  -10   12    1     -3.45      0.00
   -9   12    1      1.78      0.00
   -8   12    1     -0.19      0.00
   -7   12    1     -1.05      0.00
   -6   12    1      1.10      0.00
   -5   12    1      0.39      0.00
   -4   12    1      1.98      0.00
   -3   12    1      1.40      0.00
   -2   12    1     -2.24      0.00
   -1   12    1     -5.63      0.00
    0   12    1      0.70      0.00
    1   12    1      3.68      0.00
    2   12    1      1.55      0.00
    3   12    1      2.82      0.00
    4   12    1      0.89      0.00
    5   12    1     -1.10      0.00
  -11   13    1     -1.89      0.00
  -10   13    1      0.00      0.00
   -9   13    1     -1.36      0.00
   -8   13    1      3.89      0.00
   -7   13    1     -5.51      0.00
   -6   13    1     -1.50      0.00
   -5   13    1      6.91      0.00
   -4   13    1     -5.62      0.00
   -3   13    1     -2.79      0.00
   -2   13    1      3.30      0.00
   -1   13    1     -6.59      0.00
    0   13    1     -1.88      0.00
    1   13    1      7.89      0.00
    2   13    1     -4.13      0.00
    3   13    1      0.62      0.00
    4   13    1      0.91      0.00
  -10   14    1     -1.88      0.00
   -9   14    1      2.23      0.00
   -8   14    1     -0.82      0.00
   -7   14    1     -5.12      0.00
   -6   14    1      1.33      0.00
   -5   14    1      1.13      0.00
   -4   14    1     -1.29      0.00
   -3   14    1     -2.62      0.00
   -2   14    1     -0.22      0.00
   -1   14    1     -2.80      0.00
    0   14    1     -0.62      0.00
    1   14    1     -2.16      0.00
    2   14    1      2.91      0.00
    3   14    1     -2.97      0.00
  -10   15    1      1.11      0.00
   -9   15    1     -0.89      0.00
   -8   15    1     -5.37      0.00
   -7   15    1      2.09      0.00
   -6   15    1      0.37      0.00
   -5   15    1     -2.73      0.00
   -4   15    1      2.40      0.00
   -3   15    1      0.12      0.00
   -2   15    1     -7.20      0.00
   -1   15    1      0.71      0.00
    0   15    1     -0.76      0.00
    1   15    1     -3.54      0.00
    2   15    1      1.49      0.00
   -9   16    1     -2.21      0.00
   -8   16    1     -1.27      0.00
   -7   16    1      1.33      0.00
   -6   16    1      2.00      0.00
   -5   16    1     -2.85      0.00
   -4   16    1      1.35      0.00
   -3   16    1     -1.33      0.00
   -2   16    1     -5.38      0.00
   -1   16    1     -1.14      0.00
    0   16    1      0.05      0.00
    1   16    1     -2.03      0.00
   -8   17    1     -0.59      0.00
   -7   17    1      0.23      0.00
   -6   17    1      0.11      0.00
   -5   17    1      2.20      0.00
   -4   17    1     -4.11      0.00
   -3   17    1     -4.02      0.00
   -2   17    1      1.49      0.00
   -1   17    1     -1.46      0.00
    0   17    1     -3.08      0.00
   -7   18    1     -0.57      0.00
   -6   18    1     -0.56      0.00
   -5   18    1      1.44      0.00
   -4   18    1     -2.85      0.00
   -1   18    1     -1.12      0.00
    4  -19    2      2.18      0.00
    0  -18    2     -0.90      0.00
    1  -18    2      2.86      0.00
    3  -18    2      1.32      0.00
    4  -18    2      3.48      0.00
    5  -18    2      1.14      0.00
    6  -18    2     -0.93      0.00
    7  -18    2      0.20      0.00
   -1  -17    2      0.22      0.00
    0  -17    2      0.91      0.00
    1  -17    2     -4.37      0.00
    3  -17    2      2.72      0.00
    4  -17    2     -2.68      0.00
    5  -17    2      0.61      0.00
    6  -17    2     -0.22      0.00
    7  -17    2     -0.47      0.00
    8  -17    2      1.76      0.00
   -2  -16    2     -3.50      0.00
   -1  -16    2      0.52      0.00
    0  -16    2     -1.17      0.00
    1  -16    2     -2.67      0.00
    2  -16    2      2.50      0.00
    3  -16    2     -0.10      0.00
    4  -16    2     -4.02      0.00
    5  -16    2     -0.29      0.00
    6  -16    2      1.65      0.00
    7  -16    2      1.76      0.00
    8  -16    2     -0.43      0.00
    9  -16    2      0.09      0.00
   -3  -15    2     -1.13      0.00
   -2  -15    2     -1.09      0.00
   -1  -15    2     -3.14      0.00
    0  -15    2     -0.91      0.00
    1  -15    2      0.29      0.00
    2  -15    2     -3.05      0.00
    3  -15    2     -2.09      0.00
    4  -15    2      1.44      0.00
    5  -15    2     -2.57      0.00
    6  -15    2      2.40      0.00
    7  -15    2      2.35      0.00
    8  -15    2     -0.29      0.00
    9  -15    2     -2.23      0.00
   -4  -14    2     -3.21      0.00
   -3  -14    2     -3.03      0.00
   -2  -14    2      2.83      0.00
   -1  -14    2     -3.86      0.00
    0  -14    2     -6.06      0.00
    1  -14    2      5.32      0.00
    2  -14    2     -5.31      0.00
    3  -14    2     -3.53      0.00
    4  -14    2      2.50      0.00
    5  -14    2      1.60      0.00
    6  -14    2     -2.23      0.00
    7  -14    2      2.39      0.00
    8  -14    2     -3.43      0.00
    9  -14    2     -0.87      0.00
   10  -14    2     -0.83      0.00
   -5  -13    2      0.61      0.00
   -4  -13    2     -0.66      0.00
   -3  -13    2     -2.09      0.00
   -2  -13    2     -1.62      0.00
   -1  -13    2     -2.59      0.00
    0  -13    2     -1.64      0.00
    1  -13    2     -1.74      0.00
    2  -13    2     -0.16      0.00
    3  -13    2     -2.27      0.00
    4  -13    2      0.65      0.00
    5  -13    2     -0.32      0.00
    6  -13    2     -2.02      0.00
    7  -13    2     -2.75      0.00
    8  -13    2      0.92      0.00
    9  -13    2     -1.51      0.00
   10  -13    2     -2.54      0.00
   -5  -12    2     -4.47      0.00
   -4  -12    2      4.04      0.00
   -3  -12    2     -0.56      0.00
   -2  -12    2     -7.05      0.00
   -1  -12    2      1.37      0.00
    0  -12    2      4.53      0.00
    1  -12    2     -8.26      0.00
    2  -12    2      2.47      0.00
    3  -12    2      3.61      0.00
    4  -12    2    -10.09      0.00
    5  -12    2     -2.89      0.00
    6  -12    2      4.24      0.00
    7  -12    2     -1.93      0.00
    8  -12    2     -0.88      0.00
    9  -12    2      0.16      0.00
   10  -12    2     -1.27      0.00
   11  -12    2      2.32      0.00
   -6  -11    2      1.69      0.00
   -5  -11    2      0.25      0.00
   -4  -11    2     -1.04      0.00
   -3  -11    2      3.83      0.00
   -2  -11    2     -4.02      0.00
   -1  -11    2      0.93      0.00
    0  -11    2      4.36      0.00
    1  -11    2     -0.95      0.00
    2  -11    2     -1.69      0.00
    3  -11    2     -3.87      0.00
    4  -11    2     -6.38      0.00
    5  -11    2      1.96      0.00
    6  -11    2      8.22      0.00
    7  -11    2     -1.02      0.00
    8  -11    2      1.62      0.00
    9  -11    2     -1.44      0.00
   10  -11    2      1.10      0.00
   11  -11    2     -1.06      0.00
   -7  -10    2      1.11      0.00
   -6  -10    2      1.34      0.00
   -5  -10    2      3.73      0.00
   -4  -10    2      0.34      0.00
   -3  -10    2     -1.17      0.00
   -2  -10    2      6.42      0.00
   -1  -10    2      0.46      0.00
    0  -10    2      2.01      0.00
    1  -10    2      7.32      0.00
    2  -10    2     -5.66      0.00
    3  -10    2    -11.16      0.00
    4  -10    2     10.98      0.00
    5  -10    2     11.61      0.00
    6  -10    2     -3.09      0.00
    7  -10    2      8.59      0.00
    8  -10    2     -2.55      0.00
    9  -10    2     -5.56      0.00
   10  -10    2      2.70      0.00
   11  -10    2     -1.46      0.00
   -8   -9    2      2.85      0.00
   -7   -9    2      1.00      0.00
   -6   -9    2     -0.86      0.00
   -5   -9    2      9.17      0.00
   -4   -9    2      0.86      0.00
   -3   -9    2     -4.17      0.00
   -2   -9    2     11.87      0.00
   -1   -9    2      9.18      0.00
    0   -9    2     -5.53      0.00
    1   -9    2     11.32      0.00
    2   -9    2     -6.01      0.00
    3   -9    2     -0.01      0.00
    5   -9    2      4.62      0.00
    6   -9    2      3.58      0.00
    7   -9    2      1.00      0.00
    8   -9    2     -5.15      0.00
    9   -9    2      2.70      0.00
   10   -9    2     -0.24      0.00
   11   -9    2      1.41      0.00
   -8   -8    2      1.32      0.00
   -7   -8    2      2.41      0.00
   -6   -8    2      4.37      0.00
   -5   -8    2      1.55      0.00
   -4   -8    2      2.68      0.00
   -3   -8    2      6.56      0.00
   -2   -8    2      4.40      0.00
   -1   -8    2      7.56      0.00
    0   -8    2     12.77      0.00
    1   -8    2    -11.17      0.00
    2   -8    2      8.83      0.00
    3   -8    2     15.80      0.00
    4   -8    2     -1.16      0.00
    5   -8    2     10.68      0.00
    6   -8    2      5.57      0.00
    7   -8    2     -6.04      0.00
    8   -8    2      5.45      0.00
    9   -8    2      1.55      0.00
   10   -8    2     -0.29      0.00
   11   -8    2      3.69      0.00
   -9   -7    2      2.14      0.00
   -8   -7    2     -1.39      0.00
   -7   -7    2      2.61      0.00
   -6   -7    2      6.87      0.00
   -5   -7    2     -3.72      0.00
   -4   -7    2      6.47      0.00
   -3   -7    2     11.35      0.00
   -2   -7    2     -3.14      0.00
   -1   -7    2     10.68      0.00
    0   -7    2     11.47      0.00
    1   -7    2     -6.80      0.00
    2   -7    2      4.27      0.00
    3   -7    2     13.21      0.00
    4   -7    2      4.63      0.00
    5   -7    2      2.89      0.00
    6   -7    2     12.04      0.00
    7   -7    2      4.04      0.00
    8   -7    2     -5.61      0.00
    9   -7    2      4.66      0.00
   10   -7    2      1.54      0.00
   11   -7    2      2.25      0.00
   -9   -6    2      0.82      0.00
   -8   -6    2     -1.90      0.00
   -7   -6    2      1.54      0.00
   -6   -6    2      6.77      0.00
   -5   -6    2      3.14      0.00
   -4   -6    2     -3.59      0.00
   -3   -6    2      8.31      0.00
   -2   -6    2      9.07      0.00
   -1   -6    2     -3.51      0.00
    0   -6    2      2.85      0.00
    1   -6    2      0.51      0.00
    2   -6    2     -3.69      0.00
    3   -6    2      6.93      0.00
    4   -6    2     13.02      0.00
    5   -6    2     19.41      0.00
    6   -6    2      8.21      0.00
    7   -6    2    -11.85      0.00
    8   -6    2      1.10      0.00
    9   -6    2      0.38      0.00
   10   -6    2      2.01      0.00
   11   -6    2      3.76      0.00
  -10   -5    2      0.18      0.00
   -9   -5    2     -3.57      0.00
   -8   -5    2      1.75      0.00
   -7   -5    2      5.16      0.00
   -6   -5    2     -2.05      0.00
   -5   -5    2      1.60      0.00
   -4   -5    2      2.05      0.00
   -3   -5    2     -8.12      0.00
   -2   -5    2      8.99      0.00
   -1   -5    2      3.60      0.00
    0   -5    2    -29.36      0.00
    1   -5    2      7.98      0.00
    2   -5    2      6.16      0.00
    4   -5    2     40.24      0.00
    5   -5    2     15.00      0.00
    6   -5    2    -30.13      0.00
    7   -5    2      0.39      0.00
    8   -5    2      1.75      0.00
    9   -5    2     -3.13      0.00
   10   -5    2      7.28      0.00
   11   -5    2      1.23      0.00
  -10   -4    2     -1.13      0.00
   -9   -4    2     -5.32      0.00
   -8   -4    2      5.72      0.00
   -7   -4    2      0.59      0.00
   -6   -4    2     -8.52      0.00
   -5   -4    2      3.54      0.00
   -4   -4    2     -0.90      0.00
   -3   -4    2    -18.49      0.00
   -2   -4    2      3.31      0.00
   -1   -4    2     -0.11      0.00
    0   -4    2    -31.27      0.00
    1   -4    2     -6.47      0.00
    2   -4    2     19.66      0.00
    3   -4    2     33.58      0.00
    4   -4    2      3.76      0.00
    5   -4    2    -20.30      0.00
    6   -4    2     -6.92      0.00
    7   -4    2     -5.78      0.00
    8   -4    2      1.23      0.00
    9   -4    2      6.69      0.00
   10   -4    2      3.16      0.00
   11   -4    2     -1.12      0.00
  -10   -3    2     -4.03      0.00
   -9   -3    2      1.20      0.00
   -8   -3    2     -3.04      0.00
   -7   -3    2     -1.90      0.00
   -6   -3    2      2.29      0.00
   -5   -3    2    -12.71      0.00
   -4   -3    2    -16.30      0.00
   -3   -3    2      5.65      0.00
   -2   -3    2     -7.66      0.00
   -1   -3    2    -36.96      0.00
    0   -3    2      0.83      0.00
    1   -3    2    -12.00      0.00
    2   -3    2     27.28      0.00
    3   -3    2     11.35      0.00
    4   -3    2    -23.22      0.00
    5   -3    2    -12.03      0.00
    6   -3    2     -3.08      0.00
    7   -3    2     -4.93      0.00
    8   -3    2      3.58      0.00
    9   -3    2      6.30      0.00
   10   -3    2     -2.80      0.00
   11   -3    2     -1.88      0.00
  -11   -2    2     -2.16      0.00
  -10   -2    2     -3.75      0.00
   -9   -2    2      0.29      0.00
   -8   -2    2     -2.01      0.00
   -7   -2    2     -4.36      0.00
   -6   -2    2      1.73      0.00
   -5   -2    2    -21.89      0.00
   -4   -2    2    -15.99      0.00
   -3   -2    2     26.48      0.00
   -2   -2    2    -31.75      0.00
   -1   -2    2    -39.87      0.00
    0   -2    2      4.05      0.00
    1   -2    2      5.55      0.00
    2   -2    2    -20.93      0.00
    3   -2    2      7.60      0.00
    4   -2    2     -8.60      0.00
    5   -2    2    -17.45      0.00
    6   -2    2     -5.64      0.00
    7   -2    2      1.60      0.00
    8   -2    2     -0.53      0.00
    9   -2    2     -1.24      0.00
   10   -2    2     -1.31      0.00
   11   -2    2     -1.89      0.00
  -11   -1    2     -3.23      0.00
  -10   -1    2     -3.39      0.00
   -9   -1    2      2.39      0.00
   -8   -1    2     -1.30      0.00
   -7   -1    2     -1.76      0.00
   -6   -1    2    -12.96      0.00
   -5   -1    2     -3.60      0.00
   -4   -1    2      8.07      0.00
   -3   -1    2    -18.86      0.00
   -2   -1    2    -10.29      0.00
   -1   -1    2    -28.37      0.00
    0   -1    2    -36.48      0.00
    1   -1    2      3.41      0.00
    2   -1    2     20.80      0.00
    3   -1    2    -20.95      0.00
    4   -1    2     -1.44      0.00
    5   -1    2    -12.33      0.00
    6   -1    2    -12.44      0.00
    7   -1    2     -1.28      0.00
    8   -1    2      0.45      0.00
    9   -1    2     -2.27      0.00
   10   -1    2     -2.61      0.00
   11   -1    2     -1.55      0.00
  -11    0    2     -1.16      0.00
  -10    0    2      3.34      0.00
   -9    0    2     -3.60      0.00
   -8    0    2      2.98      0.00
   -7    0    2     -0.21      0.00
   -6    0    2    -10.13      0.00
   -5    0    2      8.28      0.00
   -4    0    2      3.86      0.00
   -3    0    2    -28.24      0.00
   -2    0    2    -21.92      0.00
   -1    0    2    -19.44      0.00
    1    0    2     24.26      0.00
    2    0    2     10.18      0.00
    3    0    2     -9.96      0.00
    4    0    2    -17.79      0.00
    5    0    2     -8.98      0.00
    6    0    2    -14.20      0.00
    7    0    2      0.49      0.00
    8    0    2      4.43      0.00
    9    0    2     -5.35      0.00
   10    0    2     -4.19      0.00
  -11    1    2      0.28      0.00
  -10    1    2      1.73      0.00
   -9    1    2      0.65      0.00
   -8    1    2      1.68      0.00
   -7    1    2      5.21      0.00
   -6    1    2     -1.06      0.00
   -5    1    2     -9.96      0.00
   -4    1    2      3.60      0.00
   -3    1    2    -14.27      0.00
   -2    1    2    -36.98      0.00
   -1    1    2     51.15      0.00
    0    1    2     -0.34      0.00
    1    1    2     -1.42      0.00
    2    1    2     14.19      0.00
    3    1    2     -6.91      0.00
    4    1    2    -22.50      0.00
    5    1    2    -14.13      0.00
    6    1    2      4.11      0.00
    7    1    2      3.76      0.00
    8    1    2     -3.40      0.00
    9    1    2     -2.35      0.00
   10    1    2     -1.00      0.00
  -11    2    2      1.69      0.00
  -10    2    2      1.88      0.00
   -9    2    2      6.44      0.00
   -8    2    2      3.86      0.00
   -7    2    2     -3.69      0.00
   -6    2    2     -2.51      0.00
   -5    2    2     -0.62      0.00
   -4    2    2    -17.20      0.00
   -3    2    2     12.66      0.00
   -2    2    2     56.55      0.00
   -1    2    2    -48.92      0.00
    0    2    2     33.95      0.00
    1    2    2     27.41      0.00
    2    2    2    -19.57      0.00
    3    2    2      0.56      0.00
    4    2    2     -9.21      0.00
    5    2    2     -8.17      0.00
    6    2    2     11.83      0.00
    7    2    2      1.76      0.00
    8    2    2     -4.30      0.00
    9    2    2      3.11      0.00
   10    2    2     -1.27      0.00
  -12    3    2      2.58      0.00
  -11    3    2      3.08      0.00
  -10    3    2     -0.05      0.00
   -9    3    2      7.56      0.00
   -8    3    2      0.93      0.00
   -7    3    2    -15.01      0.00
   -6    3    2      6.02      0.00
   -5    3    2     -1.39      0.00
   -4    3    2      2.65      0.00
   -3    3    2     60.48      0.00
   -2    3    2    -26.65      0.00
   -1    3    2     -2.32      0.00
    0    3    2     42.28      0.00
    1    3    2     10.42      0.00
    2    3    2     -3.62      0.00
    3    3    2     -4.33      0.00
    4    3    2     -0.25      0.00
    5    3    2      6.53      0.00
    6    3    2      3.39      0.00
    7    3    2      2.74      0.00
    8    3    2      4.26      0.00
    9    3    2     -2.33      0.00
  -12    4    2      2.18      0.00
  -11    4    2     -1.28      0.00
  -10    4    2      4.55      0.00
   -9    4    2      0.56      0.00
   -8    4    2     -5.30      0.00
   -7    4    2      2.25      0.00
   -6    4    2     -8.99      0.00
   -5    4    2     19.11      0.00
   -4    4    2     51.26      0.00
   -3    4    2    -38.67      0.00
   -2    4    2      8.49      0.00
   -1    4    2     46.26      0.00
    0    4    2     -2.02      0.00
    1    4    2      9.36      0.00
    2    4    2     17.82      0.00
    3    4    2    -11.30      0.00
    4    4    2      3.03      0.00
    5    4    2     12.18      0.00
    6    4    2      2.28      0.00
    7    4    2      4.51      0.00
    8    4    2      2.40      0.00
    9    4    2     -2.87      0.00
  -12    5    2     -2.04      0.00
  -11    5    2      1.20      0.00
  -10    5    2      7.57      0.00
   -9    5    2     -2.92      0.00
   -8    5    2     -1.96      0.00
   -7    5    2      1.15      0.00
   -6    5    2     10.87      0.00
   -5    5    2     21.89      0.00
   -4    5    2     -4.87      0.00
   -3    5    2     -2.01      0.00
   -2    5    2     12.82      0.00
   -1    5    2     27.91      0.00
    0    5    2      9.61      0.00
    1    5    2      4.20      0.00
    2    5    2      7.42      0.00
    3    5    2      0.88      0.00
    4    5    2      0.70      0.00
    5    5    2     10.89      0.00
    6    5    2      6.29      0.00
    7    5    2      0.13      0.00
    8    5    2     -0.38      0.00
    9    5    2      0.90      0.00
  -12    6    2      0.21      0.00
  -11    6    2      4.84      0.00
  -10    6    2      2.30      0.00
   -9    6    2      0.48      0.00
   -8    6    2     -5.08      0.00
   -7    6    2      9.22      0.00
   -6    6    2      9.09      0.00
   -5    6    2     -9.85      0.00
   -4    6    2      3.15      0.00
   -3    6    2     16.06      0.00
   -2    6    2      7.93      0.00
   -1    6    2     10.76      0.00
    0    6    2     12.59      0.00
    1    6    2      4.34      0.00
    2    6    2     -7.14      0.00
    3    6    2      4.69      0.00
    4    6    2      9.74      0.00
    5    6    2      0.71      0.00
    6    6    2      5.79      0.00
    7    6    2      2.03      0.00
    8    6    2     -0.42      0.00
  -12    7    2      2.26      0.00
  -11    7    2      2.89      0.00
  -10    7    2     -1.07      0.00
   -9    7    2     -2.17      0.00
   -8    7    2      4.43      0.00
   -7    7    2     -9.52      0.00
   -6    7    2      0.98      0.00
   -5    7    2      9.57      0.00
   -4    7    2     -6.99      0.00
   -3    7    2     10.62      0.00
   -2    7    2     19.57      0.00
   -1    7    2    -14.20      0.00
    0    7    2      8.72      0.00
    1    7    2      5.25      0.00
    2    7    2    -10.32      0.00
    3    7    2      4.67      0.00
    4    7    2      7.53      0.00
    5    7    2      2.05      0.00
    6    7    2      3.57      0.00
    7    7    2      2.80      0.00
    8    7    2     -2.77      0.00
  -12    8    2     -0.44      0.00
  -11    8    2      3.80      0.00
  -10    8    2     -5.31      0.00
   -9    8    2     -2.30      0.00
   -8    8    2     -5.28      0.00
   -7    8    2     -2.62      0.00
   -6    8    2      2.61      0.00
   -5    8    2      4.35      0.00
   -4    8    2      0.63      0.00
   -3    8    2      2.95      0.00
   -2    8    2     -5.69      0.00
   -1    8    2      3.06      0.00
    0    8    2     -2.91      0.00
    1    8    2     -2.79      0.00
    2    8    2     -0.56      0.00
    3    8    2     -1.21      0.00
    4    8    2      4.72      0.00
    5    8    2      6.99      0.00
    6    8    2     -0.60      0.00
    7    8    2     -4.70      0.00
  -12    9    2      1.66      0.00
  -11    9    2     -3.89      0.00
  -10    9    2     -2.81      0.00
   -9    9    2     -4.87      0.00
   -8    9    2     -2.39      0.00
   -7    9    2      4.08      0.00
   -6    9    2     -0.64      0.00
   -5    9    2     -0.10      0.00
   -4    9    2      3.10      0.00
   -3    9    2    -14.65      0.00
   -2    9    2     -6.57      0.00
   -1    9    2      9.51      0.00
    0    9    2     -4.20      0.00
    1    9    2    -13.55      0.00
    2    9    2      4.72      0.00
    3    9    2      1.88      0.00
    4    9    2     -1.26      0.00
    5    9    2      3.90      0.00
    6    9    2     -4.29      0.00
    7    9    2     -2.58      0.00
  -12   10    2     -0.44      0.00
  -11   10    2     -5.08      0.00
  -10   10    2      1.25      0.00
   -9   10    2     -0.78      0.00
   -8   10    2     -6.30      0.00
   -7   10    2      4.86      0.00
   -6   10    2      2.29      0.00
   -5   10    2    -13.94      0.00
   -4   10    2     -4.02      0.00
   -3   10    2     -3.46      0.00
   -2   10    2     -3.19      0.00
   -1   10    2      3.89      0.00
    0   10    2     -8.39      0.00
    1   10    2     -6.37      0.00
    2   10    2     -0.63      0.00
    3   10    2      0.73      0.00
    4   10    2     -1.03      0.00
    5   10    2     -2.42      0.00
    6   10    2     -2.09      0.00
  -11   11    2      1.94      0.00
  -10   11    2     -3.91      0.00
   -9   11    2     -6.56      0.00
   -8   11    2      2.59      0.00
   -7   11    2     -1.64      0.00
   -6   11    2     -8.61      0.00
   -5   11    2     -0.82      0.00
   -4   11    2     -7.94      0.00
   -3   11    2      2.91      0.00
   -2   11    2      5.59      0.00
   -1   11    2    -13.25      0.00
    0   11    2     -3.08      0.00
    1   11    2     -0.34      0.00
    2   11    2     -8.44      0.00
    3   11    2      0.57      0.00
    4   11    2      2.82      0.00
    5   11    2     -5.71      0.00
  -11   12    2     -3.43      0.00
  -10   12    2     -6.25      0.00
   -9   12    2     -0.13      0.00
   -8   12    2      2.99      0.00
   -7   12    2     -9.63      0.00
   -6   12    2     -0.24      0.00
   -5   12    2      2.36      0.00
   -4   12    2     -3.19      0.00
   -3   12    2      0.05      0.00
   -2   12    2      0.33      0.00
   -1   12    2     -6.79      0.00
    0   12    2     -5.53      0.00
    1   12    2     -1.30      0.00
    2   12    2     -1.68      0.00
    3   12    2     -1.65      0.00
    4   12    2     -0.16      0.00
  -11   13    2     -2.31      0.00
  -10   13    2     -0.23      0.00
   -9   13    2     -0.57      0.00
   -8   13    2     -2.64      0.00
   -7   13    2     -0.20      0.00
   -6   13    2     -1.32      0.00
   -5   13    2      1.50      0.00
   -4   13    2      1.02      0.00
   -3   13    2     -3.23      0.00
   -2   13    2     -1.56      0.00
   -1   13    2      0.88      0.00
    0   13    2     -5.67      0.00
    1   13    2     -1.26      0.00
    2   13    2      0.11      0.00
    3   13    2     -0.71      0.00
    4   13    2     -0.63      0.00
  -10   14    2     -1.83      0.00
   -9   14    2     -0.12      0.00
   -8   14    2     -1.71      0.00
   -7   14    2      1.71      0.00
   -6   14    2      2.21      0.00
   -5   14    2     -4.79      0.00
   -4   14    2      3.90      0.00
   -3   14    2      2.28      0.00
   -2   14    2     -3.70      0.00
   -1   14    2      0.16      0.00
    0   14    2      1.85      0.00
    1   14    2     -7.45      0.00
    2   14    2      3.27      0.00
    3   14    2      2.02      0.00
  -10   15    2     -0.11      0.00
   -9   15    2      1.20      0.00
   -8   15    2     -2.97      0.00
   -7   15    2      2.39      0.00
   -6   15    2      1.00      0.00
   -5   15    2     -1.17      0.00
   -4   15    2      2.21      0.00
   -3   15    2      3.34      0.00
   -2   15    2     -1.16      0.00
   -1   15    2     -0.66      0.00
    0   15    2     -1.26      0.00
    1   15    2      0.79      0.00
    2   15    2      0.84      0.00
   -9   16    2     -2.55      0.00
   -8   16    2      1.62      0.00
   -7   16    2     -0.32      0.00
   -6   16    2     -1.12      0.00
   -5   16    2      4.94      0.00
   -4   16    2      0.86      0.00
   -3   16    2     -0.12      0.00
   -2   16    2      2.84      0.00
   -1   16    2     -2.10      0.00
    0   16    2     -0.79      0.00
    1   16    2      3.89      0.00
   -8   17    2      1.21      0.00
   -7   17    2     -1.87      0.00
   -6   17    2     -0.87      0.00
   -5   17    2      6.80      0.00
   -4   17    2      0.22      0.00
   -3   17    2     -2.41      0.00
   -2   17    2      0.95      0.00
   -1   17    2      1.90      0.00
    0   17    2     -0.25      0.00
   -7   18    2     -0.85      0.00
   -6   18    2      3.04      0.00
   -5   18    2     -0.41      0.00
   -4   18    2      0.01      0.00
   -2   18    2     -0.27      0.00
    4  -19    3     -1.19      0.00
    0  -18    3     -1.73      0.00
    3  -18    3     -0.59      0.00
    4  -18    3     -1.38      0.00
    5  -18    3      1.75      0.00
    6  -18    3     -1.53      0.00
    7  -18    3      0.51      0.00
   -1  -17    3     -0.92      0.00
    0  -17    3      1.15      0.00
    1  -17    3     -4.88      0.00
    3  -17    3      2.17      0.00
    4  -17    3     -1.25      0.00
    5  -17    3     -1.42      0.00
    6  -17    3      0.75      0.00
    7  -17    3      0.37      0.00
    8  -17    3      1.27      0.00
   -2  -16    3      1.49      0.00
   -1  -16    3     -1.36      0.00
    0  -16    3     -2.61      0.00
    1  -16    3      2.58      0.00
    2  -16    3     -1.26      0.00
    3  -16    3     -1.77      0.00
    4  -16    3      2.67      0.00
    5  -16    3     -1.96      0.00
    6  -16    3     -0.13      0.00
    7  -16    3      3.58      0.00
    8  -16    3     -0.83      0.00
    9  -16    3      0.03      0.00
   -3  -15    3     -0.98      0.00
   -2  -15    3      3.79      0.00
   -1  -15    3     -2.18      0.00
    0  -15    3     -1.50      0.00
    1  -15    3      4.49      0.00
    2  -15    3     -2.76      0.00
    3  -15    3     -1.20      0.00
    4  -15    3      3.21      0.00
    5  -15    3     -0.25      0.00
    6  -15    3      1.31      0.00
    7  -15    3      0.79      0.00
    8  -15    3      3.17      0.00
    9  -15    3      1.85      0.00
   -4  -14    3      2.41      0.00
   -3  -14    3      1.82      0.00
   -2  -14    3     -0.77      0.00
   -1  -14    3      3.81      0.00
    0  -14    3      0.71      0.00
    1  -14    3     -2.17      0.00
    2  -14    3      3.24      0.00
    3  -14    3      1.73      0.00
    4  -14    3     -3.08      0.00
    5  -14    3      5.84      0.00
    6  -14    3      1.39      0.00
    7  -14    3      1.07      0.00
    8  -14    3      3.37      0.00
    9  -14    3      0.12      0.00
   10  -14    3     -1.74      0.00
   -5  -13    3     -0.04      0.00
   -4  -13    3      4.56      0.00
   -3  -13    3      4.60      0.00
   -2  -13    3     -1.89      0.00
   -1  -13    3      2.49      0.00
    0  -13    3      5.36      0.00
    1  -13    3     -4.56      0.00
    2  -13    3      4.58      0.00
    3  -13    3      4.25      0.00
    4  -13    3     -0.04      0.00
    5  -13    3      1.47      0.00
    6  -13    3      4.77      0.00
    7  -13    3      0.64      0.00
    8  -13    3      0.86      0.00
    9  -13    3      0.78      0.00
   10  -13    3     -1.63      0.00
   -6  -12    3      4.82      0.00
   -5  -12    3      0.27      0.00
   -4  -12    3      2.53      0.00
   -3  -12    3      4.42      0.00
   -2  -12    3      1.35      0.00
   -1  -12    3      0.14      0.00
    0  -12    3      4.68      0.00
    1  -12    3      3.13      0.00
    2  -12    3      2.57      0.00
    3  -12    3      5.20      0.00
    4  -12    3      0.22      0.00
    5  -12    3     -1.18      0.00
    6  -12    3      3.79      0.00
    7  -12    3      4.75      0.00
    8  -12    3      0.04      0.00
    9  -12    3     -1.55      0.00
   10  -12    3      2.40      0.00
   -6  -11    3     -1.96      0.00
   -5  -11    3      7.26      0.00
   -4  -11    3     -1.16      0.00
   -3  -11    3     -0.22      0.00
   -2  -11    3      7.31      0.00
   -1  -11    3      2.03      0.00
    0  -11    3     -3.28      0.00
    1  -11    3     13.84      0.00
    2  -11    3      3.56      0.00
    3  -11    3     -8.43      0.00
    4  -11    3      3.66      0.00
    5  -11    3      2.77      0.00
    6  -11    3      4.46      0.00
    7  -11    3      5.74      0.00
    8  -11    3      2.21      0.00
    9  -11    3      0.21      0.00
   10  -11    3      4.21      0.00
   11  -11    3     -1.50      0.00
   -7  -10    3     -0.44      0.00
   -6  -10    3     -0.72      0.00
   -5  -10    3      1.93      0.00
   -4  -10    3      3.26      0.00
   -3  -10    3     -3.37      0.00
   -2  -10    3      6.09      0.00
   -1  -10    3      1.95      0.00
    0  -10    3      0.83      0.00
    1  -10    3      7.95      0.00
    2  -10    3     -1.30      0.00
    3  -10    3     -7.31      0.00
    4  -10    3      2.42      0.00
    5  -10    3     13.07      0.00
    6  -10    3      2.11      0.00
    7  -10    3      6.17      0.00
    8  -10    3      3.00      0.00
    9  -10    3      1.07      0.00
   10  -10    3     -2.86      0.00
   11  -10    3     -1.66      0.00
   -8   -9    3     -1.50      0.00
   -7   -9    3      0.04      0.00
   -6   -9    3     -1.95      0.00
   -5   -9    3      0.06      0.00
   -4   -9    3      1.52      0.00
   -3   -9    3      2.60      0.00
   -2   -9    3     -6.36      0.00
   -1   -9    3      5.41      0.00
    0   -9    3      5.34      0.00
    1   -9    3     -7.97      0.00
    2   -9    3     -4.93      0.00
    3   -9    3      7.33      0.00
    4   -9    3      2.41      0.00
    5   -9    3      1.40      0.00
    6   -9    3     12.83      0.00
    7   -9    3     -0.50      0.00
    8   -9    3     -3.55      0.00
    9   -9    3      1.29      0.00
   10   -9    3     -5.39      0.00
   11   -9    3      3.03      0.00
   -8   -8    3     -2.90      0.00
   -7   -8    3     -4.56      0.00
   -6   -8    3      5.80      0.00
   -5   -8    3     -6.35      0.00
   -4   -8    3     -2.60      0.00
   -3   -8    3      5.51      0.00
   -2   -8    3     -8.20      0.00
   -1   -8    3     -8.25      0.00
    0   -8    3     10.14      0.00
    1   -8    3    -16.57      0.00
    2   -8    3      0.42      0.00
    3   -8    3     10.53      0.00
    4   -8    3    -10.37      0.00
    5   -8    3      6.56      0.00
    6   -8    3      6.26      0.00
    7   -8    3     -6.75      0.00
    8   -8    3     -1.51      0.00
    9   -8    3     -2.96      0.00
   10   -8    3     -0.05      0.00
   11   -8    3      3.78      0.00
   -9   -7    3     -0.94      0.00
   -8   -7    3     -4.21      0.00
   -7   -7    3     -2.43      0.00
   -6   -7    3     -2.64      0.00
   -5   -7    3     -1.92      0.00
   -4   -7    3     -2.36      0.00
   -3   -7    3     -6.63      0.00
   -2   -7    3     -6.96      0.00
   -1   -7    3     -3.56      0.00
    0   -7    3    -14.92      0.00
    1   -7    3      9.14      0.00
    2   -7    3     -1.23      0.00
    3   -7    3    -23.25      0.00
    4   -7    3      8.70      0.00
    5   -7    3     -0.96      0.00
    6   -7    3     -6.35      0.00
    7   -7    3      3.68      0.00
    8   -7    3     -5.68      0.00
    9   -7    3     -4.88      0.00
   10   -7    3      4.73      0.00
   11   -7    3      0.83      0.00
   -9   -6    3     -4.56      0.00
   -8   -6    3     -2.26      0.00
   -7   -6    3     -4.00      0.00
   -6   -6    3     -6.67      0.00
   -5   -6    3      7.53      0.00
   -4   -6    3     -6.06      0.00
   -3   -6    3    -22.26      0.00
   -2   -6    3      6.01      0.00
   -1   -6    3     -6.55      0.00
    0   -6    3    -16.09      0.00
    1   -6    3      6.23      0.00
    2   -6    3    -19.94      0.00
    3   -6    3    -19.95      0.00
    4   -6    3     -1.26      0.00
    5   -6    3      7.33      0.00
    6   -6    3      1.43      0.00
    7   -6    3     -9.36      0.00
    8   -6    3     -3.53      0.00
    9   -6    3     -2.50      0.00
   10   -6    3      1.06      0.00
   11   -6    3     -0.84      0.00
  -10   -5    3     -1.24      0.00
   -9   -5    3     -5.36      0.00
   -8   -5    3     -3.25      0.00
   -7   -5    3      1.43      0.00
   -6   -5    3      0.08      0.00
   -5   -5    3     -4.04      0.00
   -4   -5    3     -4.00      0.00
   -3   -5    3    -10.90      0.00
   -2   -5    3    -11.35      0.00
   -1   -5    3      4.42      0.00
    0   -5    3    -13.21      0.00
    1   -5    3    -27.36      0.00
    2   -5    3    -15.74      0.00
    3   -5    3     -7.94      0.00
    4   -5    3      7.53      0.00
    5   -5    3     13.49      0.00
    6   -5    3    -15.11      0.00
    7   -5    3     -8.79      0.00
    8   -5    3     -4.70      0.00
    9   -5    3     -1.37      0.00
   10   -5    3     -0.62      0.00
   11   -5    3     -1.20      0.00
  -10   -4    3     -2.70      0.00
   -9   -4    3     -1.52      0.00
   -8   -4    3     -0.50      0.00
   -7   -4    3      1.77      0.00
   -6   -4    3      2.91      0.00
   -5   -4    3     -3.87      0.00
   -4   -4    3     -9.18      0.00
   -3   -4    3      0.46      0.00
   -2   -4    3     -9.54      0.00
   -1   -4    3    -18.89      0.00
    0   -4    3      1.44      0.00
    1   -4    3    -32.45      0.00
    2   -4    3    -17.78      0.00
    3   -4    3     35.20      0.00
    4   -4    3      4.72      0.00
    5   -4    3    -24.82      0.00
    6   -4    3      3.31      0.00
    7   -4    3    -11.82      0.00
    8   -4    3     -7.95      0.00
    9   -4    3      4.31      0.00
   10   -4    3     -0.24      0.00
   11   -4    3      0.22      0.00
  -10   -3    3     -2.05      0.00
   -9   -3    3      3.93      0.00
   -8   -3    3     -0.44      0.00
   -7   -3    3     -2.06      0.00
   -6   -3    3     14.26      0.00
   -5   -3    3     -4.86      0.00
   -4   -3    3    -19.69      0.00
   -3   -3    3     10.46      0.00
   -2   -3    3     -5.21      0.00
   -1   -3    3    -25.56      0.00
    0   -3    3      4.72      0.00
    1   -3    3     -6.99      0.00
    2   -3    3     20.41      0.00
    3   -3    3      7.37      0.00
    4   -3    3    -16.65      0.00
    5   -3    3      1.17      0.00
    6   -3    3    -10.88      0.00
    7   -3    3     -8.08      0.00
    8   -3    3      0.98      0.00
    9   -3    3      1.98      0.00
   10   -3    3      0.43      0.00
   11   -3    3      0.30      0.00
  -11   -2    3      0.88      0.00
  -10   -2    3      1.65      0.00
   -9   -2    3     -1.54      0.00
   -8   -2    3      1.98      0.00
   -7   -2    3     10.04      0.00
   -6   -2    3      0.55      0.00
   -5   -2    3     -6.10      0.00
   -4   -2    3      0.02      0.00
   -3   -2    3     -7.68      0.00
   -2   -2    3      2.87      0.00
   -1   -2    3     21.80      0.00
    0   -2    3    -13.70      0.00
    1   -2    3     36.43      0.00
    2   -2    3      1.49      0.00
    3   -2    3    -27.18      0.00
    4   -2    3     17.30      0.00
    5   -2    3     -0.65      0.00
    6   -2    3    -18.01      0.00
    7   -2    3      2.48      0.00
    8   -2    3      4.15      0.00
    9   -2    3     -2.89      0.00
   10   -2    3      2.18      0.00
  -11   -1    3      1.99      0.00
  -10   -1    3     -0.76      0.00
   -9   -1    3     -1.80      0.00
   -8   -1    3      8.31      0.00
   -7   -1    3     12.65      0.00
   -6   -1    3    -12.67      0.00
   -5   -1    3      3.08      0.00
   -4   -1    3     17.51      0.00
   -3   -1    3    -16.67      0.00
   -2   -1    3     25.79      0.00
   -1   -1    3     42.55      0.00
    0   -1    3     -1.09      0.00
    1   -1    3    -20.19      0.00
    2   -1    3     15.88      0.00
    3   -1    3      9.42      0.00
    4   -1    3      5.72      0.00
    5   -1    3     -1.96      0.00
    6   -1    3     -4.32      0.00
    7   -1    3     -0.45      0.00
    8   -1    3      1.76      0.00
    9   -1    3      2.42      0.00
   10   -1    3     -0.95      0.00
  -11    0    3     -1.29      0.00
  -10    0    3      2.51      0.00
   -9    0    3      3.39      0.00
   -8    0    3      7.81      0.00
   -7    0    3      2.41      0.00
   -6    0    3      5.40      0.00
   -5    0    3      4.13      0.00
   -4    0    3     -1.99      0.00
   -3    0    3     24.71      0.00
   -2    0    3     21.68      0.00
   -1    0    3     10.06      0.00
    0    0    3    -10.15      0.00
    1    0    3     18.74      0.00
    2    0    3     12.18      0.00
    3    0    3     32.09      0.00
    4    0    3     -0.53      0.00
    5    0    3     -6.74      0.00
    6    0    3      1.61      0.00
    7    0    3      0.50      0.00
    8    0    3      2.49      0.00
    9    0    3      4.94      0.00
   10    0    3     -1.77      0.00
  -11    1    3      0.72      0.00
  -10    1    3     -1.21      0.00
   -9    1    3      7.85      0.00
   -8    1    3      5.09      0.00
   -7    1    3      1.22      0.00
   -6    1    3     14.78      0.00
   -5    1    3    -10.56      0.00
   -4    1    3     -7.36      0.00
   -3    1    3     37.99      0.00
   -2    1    3      9.00      0.00
   -1    1    3    -21.75      0.00
    0    1    3     51.64      0.00
    1    1    3     16.84      0.00
    2    1    3     14.89      0.00
    3    1    3     21.40      0.00
    4    1    3      0.08      0.00
    5    1    3    -12.04      0.00
    6    1    3      6.63      0.00
    7    1    3      6.31      0.00
    8    1    3      3.51      0.00
    9    1    3      2.62      0.00
   10    1    3     -0.41      0.00
  -12    2    3     -0.05      0.00
  -11    2    3     -1.75      0.00
  -10    2    3      0.32      0.00
   -9    2    3      7.65      0.00
   -8    2    3      8.01      0.00
   -7    2    3      1.40      0.00
   -6    2    3    -10.72      0.00
   -5    2    3     -0.74      0.00
   -4    2    3     -0.98      0.00
   -3    2    3      4.82      0.00
   -2    2    3     34.20      0.00
   -1    2    3     10.20      0.00
    0    2    3      8.87      0.00
    1    2    3     35.73      0.00
    2    2    3     12.86      0.00
    3    2    3     -3.68      0.00
    4    2    3     -2.29      0.00
    5    2    3      4.17      0.00
    6    2    3      3.59      0.00
    7    2    3      6.98      0.00
    8    2    3      5.32      0.00
    9    2    3      0.67      0.00
   10    2    3      1.61      0.00
  -12    3    3     -0.78      0.00
  -11    3    3      0.21      0.00
  -10    3    3      4.37      0.00
   -9    3    3      4.31      0.00
   -8    3    3      2.88      0.00
   -7    3    3     -6.95      0.00
   -6    3    3    -15.46      0.00
   -5    3    3     -9.28      0.00
   -4    3    3     13.07      0.00
   -3    3    3     23.46      0.00
   -2    3    3     -2.86      0.00
   -1    3    3     24.85      0.00
    0    3    3     11.17      0.00
    1    3    3     -1.99      0.00
    2    3    3     16.66      0.00
    3    3    3     -9.80      0.00
    4    3    3     -2.50      0.00
    5    3    3     11.06      0.00
    6    3    3      1.09      0.00
    7    3    3      2.78      0.00
    8    3    3      7.67      0.00
    9    3    3     -0.28      0.00
  -12    4    3     -0.93      0.00
  -11    4    3     -1.92      0.00
  -10    4    3      6.78      0.00
   -9    4    3     -0.53      0.00
   -8    4    3     -8.98      0.00
   -7    4    3     -2.21      0.00
   -6    4    3    -19.38      0.00
   -5    4    3     -6.95      0.00
   -4    4    3     46.84      0.00
   -3    4    3    -18.27      0.00
   -2    4    3     -4.82      0.00
   -1    4    3     28.04      0.00
    0    4    3    -14.08      0.00
    1    4    3     -8.28      0.00
    2    4    3      6.31      0.00
    3    4    3     -0.90      0.00
    4    4    3     -1.26      0.00
    5    4    3     -0.07      0.00
    6    4    3      3.46      0.00
    7    4    3      5.77      0.00
    8    4    3     -0.19      0.00
    9    4    3     -0.99      0.00
  -12    5    3     -3.39      0.00
  -11    5    3      2.11      0.00
  -10    5    3      0.72      0.00
   -9    5    3     -1.52      0.00
   -8    5    3     -3.06      0.00
   -7    5    3    -17.45      0.00
   -6    5    3      1.55      0.00
   -5    5    3     25.67      0.00
   -4    5    3    -30.96      0.00
   -3    5    3     11.84      0.00
   -2    5    3      7.94      0.00
   -1    5    3    -29.67      0.00
    0    5    3     -1.47      0.00
    1    5    3      9.83      0.00
    2    5    3    -14.17      0.00
    3    5    3      3.42      0.00
    4    5    3     -2.75      0.00
    5    5    3     -6.07      0.00
    6    5    3      7.37      0.00
    7    5    3      1.08      0.00
    8    5    3     -5.43      0.00
    9    5    3      1.30      0.00
  -12    6    3      0.35      0.00
  -11    6    3      2.28      0.00
  -10    6    3     -3.19      0.00
   -9    6    3      1.32      0.00
   -8    6    3     -7.09      0.00
   -7    6    3     -6.29      0.00
   -6    6    3     11.33      0.00
   -5    6    3    -18.53      0.00
   -4    6    3     -8.16      0.00
   -3    6    3      6.91      0.00
   -2    6    3     -9.05      0.00
   -1    6    3    -22.83      0.00
    0    6    3      6.69      0.00
    1    6    3      2.57      0.00
    2    6    3     -9.08      0.00
    3    6    3     -9.40      0.00
    4    6    3     -0.83      0.00
    5    6    3     -1.00      0.00
    6    6    3     -1.24      0.00
    7    6    3     -2.06      0.00
    8    6    3     -0.03      0.00
  -12    7    3     -1.23      0.00
  -11    7    3      0.44      0.00
  -10    7    3      0.35      0.00
   -9    7    3     -4.68      0.00
   -8    7    3      0.85      0.00
   -7    7    3     -4.39      0.00
   -6    7    3    -20.25      0.00
   -5    7    3      4.74      0.00
   -4    7    3      4.24      0.00
   -3    7    3    -15.83      0.00
   -2    7    3     -8.13      0.00
   -1    7    3      1.93      0.00
    0    7    3     -4.99      0.00
    1    7    3     -5.83      0.00
    2    7    3     -4.04      0.00
    3    7    3     -9.39      0.00
    4    7    3     -7.17      0.00
    5    7    3      2.97      0.00
    6    7    3     -2.60      0.00
    7    7    3     -0.91      0.00
  -12    8    3     -0.63      0.00
  -11    8    3     -0.20      0.00
  -10    8    3      0.72      0.00
   -9    8    3     -0.23      0.00
   -8    8    3    -11.80      0.00
   -7    8    3     -7.32      0.00
   -6    8    3      0.80      0.00
   -5    8    3     -2.01      0.00
   -4    8    3      5.43      0.00
   -3    8    3     -7.68      0.00
   -2    8    3    -16.82      0.00
   -1    8    3     10.37      0.00
    0    8    3     -4.71      0.00
    1    8    3    -13.34      0.00
    2    8    3     -1.45      0.00
    3    8    3     -8.28      0.00
    4    8    3     -5.72      0.00
    5    8    3      3.16      0.00
    6    8    3      1.19      0.00
    7    8    3     -6.11      0.00
  -12    9    3      1.76      0.00
  -11    9    3     -2.26      0.00
  -10    9    3      2.00      0.00
   -9    9    3     -7.07      0.00
   -8    9    3     -8.72      0.00
   -7    9    3      3.07      0.00
   -6    9    3      4.88      0.00
   -5    9    3      0.13      0.00
   -4    9    3      0.39      0.00
   -3    9    3     -9.74      0.00
   -2    9    3     -1.56      0.00
   -1    9    3     -2.92      0.00
    0    9    3     -1.03      0.00
    1    9    3     -6.10      0.00
    2    9    3     -9.43      0.00
    3    9    3     -1.19      0.00
    4    9    3      1.18      0.00
    5    9    3     -0.61      0.00
    6    9    3     -3.13      0.00
    7    9    3      0.17      0.00
  -12   10    3     -0.30      0.00
  -11   10    3      2.19      0.00
  -10   10    3     -4.27      0.00
   -9   10    3     -3.02      0.00
   -8   10    3      2.31      0.00
   -7   10    3      0.14      0.00
   -6   10    3      5.72      0.00
   -5   10    3      2.73      0.00
   -4   10    3    -13.07      0.00
   -3   10    3      2.04      0.00
   -2   10    3      4.13      0.00
   -1   10    3     -5.42      0.00
    0   10    3     -2.35      0.00
    1   10    3      2.21      0.00
    2   10    3     -7.95      0.00
    3   10    3     -0.74      0.00
    4   10    3      4.71      0.00
    5   10    3     -2.85      0.00
    6   10    3     -0.08      0.00
  -11   11    3      2.15      0.00
  -10   11    3     -2.51      0.00
   -9   11    3     -3.02      0.00
   -8   11    3      4.77      0.00
   -7   11    3      0.08      0.00
   -6   11    3     -3.21      0.00
   -5   11    3      3.96      0.00
   -4   11    3     -1.64      0.00
   -3   11    3     -0.58      0.00
   -2   11    3      7.95      0.00
   -1   11    3     -2.91      0.00
    0   11    3      0.25      0.00
    1   11    3      1.17      0.00
    2   11    3     -2.23      0.00
    3   11    3     -0.30      0.00
    4   11    3      3.37      0.00
    5   11    3      1.51      0.00
  -11   12    3     -2.45      0.00
  -10   12    3     -2.22      0.00
   -9   12    3      1.08      0.00
   -8   12    3      0.29      0.00
   -7   12    3     -2.46      0.00
   -6   12    3      3.66      0.00
   -5   12    3      0.73      0.00
   -4   12    3      6.32      0.00
   -3   12    3      2.54      0.00
   -2   12    3     -4.01      0.00
   -1   12    3      8.90      0.00
    0   12    3      1.82      0.00
    1   12    3     -6.22      0.00
    2   12    3      5.59      0.00
    3   12    3      2.46      0.00
    4   12    3     -0.49      0.00
  -11   13    3     -1.17      0.00
  -10   13    3      0.62      0.00
   -9   13    3      1.13      0.00
   -8   13    3     -7.54      0.00
   -7   13    3      6.99      0.00
   -6   13    3      4.23      0.00
   -5   13    3     -0.76      0.00
   -4   13    3      5.14      0.00
   -3   13    3      0.78      0.00
   -2   13    3     -0.12      0.00
   -1   13    3      6.92      0.00
    0   13    3      0.48      0.00
    1   13    3     -0.77      0.00
    2   13    3      1.65      0.00
    3   13    3      2.58      0.00
  -10   14    3     -1.16      0.00
   -9   14    3     -4.44      0.00
   -8   14    3      2.68      0.00
   -7   14    3      3.64      0.00
   -6   14    3      3.91      0.00
   -5   14    3      0.61      0.00
   -4   14    3     -1.81      0.00
   -3   14    3      3.57      0.00
   -2   14    3      4.71      0.00
   -1   14    3     -1.48      0.00
    0   14    3      2.61      0.00
    1   14    3     -0.18      0.00
    2   14    3     -0.85      0.00
  -10   15    3     -2.03      0.00
   -9   15    3      1.83      0.00
   -8   15    3      3.36      0.00
   -7   15    3      0.85      0.00
   -6   15    3     -0.47      0.00
   -5   15    3      2.76      0.00
   -4   15    3     -1.72      0.00
   -3   15    3     -0.25      0.00
   -2   15    3      5.39      0.00
   -1   15    3     -0.23      0.00
    0   15    3     -4.26      0.00
    1   15    3      4.09      0.00
   -9   16    3     -0.52      0.00
   -8   16    3      2.74      0.00
   -7   16    3      0.43      0.00
   -6   16    3     -4.23      0.00
   -5   16    3      1.52      0.00
   -4   16    3      0.78      0.00
   -3   16    3      0.63      0.00
   -2   16    3      0.87      0.00
   -1   16    3     -1.22      0.00
    0   16    3      0.65      0.00
   -8   17    3      0.72      0.00
   -7   17    3     -2.58      0.00
   -6   17    3     -0.75      0.00
   -5   17    3     -1.01      0.00
   -4   17    3      2.70      0.00
   -3   17    3      0.68      0.00
   -2   17    3     -4.29      0.00
   -1   17    3      1.51      0.00
   -7   18    3     -1.36      0.00
   -6   18    3      2.52      0.00
   -5   18    3     -2.20      0.00
   -4   18    3     -1.29      0.00
   -2   18    3     -0.44      0.00
    4  -19    4     -0.55      0.00
    0  -18    4      0.51      0.00
    3  -18    4      2.01      0.00
    4  -18    4      0.78      0.00
    5  -18    4      0.12      0.00
    6  -18    4     -0.65      0.00
   -1  -17    4     -1.14      0.00
    0  -17    4      0.04      0.00
    3  -17    4      1.44      0.00
    4  -17    4      2.78      0.00
    5  -17    4     -1.01      0.00
    6  -17    4      2.31      0.00
    7  -17    4      1.05      0.00
    8  -17    4      2.09      0.00
   -2  -16    4      2.51      0.00
   -1  -16    4      0.93      0.00
    0  -16    4     -2.53      0.00
    1  -16    4      3.33      0.00
    2  -16    4      2.58      0.00
    3  -16    4     -1.68      0.00
    4  -16    4      2.31      0.00
    5  -16    4      3.01      0.00
    6  -16    4     -0.25      0.00
    7  -16    4      0.79      0.00
    8  -16    4      0.09      0.00
   -3  -15    4      1.16      0.00
   -2  -15    4     -0.83      0.00
   -1  -15    4      1.18      0.00
    0  -15    4      1.74      0.00
    1  -15    4      0.30      0.00
    2  -15    4      1.52      0.00
    3  -15    4      2.83      0.00
    4  -15    4     -1.70      0.00
    5  -15    4      1.71      0.00
    6  -15    4      1.71      0.00
    7  -15    4     -3.42      0.00
    8  -15    4      3.27      0.00
    9  -15    4      4.83      0.00
   -4  -14    4      0.76      0.00
   -3  -14    4      3.99      0.00
   -2  -14    4     -3.81      0.00
   -1  -14    4      1.89      0.00
    0  -14    4      6.97      0.00
    1  -14    4     -5.66      0.00
    2  -14    4      3.09      0.00
    3  -14    4      3.37      0.00
    4  -14    4     -4.31      0.00
    5  -14    4      0.24      0.00
    6  -14    4      1.23      0.00
    7  -14    4      3.00      0.00
    8  -14    4      4.63      0.00
    9  -14    4     -1.05      0.00
   -5  -13    4      0.66      0.00
   -4  -13    4     -0.73      0.00
   -3  -13    4      0.04      0.00
   -2  -13    4      3.34      0.00
   -1  -13    4      0.47      0.00
    0  -13    4     -1.68      0.00
    1  -13    4      3.25      0.00
    2  -13    4     -1.65      0.00
    3  -13    4     -2.29      0.00
    4  -13    4      2.90      0.00
    5  -13    4     -2.03      0.00
    6  -13    4      2.02      0.00
    7  -13    4      7.73      0.00
    8  -13    4     -2.98      0.00
    9  -13    4     -1.46      0.00
   10  -13    4      1.24      0.00
   -6  -12    4     -0.72      0.00
   -5  -12    4      1.88      0.00
   -4  -12    4     -2.69      0.00
   -3  -12    4     -3.17      0.00
   -2  -12    4      5.68      0.00
   -1  -12    4     -1.80      0.00
    0  -12    4     -6.19      0.00
    1  -12    4      6.09      0.00
    2  -12    4     -1.73      0.00
    3  -12    4     -3.52      0.00
    4  -12    4      2.30      0.00
    5  -12    4      0.06      0.00
    6  -12    4      0.66      0.00
    7  -12    4      1.34      0.00
    8  -12    4     -0.49      0.00
    9  -12    4     -1.51      0.00
   10  -12    4     -0.05      0.00
   -6  -11    4     -4.85      0.00
   -5  -11    4     -1.05      0.00
   -4  -11    4     -0.83      0.00
   -3  -11    4     -3.65      0.00
   -2  -11    4     -0.65      0.00
   -1  -11    4      1.18      0.00
    0  -11    4     -4.69      0.00
    1  -11    4     -1.77      0.00
    2  -11    4      3.19      0.00
    3  -11    4     -5.17      0.00
    4  -11    4     -5.44      0.00
    5  -11    4      0.16      0.00
    6  -11    4      1.28      0.00
    7  -11    4     -2.55      0.00
    8  -11    4      0.75      0.00
    9  -11    4      2.08      0.00
   10  -11    4     -0.09      0.00
   -7  -10    4     -2.87      0.00
   -6  -10    4     -0.10      0.00
   -5  -10    4     -8.65      0.00
   -4  -10    4     -0.19      0.00
   -3  -10    4      2.49      0.00
   -2  -10    4     -6.90      0.00
   -1  -10    4     -3.41      0.00
    0  -10    4      2.85      0.00
    1  -10    4     -9.30      0.00
    2  -10    4     -5.80      0.00
    3  -10    4      0.33      0.00
    4  -10    4    -11.90      0.00
    5  -10    4      0.06      0.00
    6  -10    4      2.45      0.00
    7  -10    4     -1.30      0.00
    8  -10    4      2.01      0.00
    9  -10    4      3.48      0.00
   10  -10    4     -4.87      0.00
   -8   -9    4     -2.92      0.00
   -7   -9    4     -2.67      0.00
   -6   -9    4     -3.26      0.00
   -5   -9    4     -3.42      0.00
   -4   -9    4     -2.62      0.00
   -3   -9    4      4.84      0.00
   -2   -9    4     -7.60      0.00
   -1   -9    4     -6.71      0.00
    0   -9    4     -0.76      0.00
    1   -9    4    -11.51      0.00
    2   -9    4     -8.68      0.00
    3   -9    4     -1.94      0.00
    4   -9    4     -3.88      0.00
    5   -9    4     -7.25      0.00
    6   -9    4      4.93      0.00
    7   -9    4      3.00      0.00
    8   -9    4     -1.32      0.00
    9   -9    4     -5.86      0.00
   10   -9    4     -4.50      0.00
   11   -9    4      0.75      0.00
   -9   -8    4     -1.49      0.00
   -8   -8    4      0.21      0.00
   -7   -8    4     -6.16      0.00
   -6   -8    4     -0.59      0.00
   -5   -8    4      1.74      0.00
   -4   -8    4     -0.84      0.00
   -3   -8    4     -4.56      0.00
   -2   -8    4      2.91      0.00
   -1   -8    4    -11.62      0.00
    0   -8    4    -15.80      0.00
    1   -8    4     -0.43      0.00
    2   -8    4      0.52      0.00
    3   -8    4    -10.34      0.00
    4   -8    4     -5.85      0.00
    5   -8    4      5.80      0.00
    6   -8    4     -1.83      0.00
    7   -8    4     -0.04      0.00
    8   -8    4     -4.63      0.00
    9   -8    4     -8.38      0.00
   10   -8    4      1.09      0.00
   11   -8    4      0.36      0.00
   -9   -7    4     -0.55      0.00
   -8   -7    4     -0.71      0.00
   -7   -7    4      1.68      0.00
   -6   -7    4     -7.19      0.00
   -5   -7    4      5.31      0.00
   -4   -7    4      5.48      0.00
   -3   -7    4     -9.53      0.00
   -2   -7    4     -3.51      0.00
   -1   -7    4     -1.84      0.00
    0   -7    4    -21.31      0.00
    1   -7    4     14.15      0.00
    2   -7    4      8.36      0.00
    3   -7    4    -23.08      0.00
    4   -7    4      8.42      0.00
    5   -7    4      2.84      0.00
    6   -7    4     -6.99      0.00
    7   -7    4     -0.93      0.00
    8   -7    4     -3.06      0.00
    9   -7    4     -3.97      0.00
   10   -7    4      2.82      0.00
   11   -7    4     -0.91      0.00
   -9   -6    4     -0.19      0.00
   -8   -6    4      0.62      0.00
   -7   -6    4     -2.37      0.00
   -6   -6    4      0.03      0.00
   -5   -6    4      6.20      0.00
   -4   -6    4      5.57      0.00
   -3   -6    4     -5.38      0.00
   -2   -6    4     -4.78      0.00
   -1   -6    4     -5.62      0.00
    0   -6    4     17.03      0.00
    2   -6    4    -12.51      0.00
    3   -6    4     11.51      0.00
    4   -6    4     -8.99      0.00
    5   -6    4     -3.31      0.00
    6   -6    4     10.37      0.00
    7   -6    4     -3.55      0.00
    8   -6    4     -4.37      0.00
    9   -6    4      4.57      0.00
   10   -6    4     -2.53      0.00
   11   -6    4     -0.70      0.00
  -10   -5    4      0.10      0.00
   -9   -5    4      3.40      0.00
   -8   -5    4     -4.74      0.00
   -7   -5    4     -0.63      0.00
   -6   -5    4     15.00      0.00
   -5   -5    4      0.89      0.00
   -4   -5    4     -2.00      0.00
   -3   -5    4     17.36      0.00
   -2   -5    4    -13.21      0.00
   -1   -5    4      6.54      0.00
    0   -5    4     29.39      0.00
    1   -5    4    -14.29      0.00
    2   -5    4     -1.30      0.00
    3   -5    4      8.53      0.00
    4   -5    4     -1.88      0.00
    5   -5    4     10.85      0.00
    6   -5    4      6.20      0.00
    7   -5    4     -2.62      0.00
    8   -5    4     -1.81      0.00
    9   -5    4     -0.18      0.00
   10   -5    4     -2.36      0.00
   11   -5    4      1.19      0.00
  -10   -4    4      1.06      0.00
   -9   -4    4      0.78      0.00
   -8   -4    4     -0.90      0.00
   -7   -4    4      5.85      0.00
   -6   -4    4      8.19      0.00
   -5   -4    4      9.64      0.00
   -4   -4    4      4.48      0.00
   -3   -4    4      2.49      0.00
   -2   -4    4     14.21      0.00
   -1   -4    4     -1.98      0.00
    0   -4    4      3.87      0.00
    1   -4    4     14.12      0.00
    2   -4    4     -0.62      0.00
    3   -4    4     11.00      0.00
    4   -4    4     23.52      0.00
    5   -4    4     -1.47      0.00
    6   -4    4      3.55      0.00
    7   -4    4     -0.17      0.00
    8   -4    4     -3.99      0.00
    9   -4    4     -2.84      0.00
   10   -4    4      2.36      0.00
  -10   -3    4      1.90      0.00
   -9   -3    4     -1.97      0.00
   -8   -3    4      4.97      0.00
   -7   -3    4      3.40      0.00
   -6   -3    4      8.49      0.00
   -5   -3    4     16.83      0.00
   -4   -3    4      4.03      0.00
   -3   -3    4     -7.36      0.00
   -2   -3    4      2.24      0.00
   -1   -3    4     11.76      0.00
    0   -3    4     -1.98      0.00
    1   -3    4     20.45      0.00
    2   -3    4     40.07      0.00
    3   -3    4      4.95      0.00
    4   -3    4     -1.94      0.00
    5   -3    4     20.47      0.00
    6   -3    4     -7.92      0.00
    7   -3    4     -4.20      0.00
    8   -3    4      1.24      0.00
    9   -3    4     -0.54      0.00
   10   -3    4      5.59      0.00
  -11   -2    4      2.13      0.00
  -10   -2    4      2.54      0.00
   -9   -2    4     -4.04      0.00
   -8   -2    4     -0.22      0.00
   -7   -2    4     15.43      0.00
   -6   -2    4      5.59      0.00
   -5   -2    4      1.13      0.00
   -4   -2    4     10.70      0.00
   -3   -2    4    -24.99      0.00
   -2   -2    4    -10.05      0.00
   -1   -2    4     38.39      0.00
    0   -2    4     14.41      0.00
    1   -2    4     43.55      0.00
    2   -2    4     18.10      0.00
    3   -2    4    -16.51      0.00
    4   -2    4     17.66      0.00
    5   -2    4      4.24      0.00
    6   -2    4     -6.31      0.00
    7   -2    4     -1.44      0.00
    8   -2    4      2.93      0.00
    9   -2    4      4.31      0.00
   10   -2    4      4.63      0.00
  -11   -1    4      1.59      0.00
  -10   -1    4     -4.05      0.00
   -9   -1    4     -2.70      0.00
   -8   -1    4      6.39      0.00
   -7   -1    4      7.77      0.00
   -6   -1    4      3.99      0.00
   -5   -1    4     -2.56      0.00
   -4   -1    4    -18.36      0.00
   -3   -1    4     -6.63      0.00
   -2   -1    4     11.00      0.00
   -1   -1    4     22.59      0.00
    0   -1    4     67.09      0.00
    1   -1    4    -13.08      0.00
    2   -1    4    -30.66      0.00
    3   -1    4     32.83      0.00
    4   -1    4      1.08      0.00
    5   -1    4     -9.03      0.00
    6   -1    4      6.80      0.00
    7   -1    4      1.13      0.00
    8   -1    4     -0.99      0.00
    9   -1    4      8.36      0.00
   10   -1    4      0.62      0.00
  -11    0    4     -3.68      0.00
  -10    0    4     -5.23      0.00
   -9    0    4      6.53      0.00
   -8    0    4      4.01      0.00
   -7    0    4     -5.65      0.00
   -6    0    4     10.99      0.00
   -5    0    4     -9.29      0.00
   -4    0    4    -36.73      0.00
   -3    0    4     16.72      0.00
   -2    0    4     26.51      0.00
   -1    0    4     15.41      0.00
    0    0    4    -10.16      0.00
    1    0    4    -11.20      0.00
    2    0    4      2.33      0.00
    3    0    4      9.20      0.00
    4    0    4      2.80      0.00
    5    0    4     -3.09      0.00
    6    0    4      2.06      0.00
    7    0    4     -0.86      0.00
    8    0    4      2.57      0.00
    9    0    4      4.36      0.00
   10    0    4      2.04      0.00
  -11    1    4     -1.88      0.00
  -10    1    4     -1.87      0.00
   -9    1    4     -0.11      0.00
   -8    1    4     -0.04      0.00
   -7    1    4      2.95      0.00
   -6    1    4     -3.22      0.00
   -5    1    4    -21.23      0.00
   -4    1    4    -11.66      0.00
   -3    1    4      0.61      0.00
   -2    1    4     15.88      0.00
   -1    1    4    -26.65      0.00
    0    1    4     -6.67      0.00
    1    1    4      5.50      0.00
    2    1    4      7.17      0.00
    3    1    4     -8.22      0.00
    4    1    4      1.20      0.00
    5    1    4     -0.17      0.00
    6    1    4     -7.98      0.00
    7    1    4     -0.05      0.00
    8    1    4      6.61      0.00
    9    1    4     -0.07      0.00
   10    1    4      0.66      0.00
  -12    2    4     -1.29      0.00
  -11    2    4     -4.71      0.00
  -10    2    4     -1.38      0.00
   -9    2    4     -4.64      0.00
   -8    2    4      2.97      0.00
   -7    2    4      8.73      0.00
   -6    2    4    -26.10      0.00
   -5    2    4    -17.46      0.00
   -4    2    4      5.98      0.00
   -3    2    4    -27.59      0.00
   -2    2    4    -22.86      0.00
   -1    2    4     35.90      0.00
    0    2    4    -23.61      0.00
    1    2    4     -5.72      0.00
    2    2    4      8.02      0.00
    3    2    4    -11.81      0.00
    4    2    4    -10.21      0.00
    5    2    4      0.54      0.00
    6    2    4     -7.22      0.00
    7    2    4      0.54      0.00
    8    2    4      2.26      0.00
    9    2    4     -1.42      0.00
  -12    3    4     -4.38      0.00
  -11    3    4     -3.46      0.00
  -10    3    4     -0.44      0.00
   -9    3    4      1.28      0.00
   -8    3    4      1.84      0.00
   -7    3    4     -5.99      0.00
   -6    3    4    -14.76      0.00
   -5    3    4    -21.70      0.00
   -4    3    4    -17.54      0.00
   -3    3    4     -5.33      0.00
   -2    3    4     10.32      0.00
   -1    3    4     -5.17      0.00
    0    3    4      6.04      0.00
    1    3    4    -18.08      0.00
    2    3    4    -12.35      0.00
    3    3    4     -3.64      0.00
    4    3    4     -5.57      0.00
    5    3    4     -8.98      0.00
    6    3    4     -0.96      0.00
    7    3    4     -2.61      0.00
    8    3    4     -2.16      0.00
    9    3    4      2.39      0.00
  -12    4    4     -1.74      0.00
  -11    4    4     -1.94      0.00
  -10    4    4     -0.28      0.00
   -9    4    4      3.44      0.00
   -8    4    4     -2.37      0.00
   -7    4    4    -11.42      0.00
   -6    4    4    -12.68      0.00
   -5    4    4    -19.90      0.00
   -4    4    4     -6.07      0.00
   -3    4    4     19.14      0.00
   -2    4    4      4.10      0.00
   -1    4    4     -6.00      0.00
    0    4    4    -11.71      0.00
    1    4    4     -9.84      0.00
    2    4    4    -17.67      0.00
    3    4    4      3.34      0.00
    4    4    4     -2.55      0.00
    5    4    4    -12.91      0.00
    6    4    4     -3.22      0.00
    7    4    4      2.18      0.00
    8    4    4     -2.21      0.00
    9    4    4     -0.37      0.00
  -12    5    4     -1.68      0.00
  -11    5    4      1.89      0.00
  -10    5    4     -2.70      0.00
   -9    5    4      0.95      0.00
   -8    5    4      3.49      0.00
   -7    5    4    -17.19      0.00
   -6    5    4    -12.02      0.00
   -5    5    4     20.01      0.00
   -4    5    4    -16.17      0.00
   -3    5    4     12.17      0.00
   -2    5    4     19.93      0.00
   -1    5    4    -28.79      0.00
    0    5    4    -17.00      0.00
    1    5    4      4.60      0.00
    2    5    4     -2.43      0.00
    3    5    4     -3.40      0.00
    4    5    4     -6.67      0.00
    5    5    4     -6.36      0.00
    6    5    4      0.84      0.00
    7    5    4     -0.25      0.00
    8    5    4     -1.83      0.00
  -12    6    4      0.67      0.00
  -11    6    4     -1.21      0.00
  -10    6    4      0.96      0.00
   -9    6    4      3.84      0.00
   -8    6    4     -5.84      0.00
   -7    6    4     -1.10      0.00
   -6    6    4      9.25      0.00
   -5    6    4    -18.30      0.00
   -4    6    4     20.54      0.00
   -3    6    4      7.72      0.00
   -2    6    4    -17.58      0.00
   -1    6    4     -3.71      0.00
    0    6    4      1.09      0.00
    1    6    4     -4.60      0.00
    2    6    4     11.68      0.00
    3    6    4     -8.86      0.00
    4    6    4     -9.26      0.00
    5    6    4      6.40      0.00
    6    6    4     -2.29      0.00
    7    6    4     -3.19      0.00
  -12    7    4     -1.44      0.00
  -11    7    4     -2.38      0.00
  -10    7    4      7.37      0.00
   -9    7    4     -1.17      0.00
   -8    7    4     -0.29      0.00
   -7    7    4     10.35      0.00
   -6    7    4    -19.81      0.00
   -5    7    4      5.52      0.00
   -4    7    4     24.24      0.00
   -3    7    4     -8.64      0.00
   -2    7    4    -12.77      0.00
   -1    7    4     16.04      0.00
    0    7    4      0.87      0.00
    1    7    4      0.72      0.00
    2    7    4      2.63      0.00
    3    7    4     -1.97      0.00
    4    7    4     -2.90      0.00
    5    7    4     -0.19      0.00
    6    7    4      0.96      0.00
    7    7    4      3.07      0.00
  -12    8    4      0.41      0.00
  -11    8    4      2.43      0.00
  -10    8    4      1.86      0.00
   -9    8    4      5.20      0.00
   -8    8    4      0.49      0.00
   -7    8    4    -15.72      0.00
   -6    8    4      9.18      0.00
   -5    8    4     11.01      0.00
   -4    8    4     -0.23      0.00
   -3    8    4      5.90      0.00
   -2    8    4      7.60      0.00
   -1    8    4     -0.77      0.00
    0    8    4      7.72      0.00
    1    8    4      3.88      0.00
    2    8    4     -3.02      0.00
    3    8    4      0.28      0.00
    4    8    4      1.45      0.00
    5    8    4     -1.39      0.00
    6    8    4      5.92      0.00
    7    8    4      0.36      0.00
  -12    9    4      1.16      0.00
  -11    9    4      3.01      0.00
  -10    9    4      2.21      0.00
   -9    9    4     -1.23      0.00
   -8    9    4     -6.89      0.00
   -7    9    4     -0.38      0.00
   -6    9    4      8.00      0.00
   -5    9    4     10.80      0.00
   -4    9    4      1.52      0.00
   -3    9    4      6.94      0.00
   -2    9    4     12.23      0.00
   -1    9    4     -5.82      0.00
    0    9    4      1.61      0.00
    1    9    4     10.77      0.00
    2    9    4     -4.66      0.00
    3    9    4     -0.44      0.00
    4    9    4      6.10      0.00
    5    9    4      3.20      0.00
    6    9    4      0.38      0.00
  -12   10    4     -0.68      0.00
  -11   10    4      4.08      0.00
  -10   10    4     -2.57      0.00
   -9   10    4     -4.67      0.00
   -8   10    4      3.80      0.00
   -7   10    4      2.27      0.00
   -6   10    4      3.07      0.00
   -5   10    4     11.68      0.00
   -4   10    4      2.96      0.00
   -3   10    4      4.79      0.00
   -2   10    4     -0.66      0.00
   -1   10    4      1.64      0.00
    0   10    4      4.22      0.00
    1   10    4      3.30      0.00
    2   10    4      3.22      0.00
    3   10    4      1.73      0.00
    4   10    4      2.83      0.00
    5   10    4      4.01      0.00
  -11   11    4     -2.30      0.00
  -10   11    4      0.87      0.00
   -9   11    4      1.33      0.00
   -8   11    4     -2.21      0.00
   -7   11    4      4.22      0.00
   -6   11    4      3.98      0.00
   -5   11    4     -1.18      0.00
   -4   11    4     11.37      0.00
   -3   11    4     -2.75      0.00
   -2   11    4     -5.27      0.00
   -1   11    4      8.65      0.00
    0   11    4      6.46      0.00
    1   11    4     -2.29      0.00
    2   11    4      5.79      0.00
    3   11    4      2.53      0.00
    4   11    4      0.05      0.00
    5   11    4      4.50      0.00
  -11   12    4     -0.66      0.00
  -10   12    4      0.37      0.00
   -9   12    4     -0.77      0.00
   -8   12    4     -2.36      0.00
   -7   12    4      0.52      0.00
   -6   12    4      3.48      0.00
   -5   12    4      1.24      0.00
   -4   12    4      2.61      0.00
   -3   12    4      1.03      0.00
   -2   12    4     -4.60      0.00
   -1   12    4      6.46      0.00
    0   12    4      5.61      0.00
    1   12    4     -2.34      0.00
    2   12    4      1.30      0.00
    3   12    4      2.77      0.00
    4   12    4      0.75      0.00
  -11   13    4      0.85      0.00
  -10   13    4     -1.30      0.00
   -9   13    4     -0.55      0.00
   -8   13    4     -5.31      0.00
   -7   13    4      0.50      0.00
   -6   13    4      3.91      0.00
   -5   13    4      4.33      0.00
   -4   13    4     -3.99      0.00
   -3   13    4     -4.15      0.00
   -2   13    4      5.75      0.00
   -1   13    4     -0.30      0.00
    0   13    4     -2.50      0.00
    1   13    4      4.28      0.00
    2   13    4     -3.23      0.00
    3   13    4     -2.02      0.00
  -10   14    4     -0.85      0.00
   -9   14    4     -7.84      0.00
   -8   14    4      2.82      0.00
   -7   14    4      1.13      0.00
   -6   14    4      0.95      0.00
   -5   14    4      3.60      0.00
   -4   14    4     -7.41      0.00
   -3   14    4     -2.21      0.00
   -2   14    4      3.67      0.00
   -1   14    4     -3.72      0.00
    0   14    4     -1.73      0.00
    1   14    4     -0.51      0.00
    2   14    4     -4.03      0.00
  -10   15    4     -4.60      0.00
   -9   15    4      1.01      0.00
   -8   15    4      2.55      0.00
   -7   15    4      1.33      0.00
   -6   15    4     -0.64      0.00
   -5   15    4     -4.21      0.00
   -4   15    4     -1.18      0.00
   -3   15    4     -3.13      0.00
   -2   15    4     -3.13      0.00
   -1   15    4      1.26      0.00
    0   15    4     -4.46      0.00
    1   15    4     -3.54      0.00
   -9   16    4      0.59      0.00
   -8   16    4     -0.36      0.00
   -7   16    4      1.89      0.00
   -6   16    4     -2.60      0.00
   -5   16    4     -6.69      0.00
   -4   16    4     -1.15      0.00
   -3   16    4      1.07      0.00
   -2   16    4     -3.21      0.00
   -1   16    4     -3.21      0.00
    0   16    4      1.16      0.00
   -8   17    4     -0.07      0.00
   -7   17    4     -2.67      0.00
   -6   17    4     -1.08      0.00
   -5   17    4     -3.28      0.00
   -4   17    4      0.24      0.00
   -3   17    4      0.26      0.00
   -2   17    4     -2.12      0.00
   -1   17    4     -0.72      0.00
   -6   18    4     -1.14      0.00
   -5   18    4      2.12      0.00
   -4   18    4     -1.77      0.00
    0  -18    5      0.09      0.00
    3  -18    5      1.94      0.00
    4  -18    5      1.32      0.00
    5  -18    5     -0.95      0.00
    6  -18    5     -1.63      0.00
   -1  -17    5      0.25      0.00
    0  -17    5     -1.52      0.00
    3  -17    5     -0.74      0.00
    4  -17    5     -1.55      0.00
    5  -17    5      0.17      0.00
    6  -17    5      2.33      0.00
    7  -17    5     -1.87      0.00
   -2  -16    5     -3.13      0.00
   -1  -16    5      1.52      0.00
    0  -16    5     -0.71      0.00
    1  -16    5     -2.73      0.00
    2  -16    5      2.70      0.00
    3  -16    5     -0.39      0.00
    4  -16    5     -3.46      0.00
    5  -16    5      3.23      0.00
    6  -16    5     -0.32      0.00
    7  -16    5     -2.21      0.00
    8  -16    5     -2.24      0.00
   -3  -15    5      0.13      0.00
   -2  -15    5     -2.32      0.00
   -1  -15    5     -1.82      0.00
    0  -15    5      0.87      0.00
    1  -15    5     -0.79      0.00
    2  -15    5     -1.80      0.00
    3  -15    5      1.29      0.00
    4  -15    5     -0.99      0.00
    5  -15    5     -3.18      0.00
    6  -15    5     -1.90      0.00
    7  -15    5     -3.32      0.00
    8  -15    5     -1.11      0.00
    9  -15    5      2.48      0.00
   -4  -14    5     -3.55      0.00
   -3  -14    5     -2.49      0.00
   -2  -14    5      1.09      0.00
   -1  -14    5     -3.45      0.00
    0  -14    5      1.24      0.00
    1  -14    5      0.49      0.00
    2  -14    5     -2.55      0.00
    3  -14    5     -3.43      0.00
    4  -14    5     -0.08      0.00
    6  -14    5     -5.37      0.00
    7  -14    5      3.61      0.00
    8  -14    5      3.31      0.00
    9  -14    5     -2.75      0.00
   -5  -13    5      1.36      0.00
   -4  -13    5     -2.33      0.00
   -3  -13    5     -5.95      0.00
   -2  -13    5      3.22      0.00
   -1  -13    5      3.34      0.00
    0  -13    5     -8.56      0.00
    1  -13    5      3.80      0.00
    2  -13    5     -3.71      0.00
    3  -13    5     -7.33      0.00
    4  -13    5     -2.55      0.00
    5  -13    5     -2.51      0.00
    6  -13    5     -0.69      0.00
    7  -13    5      5.70      0.00
    8  -13    5     -3.32      0.00
    9  -13    5     -0.78      0.00
   10  -13    5      0.64      0.00
   -6  -12    5      0.36      0.00
   -5  -12    5     -1.89      0.00
   -4  -12    5     -1.53      0.00
   -3  -12    5     -0.64      0.00
   -2  -12    5     -0.13      0.00
   -1  -12    5     -0.36      0.00
    0  -12    5     -0.43      0.00
    1  -12    5     -6.12      0.00
    2  -12    5     -2.69      0.00
    3  -12    5     -1.41      0.00
    4  -12    5     -4.75      0.00
    6  -12    5      5.48      0.00
    7  -12    5     -7.02      0.00
    8  -12    5     -0.10      0.00
    9  -12    5      3.40      0.00
   10  -12    5     -3.88      0.00
   -6  -11    5      2.16      0.00
   -5  -11    5     -6.30      0.00
   -4  -11    5      0.11      0.00
   -3  -11    5      5.55      0.00
   -2  -11    5     -5.38      0.00
   -1  -11    5      0.50      0.00
    0  -11    5      5.71      0.00
    1  -11    5    -12.36      0.00
    2  -11    5     -0.13      0.00
    3  -11    5      5.26      0.00
    4  -11    5     -5.24      0.00
    5  -11    5     -0.04      0.00
    6  -11    5     -0.67      0.00
    7  -11    5     -3.35      0.00
    8  -11    5      1.61      0.00
    9  -11    5      0.12      0.00
   10  -11    5     -0.07      0.00
   -7  -10    5      0.35      0.00
   -6  -10    5      1.04      0.00
   -5  -10    5     -2.00      0.00
   -4  -10    5     -0.49      0.00
   -3  -10    5      5.30      0.00
   -2  -10    5      2.75      0.00
   -1  -10    5      0.03      0.00
    0  -10    5     -2.13      0.00
    1  -10    5      0.11      0.00
    2  -10    5     -2.17      0.00
    3  -10    5      1.51      0.00
    4  -10    5      1.06      0.00
    6  -10    5     -1.59      0.00
    7  -10    5      3.80      0.00
    8  -10    5      2.15      0.00
    9  -10    5      0.35      0.00
   10  -10    5      0.93      0.00
   -8   -9    5      3.53      0.00
   -7   -9    5      1.14      0.00
   -6   -9    5     -4.43      0.00
   -5   -9    5      6.12      0.00
   -4   -9    5      3.63      0.00
   -3   -9    5     -0.15      0.00
   -2   -9    5     12.53      0.00
   -1   -9    5      0.58      0.00
    0   -9    5     -8.69      0.00
    1   -9    5      5.46      0.00
    2   -9    5      4.08      0.00
    3   -9    5     -3.97      0.00
    4   -9    5      3.67      0.00
    5   -9    5      0.30      0.00
    6   -9    5      0.15      0.00
    7   -9    5      7.77      0.00
    8   -9    5      4.25      0.00
    9   -9    5     -4.94      0.00
   10   -9    5     -0.69      0.00
   -9   -8    5      1.31      0.00
   -8   -8    5      3.92      0.00
   -7   -8    5      0.32      0.00
   -6   -8    5     -0.30      0.00
   -5   -8    5      6.63      0.00
   -4   -8    5      8.11      0.00
   -3   -8    5      2.52      0.00
   -2   -8    5      9.56      0.00
   -1   -8    5      4.04      0.00
    0   -8    5    -10.53      0.00
    1   -8    5      5.23      0.00
    2   -8    5     10.94      0.00
    3   -8    5     -0.23      0.00
    4   -8    5      0.42      0.00
    5   -8    5     11.05      0.00
    6   -8    5      5.53      0.00
    7   -8    5      4.32      0.00
    8   -8    5     -2.88      0.00
    9   -8    5     -1.37      0.00
   10   -8    5     -0.32      0.00
   -9   -7    5      3.68      0.00
   -8   -7    5     -0.11      0.00
   -7   -7    5      4.88      0.00
   -6   -7    5      3.02      0.00
   -5   -7    5      0.84      0.00
   -4   -7    5      9.77      0.00
   -3   -7    5     14.18      0.00
   -2   -7    5     -4.13      0.00
   -1   -7    5     -2.72      0.00
    0   -7    5      6.95      0.00
    1   -7    5      2.13      0.00
    2   -7    5      8.84      0.00
    3   -7    5     11.71      0.00
    4   -7    5     10.79      0.00
    5   -7    5      5.23      0.00
    6   -7    5      7.15      0.00
    7   -7    5     -3.51      0.00
    8   -7    5     -0.82      0.00
    9   -7    5      2.97      0.00
   10   -7    5     -0.87      0.00
   -9   -6    5      3.17      0.00
   -8   -6    5      2.06      0.00
   -7   -6    5     -3.88      0.00
   -6   -6    5      6.02      0.00
   -5   -6    5      2.92      0.00
   -4   -6    5      6.43      0.00
   -3   -6    5     13.99      0.00
   -2   -6    5     -4.92      0.00
   -1   -6    5    -12.73      0.00
    0   -6    5     22.17      0.00
    1   -6    5      6.92      0.00
    2   -6    5      0.38      0.00
    3   -6    5     30.39      0.00
    4   -6    5      3.63      0.00
    5   -6    5     -6.46      0.00
    6   -6    5      5.24      0.00
    7   -6    5      3.92      0.00
    8   -6    5     -0.33      0.00
    9   -6    5      4.36      0.00
   10   -6    5     -2.39      0.00
  -10   -5    5      0.54      0.00
   -9   -5    5      3.27      0.00
   -8   -5    5     -4.25      0.00
   -7   -5    5     -4.37      0.00
   -6   -5    5      4.91      0.00
   -5   -5    5      8.92      0.00
   -4   -5    5      1.51      0.00
   -3   -5    5      4.73      0.00
   -2   -5    5     -4.82      0.00
   -1   -5    5      5.10      0.00
    0   -5    5     -1.91      0.00
    1   -5    5      8.06      0.00
    2   -5    5     25.25      0.00
    3   -5    5     -3.10      0.00
    4   -5    5     -3.27      0.00
    5   -5    5      6.08      0.00
    6   -5    5      2.46      0.00
    7   -5    5      4.28      0.00
    8   -5    5      4.85      0.00
    9   -5    5     -5.68      0.00
   10   -5    5      1.25      0.00
  -10   -4    5      2.86      0.00
   -9   -4    5     -6.21      0.00
   -8   -4    5     -3.97      0.00
   -7   -4    5      3.93      0.00
   -6   -4    5     -5.89      0.00
   -5   -4    5      7.36      0.00
   -4   -4    5     15.78      0.00
   -3   -4    5    -22.82      0.00
   -2   -4    5      8.39      0.00
   -1   -4    5     -2.34      0.00
    0   -4    5    -28.18      0.00
    1   -4    5     25.27      0.00
    2   -4    5     10.79      0.00
    3   -4    5    -18.62      0.00
    4   -4    5      8.74      0.00
    5   -4    5      7.10      0.00
    6   -4    5     -1.23      0.00
    7   -4    5      3.21      0.00
    8   -4    5     -2.45      0.00
    9   -4    5     -4.95      0.00
   10   -4    5      1.60      0.00
  -11   -3    5      0.50      0.00
  -10   -3    5     -1.01      0.00
   -9   -3    5     -6.76      0.00
   -8   -3    5     -0.52      0.00
   -7   -3    5     -2.69      0.00
   -6   -3    5     -1.49      0.00
   -5   -3    5     10.32      0.00
   -4   -3    5      0.74      0.00
   -3   -3    5     -6.72      0.00
   -2   -3    5    -32.12      0.00
   -1   -3    5    -21.03      0.00
    0   -3    5      6.04      0.00
    1   -3    5     -3.68      0.00
    2   -3    5      3.32      0.00
    3   -3    5      9.34      0.00
    4   -3    5    -10.66      0.00
    5   -3    5      4.29      0.00
    6   -3    5      2.10      0.00
    7   -3    5     -6.61      0.00
    8   -3    5     -6.28      0.00
    9   -3    5     -0.05      0.00
   10   -3    5      2.52      0.00
  -11   -2    5     -0.98      0.00
  -10   -2    5     -2.67      0.00
   -9   -2    5     -0.86      0.00
   -8   -2    5     -8.57      0.00
   -7   -2    5     -1.58      0.00
   -6   -2    5     14.05      0.00
   -5   -2    5     -5.17      0.00
   -4   -2    5     -9.78      0.00
   -3   -2    5    -20.22      0.00
   -2   -2    5    -47.47      0.00
   -1   -2    5    -20.42      0.00
    0   -2    5     20.01      0.00
    1   -2    5     14.01      0.00
    2   -2    5     -6.30      0.00
    3   -2    5     -6.90      0.00
    4   -2    5      0.55      0.00
    5   -2    5    -10.47      0.00
    6   -2    5     -0.96      0.00
    7   -2    5     -8.37      0.00
    8   -2    5     -5.30      0.00
    9   -2    5      4.18      0.00
   10   -2    5      2.45      0.00
  -11   -1    5     -0.45      0.00
  -10   -1    5     -5.25      0.00
   -9   -1    5     -4.35      0.00
   -8   -1    5      0.32      0.00
   -7   -1    5     -1.79      0.00
   -6   -1    5      5.97      0.00
   -5   -1    5      0.80      0.00
   -4   -1    5    -38.75      0.00
   -3   -1    5    -32.68      0.00
   -2   -1    5    -13.27      0.00
   -1   -1    5    -12.35      0.00
    0   -1    5     42.12      0.00
    1   -1    5      3.92      0.00
    2   -1    5    -37.94      0.00
    3   -1    5      3.71      0.00
    4   -1    5     -8.68      0.00
    5   -1    5    -11.27      0.00
    6   -1    5     -6.25      0.00
    7   -1    5     -1.64      0.00
    8   -1    5     -2.06      0.00
    9   -1    5      1.40      0.00
   10   -1    5      0.21      0.00
  -11    0    5     -2.41      0.00
  -10    0    5     -5.01      0.00
   -9    0    5      0.79      0.00
   -8    0    5     -0.41      0.00
   -7    0    5      0.13      0.00
   -6    0    5      0.73      0.00
   -5    0    5    -12.22      0.00
   -4    0    5    -27.05      0.00
   -3    0    5    -28.77      0.00
   -2    0    5      3.86      0.00
   -1    0    5     44.16      0.00
    0    0    5    -24.18      0.00
    1    0    5    -29.90      0.00
    2    0    5     18.30      0.00
    3    0    5    -27.83      0.00
    4    0    5     -9.79      0.00
    5    0    5      3.30      0.00
    6    0    5     -5.81      0.00
    7    0    5     -6.27      0.00
    8    0    5      1.88      0.00
    9    0    5     -3.53      0.00
   10    0    5      2.21      0.00
  -12    1    5     -0.83      0.00
  -11    1    5     -1.48      0.00
  -10    1    5      4.28      0.00
   -9    1    5     -6.70      0.00
   -8    1    5     -4.99      0.00
   -7    1    5     13.27      0.00
   -6    1    5     -9.46      0.00
   -5    1    5    -21.26      0.00
   -4    1    5      3.22      0.00
   -3    1    5    -15.70      0.00
   -2    1    5     12.08      0.00
   -1    1    5      0.05      0.00
    0    1    5    -22.80      0.00
    1    1    5      8.49      0.00
    2    1    5     -7.13      0.00
    3    1    5    -14.59      0.00
    4    1    5     -2.19      0.00
    5    1    5      4.33      0.00
    6    1    5     -9.59      0.00
    7    1    5     -4.44      0.00
    8    1    5     -0.94      0.00
    9    1    5      0.27      0.00
  -12    2    5      0.07      0.00
  -11    2    5     -0.44      0.00
  -10    2    5     -3.41      0.00
   -9    2    5     -6.21      0.00
   -8    2    5      3.95      0.00
   -7    2    5      6.06      0.00
   -6    2    5     -5.44      0.00
   -5    2    5     -4.22      0.00
   -4    2    5     -4.47      0.00
   -3    2    5      2.55      0.00
   -2    2    5    -24.80      0.00
   -1    2    5     12.53      0.00
    0    2    5     24.05      0.00
    1    2    5     -9.36      0.00
    2    2    5    -15.18      0.00
    3    2    5      6.58      0.00
    4    2    5      1.54      0.00
    5    2    5     -8.46      0.00
    6    2    5     -1.99      0.00
    7    2    5     -1.15      0.00
    8    2    5     -3.77      0.00
    9    2    5      0.58      0.00
  -12    3    5     -1.23      0.00
  -11    3    5     -2.16      0.00
  -10    3    5     -7.11      0.00
   -9    3    5      5.71      0.00
   -8    3    5      8.22      0.00
   -7    3    5     -4.37      0.00
   -6    3    5     11.39      0.00
   -5    3    5      0.54      0.00
   -4    3    5    -29.49      0.00
   -3    3    5     -7.82      0.00
   -2    3    5     39.18      0.00
   -1    3    5      0.34      0.00
    0    3    5     17.84      0.00
    1    3    5      2.97      0.00
    2    3    5    -14.13      0.00
    3    3    5      6.60      0.00
    4    3    5      5.87      0.00
    5    3    5     -8.09      0.00
    6    3    5      1.12      0.00
    7    3    5     -1.43      0.00
    8    3    5     -2.92      0.00
    9    3    5      2.84      0.00
  -12    4    5     -0.30      0.00
  -11    4    5     -1.04      0.00
  -10    4    5      0.35      0.00
   -9    4    5      5.07      0.00
   -8    4    5      7.12      0.00
   -7    4    5      3.90      0.00
   -6    4    5     -0.97      0.00
   -5    4    5    -12.31      0.00
   -4    4    5    -16.56      0.00
   -3    4    5     30.70      0.00
   -2    4    5     23.83      0.00
   -1    4    5     22.18      0.00
    0    4    5     -2.91      0.00
    1    4    5     -2.39      0.00
    2    4    5      3.42      0.00
    3    4    5      4.57      0.00
    4    4    5      1.10      0.00
    5    4    5      3.38      0.00
    6    4    5     -4.52      0.00
    7    4    5      0.16      0.00
    8    4    5      4.51      0.00
  -12    5    5      0.31      0.00
  -11    5    5      0.74      0.00
  -10    5    5      3.38      0.00
   -9    5    5      1.63      0.00
   -8    5    5      5.67      0.00
   -7    5    5      5.69      0.00
   -6    5    5    -16.21      0.00
   -5    5    5     -3.57      0.00
   -4    5    5     27.47      0.00
   -3    5    5     11.53      0.00
   -2    5    5     22.53      0.00
   -1    5    5     13.12      0.00
    0    5    5     -9.54      0.00
    1    5    5     -5.64      0.00
    2    5    5     17.77      0.00
    3    5    5      2.12      0.00
    4    5    5     -0.64      0.00
    5    5    5      3.19      0.00
    6    5    5      1.84      0.00
    7    5    5      1.53      0.00
  -12    6    5      1.95      0.00
  -11    6    5     -1.63      0.00
  -10    6    5      2.51      0.00
   -9    6    5      6.19      0.00
   -8    6    5     -2.31      0.00
   -7    6    5     -0.34      0.00
   -6    6    5      6.72      0.00
   -5    6    5     -7.69      0.00
   -4    6    5     22.83      0.00
   -3    6    5     22.50      0.00
   -2    6    5     -6.40      0.00
   -1    6    5      2.92      0.00
    0    6    5      4.70      0.00
    1    6    5     -0.38      0.00
    2    6    5      8.70      0.00
    3    6    5      6.28      0.00
    4    6    5     -0.17      0.00
    5    6    5      4.46      0.00
    6    6    5      2.45      0.00
    7    6    5      1.48      0.00
  -12    7    5      0.28      0.00
  -11    7    5     -1.38      0.00
  -10    7    5      3.59      0.00
   -9    7    5     -0.03      0.00
   -8    7    5      2.14      0.00
   -7    7    5      5.02      0.00
   -6    7    5    -10.06      0.00
   -5    7    5      9.83      0.00
   -4    7    5     10.05      0.00
   -3    7    5      2.39      0.00
   -2    7    5      5.50      0.00
   -1    7    5     -0.53      0.00
    0    7    5      0.69      0.00
    1    7    5     11.75      0.00
    2    7    5     -2.22      0.00
    3    7    5      4.55      0.00
    4    7    5      9.40      0.00
    5    7    5     -4.86      0.00
    6    7    5      1.59      0.00
    7    7    5      6.20      0.00
  -12    8    5     -1.50      0.00
  -11    8    5      4.41      0.00
  -10    8    5     -3.65      0.00
   -9    8    5      2.17      0.00
   -8    8    5     10.06      0.00
   -7    8    5    -19.41      0.00
   -6    8    5      2.58      0.00
   -5    8    5     13.37      0.00
   -4    8    5    -10.54      0.00
   -3    8    5      4.88      0.00
   -2    8    5     16.98      0.00
   -1    8    5     -8.70      0.00
    0    8    5      2.14      0.00
    1    8    5      6.17      0.00
    2    8    5      0.51      0.00
    3    8    5      3.12      0.00
    4    8    5      0.01      0.00
    5    8    5     -1.00      0.00
    6    8    5      3.38      0.00
    7    8    5      1.16      0.00
  -12    9    5     -0.14      0.00
  -11    9    5     -0.92      0.00
  -10    9    5      1.17      0.00
   -9    9    5      3.71      0.00
   -8    9    5    -13.06      0.00
   -7    9    5      1.00      0.00
   -6    9    5     -1.07      0.00
   -5    9    5     -4.33      0.00
   -4    9    5      6.74      0.00
   -3    9    5      9.50      0.00
   -2    9    5     -2.29      0.00
   -1    9    5      1.73      0.00
    0    9    5     -5.31      0.00
    1    9    5      0.09      0.00
    2    9    5      4.98      0.00
    3    9    5     -2.90      0.00
    4    9    5     -2.98      0.00
    5    9    5      3.80      0.00
    6    9    5      0.38      0.00
  -11   10    5     -1.64      0.00
  -10   10    5      2.04      0.00
   -9   10    5     -7.28      0.00
   -8   10    5     -2.80      0.00
   -7   10    5      1.26      0.00
   -6   10    5     -5.44      0.00
   -5   10    5     -1.12      0.00
   -4   10    5     13.61      0.00
   -3   10    5      1.59      0.00
   -2   10    5    -12.37      0.00
   -1   10    5     -2.55      0.00
    0   10    5      2.21      0.00
    1   10    5     -5.87      0.00
    2   10    5      2.02      0.00
    3   10    5      0.74      0.00
    4   10    5     -3.54      0.00
    5   10    5      0.57      0.00
  -11   11    5     -2.37      0.00
  -10   11    5     -1.93      0.00
   -9   11    5      1.99      0.00
   -8   11    5     -5.25      0.00
   -7   11    5     -3.98      0.00
   -6   11    5      3.18      0.00
   -5   11    5     -0.65      0.00
   -4   11    5      3.59      0.00
   -3   11    5     -4.69      0.00
   -2   11    5     -9.18      0.00
   -1   11    5     -2.13      0.00
    0   11    5      0.15      0.00
    1   11    5     -0.92      0.00
    2   11    5     -1.66      0.00
    3   11    5     -0.73      0.00
    4   11    5     -1.40      0.00
  -11   12    5      1.43      0.00
  -10   12    5      0.97      0.00
   -9   12    5     -5.06      0.00
   -8   12    5     -0.25      0.00
   -7   12    5     -3.72      0.00
   -6   12    5     -2.69      0.00
   -5   12    5      7.72      0.00
   -4   12    5     -6.95      0.00
   -3   12    5     -5.93      0.00
   -2   12    5      2.04      0.00
   -1   12    5     -5.39      0.00
    0   12    5     -2.48      0.00
    1   12    5      3.70      0.00
    2   12    5     -4.22      0.00
    3   12    5     -2.81      0.00
  -11   13    5      1.63      0.00
  -10   13    5     -2.79      0.00
   -9   13    5     -0.56      0.00
   -8   13    5     -2.26      0.00
   -7   13    5     -5.19      0.00
   -6   13    5      1.67      0.00
   -5   13    5      4.59      0.00
   -4   13    5     -3.93      0.00
   -3   13    5     -5.64      0.00
   -2   13    5      2.15      0.00
   -1   13    5     -2.15      0.00
    0   13    5     -3.38      0.00
    1   13    5      1.12      0.00
    2   13    5     -1.22      0.00
  -10   14    5      0.42      0.00
   -9   14    5     -4.96      0.00
   -8   14    5     -3.21      0.00
   -7   14    5      3.17      0.00
   -6   14    5      2.03      0.00
   -5   14    5     -1.80      0.00
   -4   14    5     -0.99      0.00
   -3   14    5      0.99      0.00
   -2   14    5     -5.39      0.00
   -1   14    5     -0.18      0.00
    0   14    5      2.60      0.00
    1   14    5     -4.05      0.00
  -10   15    5     -4.19      0.00
   -9   15    5     -0.06      0.00
   -8   15    5      0.10      0.00
   -7   15    5      2.38      0.00
   -6   15    5      3.34      0.00
   -5   15    5     -6.05      0.00
   -4   15    5      1.91      0.00
   -3   15    5     -0.28      0.00
   -2   15    5     -5.46      0.00
   -1   15    5      3.45      0.00
    0   15    5      0.28      0.00
   -9   16    5      0.58      0.00
   -8   16    5     -0.52      0.00
   -7   16    5      1.62      0.00
   -6   16    5     -0.23      0.00
   -5   16    5     -0.89      0.00
   -4   16    5     -2.64      0.00
   -3   16    5     -1.18      0.00
   -2   16    5      3.52      0.00
   -1   16    5     -1.57      0.00
   -8   17    5      1.43      0.00
   -7   17    5     -1.22      0.00
   -6   17    5     -1.76      0.00
   -5   17    5      1.69      0.00
   -4   17    5      0.07      0.00
   -3   17    5     -0.87      0.00
   -2   17    5      2.37      0.00
   -5   18    5      2.97      0.00
    3  -18    6      0.77      0.00
    4  -18    6     -2.39      0.00
    5  -18    6     -1.26      0.00
    6  -18    6     -1.52      0.00
   -1  -17    6      1.26      0.00
    0  -17    6      0.55      0.00
    3  -17    6     -0.93      0.00
    4  -17    6     -4.88      0.00
    5  -17    6     -0.71      0.00
    6  -17    6      2.14      0.00
    7  -17    6     -1.48      0.00
   -2  -16    6     -1.73      0.00
   -1  -16    6      0.31      0.00
    0  -16    6     -0.68      0.00
    2  -16    6     -2.24      0.00
    3  -16    6     -0.88      0.00
    4  -16    6     -0.27      0.00
    5  -16    6      1.18      0.00
    6  -16    6     -0.90      0.00
    7  -16    6      1.26      0.00
    8  -16    6     -2.46      0.00
   -3  -15    6     -2.96      0.00
   -2  -15    6      3.99      0.00
   -1  -15    6     -1.35      0.00
    0  -15    6     -2.84      0.00
    1  -15    6      3.51      0.00
    2  -15    6     -1.78      0.00
    3  -15    6     -2.50      0.00
    4  -15    6      5.57      0.00
    5  -15    6     -1.96      0.00
    6  -15    6     -2.57      0.00
    7  -15    6     -0.83      0.00
    8  -15    6     -1.61      0.00
   -4  -14    6      0.57      0.00
   -3  -14    6     -3.00      0.00
   -2  -14    6      3.00      0.00
   -1  -14    6      0.01      0.00
    0  -14    6     -0.46      0.00
    1  -14    6      2.91      0.00
    2  -14    6      0.05      0.00
    3  -14    6     -0.96      0.00
    4  -14    6      0.87      0.00
    5  -14    6     -1.87      0.00
    6  -14    6     -3.36      0.00
    7  -14    6     -1.08      0.00
    8  -14    6      2.84      0.00
    9  -14    6      1.41      0.00
   -5  -13    6      0.95      0.00
   -4  -13    6      1.39      0.00
   -3  -13    6      1.93      0.00
   -2  -13    6     -2.64      0.00
   -1  -13    6      6.41      0.00
    0  -13    6      2.38      0.00
    1  -13    6     -2.59      0.00
    2  -13    6      1.20      0.00
    3  -13    6      2.67      0.00
    4  -13    6     -6.66      0.00
    5  -13    6      0.42      0.00
    6  -13    6      3.61      0.00
    7  -13    6      1.38      0.00
    8  -13    6     -0.75      0.00
    9  -13    6      2.35      0.00
   -6  -12    6      5.80      0.00
   -5  -12    6     -0.62      0.00
   -4  -12    6     -0.22      0.00
   -3  -12    6      6.67      0.00
   -2  -12    6      0.56      0.00
   -1  -12    6     -0.70      0.00
    0  -12    6      9.91      0.00
    1  -12    6     -4.80      0.00
    2  -12    6     -1.40      0.00
    3  -12    6      3.31      0.00
    4  -12    6      0.15      0.00
    6  -12    6      8.04      0.00
    7  -12    6     -4.09      0.00
    8  -12    6      0.90      0.00
    9  -12    6      3.85      0.00
   -6  -11    6      3.92      0.00
   -5  -11    6      0.63      0.00
   -4  -11    6      0.48      0.00
   -3  -11    6      4.11      0.00
   -2  -11    6      3.40      0.00
   -1  -11    6      4.18      0.00
    0  -11    6      2.75      0.00
    1  -11    6      0.51      0.00
    2  -11    6      0.05      0.00
    3  -11    6      3.33      0.00
    4  -11    6      8.18      0.00
    6  -11    6     -5.96      0.00
    7  -11    6      3.21      0.00
    8  -11    6      4.78      0.00
    9  -11    6     -4.83      0.00
   10  -11    6      2.40      0.00
   -7  -10    6      4.03      0.00
   -6  -10    6     -3.18      0.00
   -5  -10    6      4.39      0.00
   -4  -10    6      3.23      0.00
   -3  -10    6     -4.34      0.00
   -2  -10    6     11.67      0.00
   -1  -10    6      8.76      0.00
    0  -10    6     -9.93      0.00
    1  -10    6      8.69      0.00
    2  -10    6      5.09      0.00
    3  -10    6     -1.34      0.00
    4  -10    6     12.90      0.00
    5  -10    6     -1.76      0.00
    6  -10    6     -2.22      0.00
    7  -10    6      5.84      0.00
    8  -10    6     -0.43      0.00
    9  -10    6      0.12      0.00
   10  -10    6      1.79      0.00
   -7   -9    6      1.23      0.00
   -6   -9    6     -3.24      0.00
   -5   -9    6      1.19      0.00
   -4   -9    6      3.18      0.00
   -3   -9    6      0.13      0.00
   -2   -9    6      9.17      0.00
   -1   -9    6      2.99      0.00
    0   -9    6     -0.25      0.00
    1   -9    6     -0.81      0.00
    2   -9    6      3.60      0.00
    3   -9    6      7.84      0.00
    4   -9    6     -2.77      0.00
    5   -9    6      3.08      0.00
    6   -9    6      4.51      0.00
    7   -9    6      0.18      0.00
    8   -9    6      2.38      0.00
    9   -9    6      1.77      0.00
   10   -9    6     -1.18      0.00
   -9   -8    6      2.06      0.00
   -8   -8    6     -1.79      0.00
   -7   -8    6     -2.42      0.00
   -6   -8    6      2.04      0.00
   -5   -8    6     -3.83      0.00
   -4   -8    6     -1.30      0.00
   -3   -8    6     14.05      0.00
   -2   -8    6     -3.71      0.00
   -1   -8    6      0.47      0.00
    0   -8    6      4.28      0.00
    1   -8    6    -10.49      0.00
    2   -8    6     -1.49      0.00
    3   -8    6      6.68      0.00
    4   -8    6     -1.64      0.00
    6   -8    6      6.50      0.00
    7   -8    6      1.36      0.00
    8   -8    6     -2.89      0.00
    9   -8    6      1.83      0.00
   10   -8    6     -2.16      0.00
   -9   -7    6      0.68      0.00
   -8   -7    6     -3.57      0.00
   -7   -7    6     -2.95      0.00
   -6   -7    6      2.47      0.00
   -5   -7    6     -5.90      0.00
   -4   -7    6     -0.47      0.00
   -3   -7    6     10.79      0.00
   -2   -7    6     -0.51      0.00
   -1   -7    6    -13.34      0.00
    0   -7    6     -1.88      0.00
    1   -7    6    -12.10      0.00
    2   -7    6     -9.97      0.00
    3   -7    6      7.37      0.00
    4   -7    6     10.43      0.00
    6   -7    6      1.49      0.00
    7   -7    6     -4.16      0.00
    8   -7    6     -1.27      0.00
    9   -7    6     -0.46      0.00
   10   -7    6     -2.61      0.00
  -10   -6    6      0.09      0.00
   -9   -6    6     -2.67      0.00
   -8   -6    6      0.80      0.00
   -7   -6    6     -4.83      0.00
   -6   -6    6     -7.58      0.00
   -5   -6    6      1.38      0.00
   -4   -6    6      2.36      0.00
   -3   -6    6     -3.33      0.00
   -2   -6    6     -1.59      0.00
   -1   -6    6    -12.50      0.00
    0   -6    6    -26.06      0.00
    1   -6    6     -8.36      0.00
    2   -6    6      4.51      0.00
    3   -6    6      6.87      0.00
    5   -6    6     -3.81      0.00
    6   -6    6    -13.57      0.00
    7   -6    6      0.84      0.00
    8   -6    6      1.54      0.00
    9   -6    6     -3.38      0.00
   10   -6    6     -0.89      0.00
  -10   -5    6     -0.36      0.00
   -9   -5    6     -1.38      0.00
   -8   -5    6     -3.73      0.00
   -7   -5    6     -4.18      0.00
   -6   -5    6    -10.19      0.00
   -5   -5    6      3.05      0.00
   -4   -5    6      5.43      0.00
   -3   -5    6    -13.88      0.00
   -2   -5    6    -11.28      0.00
   -1   -5    6     -5.60      0.00
    0   -5    6    -37.19      0.00
    1   -5    6     -4.19      0.00
    2   -5    6     24.41      0.00
    3   -5    6     -6.40      0.00
    4   -5    6    -12.61      0.00
    5   -5    6     -8.11      0.00
    6   -5    6     -4.45      0.00
    7   -5    6      0.14      0.00
    8   -5    6      2.10      0.00
    9   -5    6     -5.93      0.00
   10   -5    6      2.41      0.00
  -10   -4    6      1.57      0.00
   -9   -4    6     -4.26      0.00
   -8   -4    6     -5.92      0.00
   -7   -4    6     -1.81      0.00
   -6   -4    6     -3.57      0.00
   -5   -4    6     -6.84      0.00
   -4   -4    6      6.25      0.00
   -3   -4    6     -9.71      0.00
   -1   -4    6    -28.80      0.00
    0   -4    6    -14.20      0.00
    1   -4    6      9.63      0.00
    2   -4    6     -4.46      0.00
    3   -4    6    -11.23      0.00
    4   -4    6    -12.05      0.00
    5   -4    6     -5.80      0.00
    6   -4    6      2.50      0.00
    7   -4    6     -0.43      0.00
    8   -4    6     -7.07      0.00
    9   -4    6      1.71      0.00
   10   -4    6     -2.49      0.00
  -11   -3    6      0.03      0.00
  -10   -3    6     -4.05      0.00
   -9   -3    6      0.31      0.00
   -8   -3    6     -1.39      0.00
   -7   -3    6     -8.61      0.00
   -6   -3    6      0.59      0.00
   -5   -3    6      5.37      0.00
   -4   -3    6    -11.58      0.00
   -3   -3    6     17.96      0.00
   -2   -3    6    -30.09      0.00
   -1   -3    6    -43.61      0.00
    0   -3    6     23.17      0.00
    1   -3    6     -7.78      0.00
    2   -3    6    -25.00      0.00
    3   -3    6     10.68      0.00
    4   -3    6     -5.49      0.00
    5   -3    6     -8.71      0.00
    6   -3    6      5.22      0.00
    7   -3    6     -4.79      0.00
    8   -3    6     -5.55      0.00
    9   -3    6     -1.49      0.00
   10   -3    6     -1.68      0.00
  -11   -2    6     -2.14      0.00
  -10   -2    6     -0.97      0.00
   -9   -2    6      4.89      0.00
   -8   -2    6     -4.97      0.00
   -7   -2    6     -7.20      0.00
   -6   -2    6     12.01      0.00
   -5   -2    6      4.46      0.00
   -4   -2    6      4.52      0.00
   -3   -2    6    -12.82      0.00
   -2   -2    6    -28.52      0.00
   -1   -2    6     -9.62      0.00
    0   -2    6     -5.79      0.00
    1   -2    6      4.23      0.00
    2   -2    6     12.95      0.00
    3   -2    6     -3.85      0.00
    4   -2    6     -0.34      0.00
    5   -2    6     -0.76      0.00
    6   -2    6     -4.38      0.00
    7   -2    6     -5.00      0.00
    8   -2    6     -3.25      0.00
    9   -2    6     -2.34      0.00
   10   -2    6      1.17      0.00
  -11   -1    6      1.12      0.00
  -10   -1    6      4.73      0.00
   -9   -1    6     -5.52      0.00
   -8   -1    6      0.25      0.00
   -7   -1    6      8.60      0.00
   -6   -1    6     -1.51      0.00
   -5   -1    6     16.18      0.00
   -4   -1    6      2.41      0.00
   -3   -1    6    -37.28      0.00
   -2   -1    6     -5.72      0.00
   -1   -1    6     10.52      0.00
    0   -1    6      3.98      0.00
    1   -1    6     27.04      0.00
    2   -1    6     14.39      0.00
    3   -1    6     -5.90      0.00
    4   -1    6     -5.03      0.00
    5   -1    6      3.68      0.00
    6   -1    6     -9.11      0.00
    7   -1    6     -1.52      0.00
    8   -1    6      1.82      0.00
    9   -1    6     -2.76      0.00
  -11    0    6      2.38      0.00
  -10    0    6      0.77      0.00
   -9    0    6      0.37      0.00
   -8    0    6      1.20      0.00
   -7    0    6      8.30      0.00
   -6    0    6      8.32      0.00
   -5    0    6     -1.31      0.00
   -4    0    6      1.34      0.00
   -3    0    6    -12.06      0.00
   -2    0    6     -6.15      0.00
   -1    0    6     42.56      0.00
    0    0    6     22.16      0.00
    1    0    6     -1.79      0.00
    2    0    6     25.30      0.00
    3    0    6     -8.91      0.00
    4    0    6     -7.01      0.00
    5    0    6      3.22      0.00
    6    0    6      4.84      0.00
    7    0    6     -1.75      0.00
    8    0    6     -0.45      0.00
    9    0    6     -1.63      0.00
  -12    1    6      0.82      0.00
  -11    1    6      0.53      0.00
  -10    1    6      5.53      0.00
   -9    1    6      1.32      0.00
   -8    1    6     -1.86      0.00
   -7    1    6      8.68      0.00
   -6    1    6      7.49      0.00
   -5    1    6     -1.57      0.00
   -4    1    6      0.34      0.00
   -3    1    6      9.08      0.00
   -2    1    6     23.58      0.00
   -1    1    6      2.57      0.00
    0    1    6     18.20      0.00
    1    1    6     37.71      0.00
    2    1    6    -18.25      0.00
    3    1    6      1.49      0.00
    4    1    6      7.37      0.00
    5    1    6      5.28      0.00
    6    1    6      2.79      0.00
    7    1    6      2.94      0.00
    8    1    6     -4.80      0.00
    9    1    6      4.52      0.00
  -12    2    6      1.95      0.00
  -11    2    6      5.13      0.00
  -10    2    6     -4.07      0.00
   -9    2    6     -1.88      0.00
   -8    2    6      7.82      0.00
   -7    2    6     -4.49      0.00
   -6    2    6      8.85      0.00
   -5    2    6     19.77      0.00
   -4    2    6    -13.33      0.00
   -3    2    6     19.64      0.00
   -2    2    6     -0.62      0.00
   -1    2    6     -1.09      0.00
    0    2    6     49.49      0.00
    1    2    6      3.58      0.00
    2    2    6    -13.60      0.00
    3    2    6      8.44      0.00
    4    2    6     14.36      0.00
    5    2    6     -1.30      0.00
    6    2    6      5.71      0.00
    7    2    6      1.07      0.00
    8    2    6      1.28      0.00
    9    2    6      1.29      0.00
  -12    3    6      1.62      0.00
  -11    3    6     -1.26      0.00
  -10    3    6     -5.78      0.00
   -9    3    6      3.15      0.00
   -8    3    6      2.83      0.00
   -7    3    6      2.56      0.00
   -6    3    6     15.08      0.00
   -5    3    6      5.33      0.00
   -4    3    6     -2.99      0.00
   -3    3    6    -27.64      0.00
   -2    3    6     18.87      0.00
   -1    3    6     38.75      0.00
    0    3    6     -0.15      0.00
    1    3    6     -0.62      0.00
    2    3    6      8.13      0.00
    3    3    6      1.94      0.00
    4    3    6      2.86      0.00
    5    3    6      9.12      0.00
    6    3    6      1.39      0.00
    7    3    6     -0.66      0.00
    8    3    6      1.99      0.00
  -12    4    6     -0.78      0.00
  -11    4    6     -3.70      0.00
  -10    4    6      5.42      0.00
   -9    4    6     -1.28      0.00
   -8    4    6     -0.90      0.00
   -7    4    6     16.96      0.00
   -6    4    6     -0.02      0.00
   -5    4    6    -17.42      0.00
   -4    4    6    -15.77      0.00
   -3    4    6      8.98      0.00
   -2    4    6     10.42      0.00
   -1    4    6     26.94      0.00
    0    4    6      0.04      0.00
    1    4    6     -9.30      0.00
    2    4    6      8.04      0.00
    3    4    6     -0.26      0.00
    4    4    6     -0.87      0.00
    5    4    6      9.57      0.00
    6    4    6     -2.18      0.00
    7    4    6     -3.07      0.00
    8    4    6      4.52      0.00
  -12    5    6      0.38      0.00
  -11    5    6      0.86      0.00
  -10    5    6      1.63      0.00
   -9    5    6     -1.50      0.00
   -8    5    6      1.40      0.00
   -7    5    6      6.24      0.00
   -6    5    6    -13.09      0.00
   -5    5    6    -26.93      0.00
   -4    5    6     15.28      0.00
   -3    5    6      5.38      0.00
   -2    5    6     10.79      0.00
   -1    5    6      5.28      0.00
    0    5    6     -0.46      0.00
    1    5    6     -8.21      0.00
    2    5    6     -4.85      0.00
    3    5    6      0.51      0.00
    4    5    6      5.82      0.00
    5    5    6     -4.04      0.00
    6    5    6     -1.08      0.00
  -12    6    6      1.50      0.00
  -11    6    6      1.98      0.00
  -10    6    6     -5.47      0.00
   -9    6    6      1.72      0.00
   -8    6    6      2.51      0.00
   -7    6    6    -15.08      0.00
   -6    6    6     -7.51      0.00
   -5    6    6      6.95      0.00
   -4    6    6    -12.41      0.00
   -3    6    6     11.41      0.00
   -2    6    6      8.32      0.00
   -1    6    6    -11.75      0.00
    0    6    6     -5.46      0.00
    1    6    6     -0.69      0.00
    2    6    6    -13.32      0.00
    3    6    6      3.09      0.00
    4    6    6      2.60      0.00
    5    6    6     -4.13      0.00
    6    6    6     -1.29      0.00
    7    6    6      1.81      0.00
  -12    7    6      0.61      0.00
  -11    7    6     -0.96      0.00
  -10    7    6     -2.16      0.00
   -9    7    6     -3.97      0.00
   -8    7    6     -2.58      0.00
   -7    7    6     -3.80      0.00
   -6    7    6     -4.99      0.00
   -5    7    6     -0.15      0.00
   -4    7    6     -5.49      0.00
   -3    7    6     -4.89      0.00
   -2    7    6      5.35      0.00
   -1    7    6     -6.65      0.00
    0    7    6    -11.15      0.00
    1    7    6     -3.84      0.00
    2    7    6     -3.69      0.00
    3    7    6     -3.00      0.00
    4    7    6      3.13      0.00
    5    7    6     -2.89      0.00
    6    7    6     -2.24      0.00
    7    7    6      2.05      0.00
  -12    8    6     -1.99      0.00
  -11    8    6     -0.78      0.00
  -10    8    6     -3.72      0.00
   -9    8    6     -3.08      0.00
   -8    8    6      3.41      0.00
   -7    8    6     -4.76      0.00
   -6    8    6     -5.94      0.00
   -5    8    6     -4.77      0.00
   -4    8    6     -6.58      0.00
   -3    8    6     -1.17      0.00
   -2    8    6     -2.67      0.00
   -1    8    6     -0.93      0.00
    0    8    6     -5.96      0.00
    1    8    6    -11.57      0.00
    2    8    6      1.94      0.00
    3    8    6      2.60      0.00
    4    8    6     -7.47      0.00
    5    8    6     -0.04      0.00
    6    8    6      0.30      0.00
  -10    9    6      0.48      0.00
   -9    9    6      6.89      0.00
   -8    9    6    -12.01      0.00
   -7    9    6      2.61      0.00
   -6    9    6     -2.26      0.00
   -5    9    6    -19.34      0.00
   -4    9    6      4.79      0.00
   -3    9    6      8.26      0.00
   -2    9    6     -9.44      0.00
   -1    9    6      1.84      0.00
    0    9    6     -6.77      0.00
    1    9    6     -8.99      0.00
    2    9    6      3.11      0.00
    3    9    6     -2.37      0.00
    4    9    6     -4.00      0.00
    5    9    6     -1.07      0.00
    6    9    6     -0.68      0.00
  -11   10    6     -0.63      0.00
  -10   10    6      3.88      0.00
   -9   10    6     -6.84      0.00
   -8   10    6      2.29      0.00
   -7   10    6     -3.10      0.00
   -6   10    6     -9.71      0.00
   -5   10    6     -1.07      0.00
   -4   10    6      8.15      0.00
   -3   10    6      0.10      0.00
   -2   10    6      1.50      0.00
   -1   10    6    -11.26      0.00
    0   10    6     -3.54      0.00
    1   10    6      0.89      0.00
    2   10    6     -4.92      0.00
    3   10    6      0.02      0.00
    4   10    6      0.44      0.00
    5   10    6     -3.56      0.00
  -11   11    6      3.10      0.00
  -10   11    6     -4.81      0.00
   -9   11    6      3.54      0.00
   -8   11    6      0.85      0.00
   -7   11    6     -9.57      0.00
   -6   11    6     -0.58      0.00
   -5   11    6     11.55      0.00
   -4   11    6     -3.30      0.00
   -3   11    6     -1.13      0.00
   -2   11    6      1.09      0.00
   -1   11    6     -5.33      0.00
    0   11    6     -4.97      0.00
    1   11    6      4.28      0.00
    2   11    6     -1.04      0.00
    3   11    6     -0.70      0.00
    4   11    6     -0.09      0.00
  -11   12    6     -0.82      0.00
  -10   12    6      4.70      0.00
   -9   12    6     -3.23      0.00
   -8   12    6     -0.75      0.00
   -7   12    6      0.65      0.00
   -6   12    6     -0.73      0.00
   -5   12    6      5.82      0.00
   -4   12    6      0.44      0.00
   -3   12    6     -2.14      0.00
   -2   12    6      2.70      0.00
   -1   12    6     -1.71      0.00
    0   12    6     -1.02      0.00
    1   12    6      2.74      0.00
    2   12    6      2.96      0.00
    3   12    6     -0.79      0.00
  -11   13    6      2.18      0.00
  -10   13    6     -1.75      0.00
   -9   13    6      2.12      0.00
   -8   13    6     -0.54      0.00
   -7   13    6     -0.56      0.00
   -6   13    6      4.98      0.00
   -5   13    6     -2.24      0.00
   -4   13    6      4.62      0.00
   -3   13    6      4.98      0.00
   -2   13    6     -4.94      0.00
   -1   13    6      1.72      0.00
    0   13    6      5.64      0.00
    1   13    6     -0.73      0.00
    2   13    6      3.85      0.00
  -10   14    6      1.77      0.00
   -9   14    6      0.15      0.00
   -8   14    6     -3.68      0.00
   -7   14    6      4.21      0.00
   -6   14    6      3.54      0.00
   -5   14    6     -1.53      0.00
   -4   14    6      4.09      0.00
   -3   14    6      4.32      0.00
   -2   14    6     -3.90      0.00
   -1   14    6      1.95      0.00
    0   14    6      5.91      0.00
    1   14    6      2.55      0.00
  -10   15    6     -1.62      0.00
   -9   15    6     -0.75      0.00
   -8   15    6      2.38      0.00
   -7   15    6     -0.13      0.00
   -6   15    6      1.83      0.00
   -5   15    6      3.58      0.00
   -4   15    6      1.59      0.00
   -3   15    6     -2.35      0.00
   -2   15    6      1.53      0.00
   -1   15    6      3.74      0.00
    0   15    6      1.83      0.00
   -9   16    6      0.81      0.00
   -8   16    6      0.74      0.00
   -7   16    6      0.69      0.00
   -6   16    6     -0.78      0.00
   -5   16    6      5.28      0.00
   -4   16    6     -1.43      0.00
   -3   16    6     -3.57      0.00
   -2   16    6      5.16      0.00
   -1   16    6      1.68      0.00
   -7   17    6      0.68      0.00
   -6   17    6      0.34      0.00
   -5   17    6     -0.29      0.00
   -4   17    6      0.93      0.00
   -3   17    6      1.08      0.00
    3  -18    7      1.43      0.00
    4  -18    7     -1.84      0.00
    5  -18    7     -1.62      0.00
   -1  -17    7      1.19      0.00
    0  -17    7      0.40      0.00
    3  -17    7     -1.08      0.00
    4  -17    7     -1.07      0.00
    5  -17    7      0.00      0.00
    6  -17    7      0.55      0.00
   -2  -16    7      2.84      0.00
   -1  -16    7      0.49      0.00
    0  -16    7     -3.27      0.00
    2  -16    7     -2.20      0.00
    3  -16    7     -2.88      0.00
    4  -16    7      4.39      0.00
    6  -16    7     -0.17      0.00
    7  -16    7      2.98      0.00
   -3  -15    7     -1.06      0.00
   -2  -15    7      2.76      0.00
   -1  -15    7      1.53      0.00
    0  -15    7     -0.33      0.00
    1  -15    7      0.11      0.00
    2  -15    7      2.57      0.00
    3  -15    7      0.41      0.00
    4  -15    7      4.03      0.00
    5  -15    7      2.44      0.00
    6  -15    7      3.44      0.00
    7  -15    7     -1.20      0.00
    8  -15    7     -1.02      0.00
   -4  -14    7      2.51      0.00
   -3  -14    7      3.42      0.00
   -2  -14    7     -2.07      0.00
   -1  -14    7      0.91      0.00
    0  -14    7      3.98      0.00
    1  -14    7     -0.51      0.00
    2  -14    7      1.19      0.00
    3  -14    7      7.30      0.00
    4  -14    7     -1.90      0.00
    5  -14    7      2.89      0.00
    6  -14    7      2.37      0.00
    7  -14    7     -4.09      0.00
    8  -14    7     -0.64      0.00
   -5  -13    7      0.36      0.00
   -4  -13    7     -0.71      0.00
   -3  -13    7      4.66      0.00
   -2  -13    7     -2.74      0.00
   -1  -13    7      0.56      0.00
    0  -13    7      6.36      0.00
    1  -13    7     -1.94      0.00
    2  -13    7      2.16      0.00
    3  -13    7      3.43      0.00
    4  -13    7     -1.28      0.00
    5  -13    7     -0.04      0.00
    6  -13    7      0.48      0.00
    7  -13    7      1.26      0.00
    8  -13    7      0.26      0.00
    9  -13    7     -1.07      0.00
   -6  -12    7      0.01      0.00
   -5  -12    7      2.26      0.00
   -4  -12    7     -1.30      0.00
   -3  -12    7     -1.78      0.00
   -2  -12    7      4.79      0.00
   -1  -12    7     -1.26      0.00
    0  -12    7     -0.66      0.00
    1  -12    7      5.42      0.00
    2  -12    7     -1.73      0.00
    3  -12    7     -6.39      0.00
    4  -12    7      4.71      0.00
    5  -12    7      1.93      0.00
    6  -12    7      1.03      0.00
    7  -12    7      0.33      0.00
    8  -12    7     -0.32      0.00
    9  -12    7     -0.51      0.00
   -6  -11    7     -2.23      0.00
   -5  -11    7      1.03      0.00
   -4  -11    7      0.47      0.00
   -3  -11    7     -5.54      0.00
   -2  -11    7      1.63      0.00
   -1  -11    7      5.41      0.00
    0  -11    7     -6.24      0.00
    1  -11    7      1.50      0.00
    2  -11    7     -3.04      0.00
    3  -11    7     -5.64      0.00
    4  -11    7      4.65      0.00
    6  -11    7     -6.22      0.00
    7  -11    7      0.36      0.00
    8  -11    7      3.03      0.00
    9  -11    7     -4.63      0.00
   -7  -10    7      0.80      0.00
   -6  -10    7     -2.95      0.00
   -5  -10    7     -3.69      0.00
   -4  -10    7      0.74      0.00
   -3  -10    7     -4.96      0.00
   -2  -10    7      0.08      0.00
   -1  -10    7      2.26      0.00
    0  -10    7     -4.03      0.00
    1  -10    7     -6.68      0.00
    2  -10    7     -3.83      0.00
    3  -10    7     -0.36      0.00
    4  -10    7      4.63      0.00
    5  -10    7     -5.22      0.00
    6  -10    7      2.20      0.00
    7  -10    7      0.93      0.00
    8  -10    7     -7.23      0.00
    9  -10    7      1.85      0.00
   10  -10    7     -1.95      0.00
   -8   -9    7     -1.56      0.00
   -7   -9    7     -3.86      0.00
   -6   -9    7     -0.08      0.00
   -5   -9    7     -5.95      0.00
   -4   -9    7     -7.92      0.00
   -3   -9    7      5.85      0.00
   -2   -9    7     -4.27      0.00
   -1   -9    7     -9.04      0.00
    0   -9    7      6.62      0.00
    1   -9    7    -12.40      0.00
    2   -9    7    -12.37      0.00
    3   -9    7     10.11      0.00
    4   -9    7    -10.08      0.00
    5   -9    7     -1.12      0.00
    6   -9    7      5.45      0.00
    7   -9    7     -8.07      0.00
    8   -9    7     -1.71      0.00
    9   -9    7      1.28      0.00
   10   -9    7     -1.00      0.00
   -9   -8    7     -0.02      0.00
   -8   -8    7     -3.46      0.00
   -7   -8    7     -5.53      0.00
   -6   -8    7     -2.00      0.00
   -5   -8    7     -4.77      0.00
   -4   -8    7     -7.37      0.00
   -3   -8    7      4.93      0.00
   -2   -8    7     -5.08      0.00
   -1   -8    7     -2.54      0.00
    0   -8    7     -3.35      0.00
    1   -8    7    -11.93      0.00
    2   -8    7     -7.87      0.00
    3   -8    7    -10.13      0.00
    4   -8    7      2.17      0.00
    5   -8    7      2.36      0.00
    6   -8    7     -6.19      0.00
    7   -8    7     -0.75      0.00
    8   -8    7      0.07      0.00
    9   -8    7     -2.90      0.00
   10   -8    7     -0.32      0.00
   -9   -7    7     -3.07      0.00
   -8   -7    7     -1.03      0.00
   -7   -7    7     -3.08      0.00
   -6   -7    7     -5.13      0.00
   -5   -7    7     -1.24      0.00
   -4   -7    7      3.11      0.00
   -3   -7    7    -10.36      0.00
   -2   -7    7     10.32      0.00
   -1   -7    7      0.50      0.00
    0   -7    7    -19.65      0.00
    1   -7    7    -10.10      0.00
    2   -7    7    -12.09      0.00
    3   -7    7     -8.18      0.00
    4   -7    7      9.85      0.00
    5   -7    7      2.00      0.00
    6   -7    7     -5.77      0.00
    7   -7    7     -1.55      0.00
    8   -7    7     -1.60      0.00
    9   -7    7     -2.91      0.00
   10   -7    7     -1.51      0.00
  -10   -6    7      0.38      0.00
   -9   -6    7     -2.18      0.00
   -8   -6    7      1.00      0.00
   -7   -6    7      3.22      0.00
   -6   -6    7     -7.33      0.00
   -5   -6    7      2.06      0.00
   -4   -6    7      4.29      0.00
   -3   -6    7     -0.43      0.00
   -2   -6    7      2.43      0.00
   -1   -6    7      2.84      0.00
    0   -6    7    -25.33      0.00
    1   -6    7    -19.76      0.00
    2   -6    7      4.97      0.00
    3   -6    7      7.64      0.00
    4   -6    7      5.80      0.00
    5   -6    7      1.58      0.00
    6   -6    7     -8.66      0.00
    7   -6    7     -3.93      0.00
    8   -6    7      0.02      0.00
    9   -6    7     -2.70      0.00
   10   -6    7      0.79      0.00
  -10   -5    7     -0.20      0.00
   -9   -5    7      3.33      0.00
   -8   -5    7      1.44      0.00
   -7   -5    7     -0.01      0.00
   -6   -5    7      3.08      0.00
   -5   -5    7     -1.61      0.00
   -3   -5    7     10.09      0.00
   -2   -5    7     -3.28      0.00
   -1   -5    7    -13.15      0.00
    0   -5    7     -9.72      0.00
    1   -5    7     -3.02      0.00
    2   -5    7     11.87      0.00
    3   -5    7     19.28      0.00
    4   -5    7     -1.92      0.00
    5   -5    7    -13.52      0.00
    6   -5    7      1.98      0.00
    7   -5    7      0.03      0.00
    8   -5    7     -2.87      0.00
    9   -5    7      1.63      0.00
   10   -5    7      1.94      0.00
  -10   -4    7      0.75      0.00
   -9   -4    7      4.99      0.00
   -8   -4    7      0.97      0.00
   -7   -4    7     -0.95      0.00
   -6   -4    7      9.47      0.00
   -5   -4    7     -0.28      0.00
   -4   -4    7     -1.56      0.00
   -3   -4    7     16.60      0.00
   -2   -4    7      1.97      0.00
   -1   -4    7    -23.41      0.00
    0   -4    7     14.60      0.00
    1   -4    7     20.53      0.00
    2   -4    7      3.81      0.00
    3   -4    7      7.46      0.00
    4   -4    7     -4.57      0.00
    5   -4    7     -3.74      0.00
    6   -4    7      5.45      0.00
    7   -4    7      1.21      0.00
    8   -4    7     -2.82      0.00
    9   -4    7      6.23      0.00
   10   -4    7     -1.86      0.00
  -11   -3    7      0.81      0.00
  -10   -3    7     -1.26      0.00
   -9   -3    7      3.29      0.00
   -8   -3    7      5.63      0.00
   -7   -3    7      1.24      0.00
   -6   -3    7     -1.98      0.00
   -5   -3    7      9.65      0.00
   -4   -3    7      4.23      0.00
   -3   -3    7     13.76      0.00
   -2   -3    7      0.89      0.00
   -1   -3    7      2.45      0.00
    0   -3    7     15.86      0.00
    1   -3    7     10.58      0.00
    2   -3    7      1.26      0.00
    3   -3    7      2.12      0.00
    4   -3    7      7.59      0.00
    5   -3    7      5.18      0.00
    6   -3    7      0.90      0.00
    7   -3    7      1.01      0.00
    8   -3    7      7.37      0.00
    9   -3    7     -3.00      0.00
  -11   -2    7     -1.98      0.00
  -10   -2    7      3.52      0.00
   -9   -2    7      4.25      0.00
   -8   -2    7      1.34      0.00
   -7   -2    7      2.50      0.00
   -6   -2    7      0.46      0.00
   -5   -2    7      5.50      0.00
   -4   -2    7     29.81      0.00
   -3   -2    7     -7.98      0.00
   -2   -2    7     -0.40      0.00
   -1   -2    7     29.98      0.00
    0   -2    7    -17.17      0.00
    1   -2    7     -5.16      0.00
    2   -2    7     32.78      0.00
    3   -2    7      7.23      0.00
    4   -2    7      1.69      0.00
    5   -2    7     11.75      0.00
    6   -2    7     -0.75      0.00
    7   -2    7      4.47      0.00
    8   -2    7      1.27      0.00
    9   -2    7     -2.57      0.00
  -11   -1    7      0.71      0.00
  -10   -1    7      8.61      0.00
   -9   -1    7     -3.29      0.00
   -8   -1    7     -0.74      0.00
   -7   -1    7      9.70      0.00
   -6   -1    7     -3.02      0.00
   -5   -1    7     13.74      0.00
   -4   -1    7     13.76      0.00
   -3   -1    7     -5.73      0.00
   -2   -1    7      2.13      0.00
   -1   -1    7     -7.57      0.00
    0   -1    7     -4.49      0.00
    1   -1    7     27.29      0.00
    2   -1    7     24.31      0.00
    3   -1    7      7.13      0.00
    4   -1    7      2.36      0.00
    5   -1    7      1.55      0.00
    6   -1    7      3.86      0.00
    7   -1    7      0.63      0.00
    8   -1    7      0.22      0.00
    9   -1    7      1.84      0.00
  -11    0    7      3.56      0.00
  -10    0    7     -4.14      0.00
   -9    0    7      3.18      0.00
   -8    0    7      4.27      0.00
   -7    0    7     -6.64      0.00
   -6    0    7     14.40      0.00
   -5    0    7      2.58      0.00
   -4    0    7    -11.06      0.00
   -3    0    7     11.48      0.00
   -2    0    7    -15.31      0.00
   -1    0    7    -19.58      0.00
    0    0    7     40.26      0.00
    1    0    7     23.62      0.00
    2    0    7     -0.67      0.00
    3    0    7      6.29      0.00
    4    0    7     -1.87      0.00
    5    0    7     -6.50      0.00
    6    0    7      7.80      0.00
    7    0    7      3.77      0.00
    8    0    7     -2.19      0.00
    9    0    7      2.49      0.00
  -12    1    7      0.98      0.00
  -11    1    7     -2.45      0.00
  -10    1    7     -0.67      0.00
   -9    1    7      5.60      0.00
   -8    1    7     -0.86      0.00
   -7    1    7     -3.99      0.00
   -6    1    7      0.07      0.00
   -5    1    7      2.04      0.00
   -4    1    7     -9.95      0.00
   -3    1    7    -10.58      0.00
   -2    1    7      1.51      0.00
   -1    1    7      0.96      0.00
    0    1    7     11.06      0.00
    1    1    7     25.49      0.00
    2    1    7    -10.89      0.00
    3    1    7     -9.94      0.00
    4    1    7     -1.74      0.00
    5    1    7      4.13      0.00
    6    1    7      1.31      0.00
    7    1    7      2.70      0.00
    8    1    7     -0.63      0.00
    9    1    7      2.81      0.00
  -12    2    7     -1.36      0.00
  -11    2    7      2.57      0.00
  -10    2    7      1.17      0.00
   -9    2    7     -4.55      0.00
   -8    2    7     -0.54      0.00
   -7    2    7     -7.15      0.00
   -6    2    7     -8.74      0.00
   -5    2    7      5.54      0.00
   -4    2    7     -8.30      0.00
   -3    2    7     -9.15      0.00
   -2    2    7    -11.69      0.00
   -1    2    7      4.45      0.00
    0    2    7     18.29      0.00
    1    2    7    -12.83      0.00
    2    2    7     -2.99      0.00
    3    2    7    -11.36      0.00
    4    2    7     -0.84      0.00
    5    2    7      2.27      0.00
    6    2    7      2.61      0.00
    7    2    7     -3.20      0.00
    8    2    7      4.28      0.00
  -12    3    7      0.60      0.00
  -11    3    7     -2.38      0.00
  -10    3    7     -1.06      0.00
   -9    3    7     -2.07      0.00
   -8    3    7    -11.95      0.00
   -7    3    7      0.50      0.00
   -6    3    7      3.24      0.00
   -5    3    7    -14.54      0.00
   -4    3    7     10.44      0.00
   -3    3    7    -29.51      0.00
   -2    3    7    -21.70      0.00
   -1    3    7     33.00      0.00
    0    3    7    -12.96      0.00
    1    3    7    -15.59      0.00
    2    3    7      1.78      0.00
    3    3    7     -5.48      0.00
    4    3    7    -10.68      0.00
    5    3    7      6.48      0.00
    6    3    7     -1.66      0.00
    7    3    7     -1.82      0.00
    8    3    7     -1.40      0.00
  -12    4    7     -1.00      0.00
  -11    4    7     -3.49      0.00
  -10    4    7      3.38      0.00
   -9    4    7     -4.87      0.00
   -8    4    7     -6.73      0.00
   -7    4    7      4.55      0.00
   -6    4    7     -0.36      0.00
   -5    4    7     -6.52      0.00
   -4    4    7    -28.88      0.00
   -3    4    7     -8.28      0.00
   -2    4    7      8.35      0.00
   -1    4    7    -10.86      0.00
    0    4    7      1.81      0.00
    1    4    7      0.88      0.00
    2    4    7    -12.37      0.00
    3    4    7     -9.65      0.00
    4    4    7      0.72      0.00
    5    4    7     -3.24      0.00
    6    4    7     -1.31      0.00
  -12    5    7     -0.81      0.00
  -11    5    7      5.42      0.00
  -10    5    7     -4.28      0.00
   -9    5    7     -3.49      0.00
   -8    5    7      3.91      0.00
   -7    5    7     -4.78      0.00
   -6    5    7     -4.54      0.00
   -5    5    7    -17.40      0.00
   -4    5    7    -10.69      0.00
   -3    5    7     -0.69      0.00
   -2    5    7      5.92      0.00
   -1    5    7     -6.84      0.00
    0    5    7      4.81      0.00
    1    5    7      1.99      0.00
    2    5    7    -20.73      0.00
    3    5    7     -6.96      0.00
    4    5    7      4.73      0.00
    5    5    7     -5.55      0.00
    6    5    7     -4.78      0.00
  -12    6    7      0.79      0.00
  -11    6    7      3.19      0.00
  -10    6    7     -4.44      0.00
   -9    6    7     -0.57      0.00
   -8    6    7      3.14      0.00
   -7    6    7    -10.09      0.00
   -6    6    7    -14.16      0.00
   -5    6    7     13.19      0.00
   -4    6    7    -11.24      0.00
   -3    6    7     -4.75      0.00
   -2    6    7      7.72      0.00
   -1    6    7      5.61      0.00
    0    6    7     -3.46      0.00
    1    6    7     -9.24      0.00
    2    6    7     -9.23      0.00
    3    6    7     -1.50      0.00
    4    6    7     -3.32      0.00
    5    6    7      0.59      0.00
    6    6    7     -1.06      0.00
  -12    7    7      2.34      0.00
  -11    7    7     -2.50      0.00
  -10    7    7      2.31      0.00
   -9    7    7     -1.36      0.00
   -8    7    7    -10.18      0.00
   -7    7    7      1.27      0.00
   -6    7    7      9.75      0.00
   -5    7    7    -10.08      0.00
   -4    7    7      2.26      0.00
   -3    7    7      1.59      0.00
   -2    7    7     -2.82      0.00
   -1    7    7      9.59      0.00
    0    7    7     -3.25      0.00
    1    7    7    -15.36      0.00
    2    7    7      3.45      0.00
    3    7    7     -2.12      0.00
    4    7    7     -0.92      0.00
    5    7    7      4.56      0.00
    6    7    7      0.96      0.00
  -12    8    7      1.29      0.00
  -11    8    7     -1.91      0.00
  -10    8    7     -0.31      0.00
   -9    8    7     -3.65      0.00
   -8    8    7     -0.48      0.00
   -7    8    7     11.07      0.00
   -6    8    7      0.36      0.00
   -5    8    7     -6.42      0.00
   -4    8    7      0.90      0.00
   -3    8    7      4.64      0.00
   -2    8    7     -2.02      0.00
   -1    8    7      4.75      0.00
    0    8    7     -0.42      0.00
    1    8    7     -5.74      0.00
    2    8    7     -1.41      0.00
    3    8    7      6.39      0.00
    4    8    7      2.53      0.00
    5    8    7      1.38      0.00
    6    8    7      0.89      0.00
  -10    9    7     -2.07      0.00
   -9    9    7      4.74      0.00
   -8    9    7      5.39      0.00
   -7    9    7     -0.04      0.00
   -6    9    7      3.34      0.00
   -5    9    7     -5.07      0.00
   -4    9    7     -1.31      0.00
   -3    9    7      4.18      0.00
   -2    9    7     10.25      0.00
   -1    9    7     -0.26      0.00
    0    9    7     -2.41      0.00
    1    9    7      2.60      0.00
    2    9    7      1.60      0.00
    3    9    7      1.51      0.00
    4    9    7      6.25      0.00
    5    9    7     -0.99      0.00
  -11   10    7      2.87      0.00
  -10   10    7      3.08      0.00
   -9   10    7     -1.81      0.00
   -8   10    7      7.91      0.00
   -7   10    7      0.04      0.00
   -6   10    7     -8.70      0.00
   -5   10    7      6.80      0.00
   -4   10    7      4.05      0.00
   -3   10    7      1.05      0.00
   -2   10    7     14.24      0.00
   -1   10    7     -3.11      0.00
    0   10    7     -4.03      0.00
    1   10    7      7.74      0.00
    2   10    7     -0.94      0.00
    3   10    7      2.96      0.00
    4   10    7      3.51      0.00
  -11   11    7      2.52      0.00
  -10   11    7     -2.91      0.00
   -9   11    7      5.86      0.00
   -8   11    7      1.12      0.00
   -7   11    7     -4.51      0.00
   -6   11    7      0.76      0.00
   -5   11    7      8.78      0.00
   -4   11    7      0.79      0.00
   -3   11    7      7.24      0.00
   -2   11    7     -0.37      0.00
   -1   11    7      2.45      0.00
    0   11    7      1.53      0.00
    1   11    7     -1.90      0.00
    2   11    7      5.59      0.00
    3   11    7      3.60      0.00
  -11   12    7     -4.69      0.00
  -10   12    7      6.25      0.00
   -9   12    7     -0.14      0.00
   -8   12    7     -5.86      0.00
   -7   12    7      5.91      0.00
   -6   12    7      6.23      0.00
   -5   12    7     -5.77      0.00
   -4   12    7      6.49      0.00
   -3   12    7      4.97      0.00
   -2   12    7     -2.58      0.00
   -1   12    7      1.55      0.00
    0   12    7      1.96      0.00
    1   12    7     -0.93      0.00
    2   12    7      5.50      0.00
  -11   13    7      3.83      0.00
  -10   13    7     -1.96      0.00
   -9   13    7     -1.26      0.00
   -8   13    7      3.14      0.00
   -7   13    7      1.69      0.00
   -6   13    7      2.06      0.00
   -5   13    7     -2.68      0.00
   -4   13    7      2.26      0.00
   -3   13    7      5.58      0.00
   -2   13    7     -2.75      0.00
   -1   13    7     -2.91      0.00
    0   13    7      2.61      0.00
    1   13    7      3.11      0.00
  -10   14    7     -0.35      0.00
   -9   14    7      1.33      0.00
   -8   14    7      1.56      0.00
   -7   14    7     -0.52      0.00
   -6   14    7     -2.84      0.00
   -5   14    7      3.87      0.00
   -4   14    7      2.04      0.00
   -3   14    7     -3.25      0.00
   -2   14    7      0.85      0.00
   -1   14    7     -1.11      0.00
    0   14    7     -1.41      0.00
   -9   15    7     -0.41      0.00
   -8   15    7      2.10      0.00
   -7   15    7     -2.44      0.00
   -6   15    7     -2.31      0.00
   -5   15    7      5.70      0.00
   -4   15    7      0.01      0.00
   -3   15    7     -3.83      0.00
   -2   15    7      0.45      0.00
   -1   15    7     -0.36      0.00
   -8   16    7     -1.60      0.00
   -7   16    7      0.63      0.00
   -6   16    7      1.33      0.00
   -5   16    7      0.03      0.00
   -4   16    7     -0.17      0.00
   -3   16    7      0.09      0.00
   -2   16    7     -1.62      0.00
   -7   17    7      0.81      0.00
   -6   17    7      2.88      0.00
   -5   17    7     -3.03      0.00
   -4   17    7     -0.14      0.00
   -3   17    7      2.38      0.00
    3  -18    8      0.01      0.00
    4  -18    8      0.98      0.00
   -1  -17    8      1.00      0.00
    0  -17    8     -3.30      0.00
    3  -17    8     -1.32      0.00
    4  -17    8     -0.51      0.00
    5  -17    8      2.17      0.00
    6  -17    8     -0.99      0.00
   -2  -16    8      0.11      0.00
   -1  -16    8     -0.99      0.00
    0  -16    8     -2.23      0.00
    2  -16    8      0.67      0.00
    3  -16    8     -1.68      0.00
    4  -16    8      0.76      0.00
    5  -16    8      1.40      0.00
    6  -16    8      1.29      0.00
    7  -16    8     -0.49      0.00
   -3  -15    8      2.53      0.00
   -1  -15    8     -0.60      0.00
    0  -15    8      3.61      0.00
    1  -15    8     -4.99      0.00
    2  -15    8      0.22      0.00
    3  -15    8      3.77      0.00
    4  -15    8     -1.83      0.00
    5  -15    8     -0.57      0.00
    6  -15    8      4.58      0.00
    7  -15    8      0.58      0.00
    8  -15    8     -1.87      0.00
   -3  -14    8      1.72      0.00
   -1  -14    8     -1.66      0.00
    0  -14    8     -1.38      0.00
    1  -14    8      0.37      0.00
    2  -14    8     -2.34      0.00
    3  -14    8      2.14      0.00
    4  -14    8     -2.09      0.00
    5  -14    8      1.99      0.00
    6  -14    8      0.54      0.00
    7  -14    8     -1.31      0.00
    8  -14    8     -2.38      0.00
   -5  -13    8     -0.22      0.00
   -4  -13    8     -1.85      0.00
   -3  -13    8     -3.84      0.00
   -2  -13    8      2.32      0.00
   -1  -13    8     -2.86      0.00
    0  -13    8     -4.20      0.00
    1  -13    8      0.78      0.00
    2  -13    8      1.61      0.00
    3  -13    8     -8.04      0.00
    4  -13    8      2.90      0.00
    5  -13    8     -0.42      0.00
    6  -13    8     -5.22      0.00
    7  -13    8      0.85      0.00
    8  -13    8      0.81      0.00
   -5  -12    8     -0.20      0.00
   -4  -12    8      0.45      0.00
   -3  -12    8     -5.76      0.00
   -2  -12    8      0.92      0.00
   -1  -12    8      0.38      0.00
    0  -12    8     -7.49      0.00
    1  -12    8      3.48      0.00
    2  -12    8     -3.32      0.00
    3  -12    8     -7.80      0.00
    4  -12    8     -2.17      0.00
    5  -12    8     -1.03      0.00
    6  -12    8      0.61      0.00
    7  -12    8     -0.06      0.00
    8  -12    8     -2.13      0.00
    9  -12    8      0.10      0.00
   -6  -11    8      0.00      0.00
   -5  -11    8     -3.23      0.00
   -4  -11    8     -0.45      0.00
   -3  -11    8      1.64      0.00
   -2  -11    8     -5.46      0.00
   -1  -11    8      0.03      0.00
    0  -11    8      2.91      0.00
    1  -11    8     -7.39      0.00
    2  -11    8     -7.03      0.00
    3  -11    8     -1.80      0.00
    4  -11    8     -5.41      0.00
    6  -11    8      2.67      0.00
    7  -11    8     -2.08      0.00
    8  -11    8      0.84      0.00
    9  -11    8     -0.88      0.00
   -7  -10    8     -0.97      0.00
   -6  -10    8      2.86      0.00
   -5  -10    8     -3.42      0.00
   -4  -10    8     -1.40      0.00
   -3  -10    8      4.44      0.00
   -2  -10    8     -1.65      0.00
   -1  -10    8     -4.50      0.00
    0  -10    8      5.10      0.00
    1  -10    8     -7.93      0.00
    2  -10    8     -8.60      0.00
    3  -10    8      0.61      0.00
    4  -10    8      2.50      0.00
    5  -10    8     -2.68      0.00
    6  -10    8      4.56      0.00
    7  -10    8      3.34      0.00
    8  -10    8     -6.26      0.00
    9  -10    8     -0.07      0.00
   -8   -9    8      1.85      0.00
   -7   -9    8     -0.57      0.00
   -6   -9    8      0.06      0.00
   -5   -9    8      3.45      0.00
   -4   -9    8     -3.51      0.00
   -3   -9    8      3.09      0.00
   -2   -9    8      2.16      0.00
   -1   -9    8     -3.03      0.00
    0   -9    8      0.38      0.00
    1   -9    8      0.09      0.00
    2   -9    8     -6.27      0.00
    3   -9    8      1.52      0.00
    4   -9    8     -1.06      0.00
    5   -9    8      6.29      0.00
    6   -9    8      3.95      0.00
    7   -9    8     -6.32      0.00
    8   -9    8     -0.02      0.00
    9   -9    8     -2.55      0.00
   -9   -8    8      1.02      0.00
   -8   -8    8      2.23      0.00
   -7   -8    8      2.35      0.00
   -6   -8    8     -3.27      0.00
   -5   -8    8      2.37      0.00
   -4   -8    8      6.47      0.00
   -3   -8    8     -5.70      0.00
   -2   -8    8      3.24      0.00
   -1   -8    8     12.08      0.00
    0   -8    8     -4.56      0.00
    1   -8    8      0.57      0.00
    2   -8    8      7.59      0.00
    3   -8    8    -13.56      0.00
    4   -8    8     10.00      0.00
    5   -8    8     10.61      0.00
    6   -8    8     -9.23      0.00
    7   -8    8     -0.41      0.00
    8   -8    8      2.20      0.00
    9   -8    8     -2.70      0.00
   -9   -7    8     -0.10      0.00
   -8   -7    8      2.34      0.00
   -7   -7    8      2.34      0.00
   -6   -7    8     -0.45      0.00
   -5   -7    8      3.24      0.00
   -4   -7    8      8.11      0.00
   -3   -7    8     -4.62      0.00
   -2   -7    8     11.09      0.00
   -1   -7    8     14.12      0.00
    0   -7    8      0.14      0.00
    1   -7    8      1.43      0.00
    2   -7    8     -7.69      0.00
    3   -7    8      5.62      0.00
    4   -7    8      9.11      0.00
    5   -7    8     -0.91      0.00
    6   -7    8      2.20      0.00
    7   -7    8      2.29      0.00
    8   -7    8     -3.04      0.00
    9   -7    8      1.97      0.00
  -10   -6    8     -0.48      0.00
   -9   -6    8      2.95      0.00
   -8   -6    8     -0.19      0.00
   -7   -6    8      3.35      0.00
   -6   -6    8      7.45      0.00
   -5   -6    8      3.13      0.00
   -4   -6    8     -3.95      0.00
   -3   -6    8     20.21      0.00
   -2   -6    8      7.03      0.00
   -1   -6    8      2.40      0.00
    0   -6    8     10.50      0.00
    1   -6    8    -13.44      0.00
    2   -6    8     -2.25      0.00
    3   -6    8     19.59      0.00
    5   -6    8      3.24      0.00
    6   -6    8      6.11      0.00
    7   -6    8     -3.21      0.00
    8   -6    8     -0.55      0.00
    9   -6    8      0.29      0.00
  -10   -5    8     -1.16      0.00
   -9   -5    8      2.63      0.00
   -8   -5    8      3.47      0.00
   -7   -5    8     -0.26      0.00
   -6   -5    8     10.63      0.00
   -5   -5    8      0.14      0.00
   -4   -5    8      3.02      0.00
   -3   -5    8     15.30      0.00
   -2   -5    8      8.44      0.00
   -1   -5    8     -9.83      0.00
    0   -5    8     -1.02      0.00
    1   -5    8      4.94      0.00
    2   -5    8      6.39      0.00
    3   -5    8     15.18      0.00
    4   -5    8     11.68      0.00
    5   -5    8     -2.43      0.00
    6   -5    8     -0.21      0.00
    7   -5    8      2.43      0.00
    8   -5    8     -2.66      0.00
    9   -5    8      2.89      0.00
  -10   -4    8     -0.54      0.00
   -9   -4    8      0.42      0.00
   -8   -4    8      1.92      0.00
   -7   -4    8      4.53      0.00
   -6   -4    8      0.33      0.00
   -5   -4    8      6.82      0.00
   -4   -4    8      2.67      0.00
   -3   -4    8     -0.34      0.00
   -2   -4    8     -0.26      0.00
   -1   -4    8     -1.45      0.00
    0   -4    8     -1.85      0.00
    1   -4    8     12.41      0.00
    2   -4    8     16.99      0.00
    3   -4    8      2.75      0.00
    4   -4    8     -0.23      0.00
    5   -4    8      4.54      0.00
    6   -4    8     -1.24      0.00
    7   -4    8     -1.61      0.00
    8   -4    8      2.76      0.00
    9   -4    8      1.65      0.00
  -11   -3    8     -0.13      0.00
  -10   -3    8     -0.04      0.00
   -9   -3    8     -5.16      0.00
   -8   -3    8      3.00      0.00
   -7   -3    8      7.73      0.00
   -6   -3    8     -6.67      0.00
   -5   -3    8     -3.95      0.00
   -4   -3    8      9.35      0.00
   -3   -3    8    -12.73      0.00
   -2   -3    8     -6.73      0.00
   -1   -3    8     20.10      0.00
    0   -3    8     -2.69      0.00
    1   -3    8     -0.29      0.00
    2   -3    8      8.93      0.00
    3   -3    8     -5.48      0.00
    4   -3    8      1.04      0.00
    5   -3    8      4.71      0.00
    6   -3    8     -4.36      0.00
    7   -3    8     -0.98      0.00
    8   -3    8      7.38      0.00
    9   -3    8     -1.65      0.00
  -11   -2    8     -2.88      0.00
  -10   -2    8     -2.67      0.00
   -9   -2    8      1.20      0.00
   -8   -2    8      0.13      0.00
   -7   -2    8      0.04      0.00
   -6   -2    8     -3.97      0.00
   -5   -2    8     -8.72      0.00
   -4   -2    8      1.74      0.00
   -3   -2    8     -3.95      0.00
   -2   -2    8      2.01      0.00
   -1   -2    8      3.18      0.00
    0   -2    8     -9.71      0.00
    1   -2    8    -17.42      0.00
    2   -2    8     -1.18      0.00
    3   -2    8     10.30      0.00
    4   -2    8     -3.22      0.00
    5   -2    8     -4.59      0.00
    6   -2    8      0.32      0.00
    7   -2    8      6.26      0.00
    8   -2    8     -4.11      0.00
    9   -2    8      0.30      0.00
  -11   -1    8     -2.24      0.00
  -10   -1    8     -0.35      0.00
   -9   -1    8      0.10      0.00
   -8   -1    8     -0.49      0.00
   -7   -1    8     -5.12      0.00
   -6   -1    8     -4.38      0.00
   -5   -1    8      1.02      0.00
   -4   -1    8    -17.40      0.00
   -3   -1    8      9.37      0.00
   -2   -1    8      5.02      0.00
   -1   -1    8    -42.59      0.00
    0   -1    8    -18.60      0.00
    1   -1    8      8.88      0.00
    2   -1    8      0.43      0.00
    3   -1    8      1.09      0.00
    4   -1    8      0.96      0.00
    5   -1    8    -11.28      0.00
    6   -1    8      4.40      0.00
    7   -1    8     -3.43      0.00
    8   -1    8     -3.92      0.00
    9   -1    8      3.00      0.00
  -11    0    8      1.21      0.00
  -10    0    8     -8.44      0.00
   -9    0    8      0.36      0.00
   -8    0    8      5.26      0.00
   -7    0    8    -13.24      0.00
   -6    0    8      1.59      0.00
   -5    0    8     -5.08      0.00
   -4    0    8    -11.91      0.00
   -3    0    8      1.63      0.00
   -2    0    8    -24.89      0.00
   -1    0    8    -37.29      0.00
    0    0    8      6.70      0.00
    1    0    8     15.75      0.00
    2    0    8     -5.67      0.00
    3    0    8     -2.41      0.00
    4    0    8     -8.57      0.00
    5    0    8     -5.84      0.00
    6    0    8     -6.32      0.00
    7    0    8     -1.02      0.00
    8    0    8      0.67      0.00
  -12    1    8     -0.48      0.00
  -11    1    8     -7.31      0.00
  -10    1    8     -0.10      0.00
   -9    1    8      3.39      0.00
   -8    1    8     -4.04      0.00
   -7    1    8      3.51      0.00
   -6    1    8    -13.46      0.00
   -5    1    8     -9.10      0.00
   -4    1    8      6.81      0.00
   -3    1    8    -28.99      0.00
   -2    1    8    -29.36      0.00
   -1    1    8     20.52      0.00
    0    1    8     -1.54      0.00
    1    1    8     -6.78      0.00
    2    1    8     10.97      0.00
    3    1    8    -14.04      0.00
    4    1    8    -15.14      0.00
    5    1    8     -0.64      0.00
    6    1    8     -3.50      0.00
    7    1    8     -2.70      0.00
    8    1    8      2.72      0.00
  -12    2    8     -4.84      0.00
  -11    2    8     -1.16      0.00
  -10    2    8      7.94      0.00
   -9    2    8     -1.62      0.00
   -8    2    8     -3.15      0.00
   -7    2    8     -1.38      0.00
   -6    2    8    -10.77      0.00
   -5    2    8     -7.53      0.00
   -4    2    8     -3.20      0.00
   -3    2    8    -11.28      0.00
   -2    2    8     -2.78      0.00
   -1    2    8      4.78      0.00
    0    2    8      5.01      0.00
    1    2    8     -4.98      0.00
    2    2    8     -1.10      0.00
    3    2    8     -9.37      0.00
    4    2    8     -7.98      0.00
    5    2    8     -3.78      0.00
    6    2    8      1.26      0.00
    7    2    8     -0.83      0.00
    8    2    8      0.28      0.00
  -12    3    8      0.36      0.00
  -11    3    8      2.57      0.00
  -10    3    8     -0.33      0.00
   -9    3    8      2.85      0.00
   -8    3    8     -5.24      0.00
   -7    3    8     -7.55      0.00
   -6    3    8      2.72      0.00
   -5    3    8     -5.60      0.00
   -4    3    8      2.27      0.00
   -3    3    8      4.97      0.00
   -2    3    8     -6.99      0.00
   -1    3    8      3.36      0.00
    0    3    8      1.47      0.00
    1    3    8      5.19      0.00
    2    3    8     -7.73      0.00
    3    3    8     -0.98      0.00
    4    3    8     -5.11      0.00
    5    3    8     -0.57      0.00
    6    3    8      0.25      0.00
    7    3    8      2.46      0.00
  -12    4    8      0.32      0.00
  -11    4    8      1.44      0.00
  -10    4    8      1.56      0.00
   -9    4    8     -1.03      0.00
   -8    4    8      2.43      0.00
   -7    4    8     -4.93      0.00
   -6    4    8      0.20      0.00
   -5    4    8     19.62      0.00
   -4    4    8    -11.35      0.00
   -3    4    8     -8.19      0.00
   -2    4    8     21.07      0.00
   -1    4    8    -14.69      0.00
    0    4    8      5.28      0.00
    1    4    8     17.98      0.00
    2    4    8     -3.39      0.00
    3    4    8     -9.75      0.00
    4    4    8      5.91      0.00
    5    4    8     -2.22      0.00
    6    4    8      3.14      0.00
  -12    5    8     -1.07      0.00
  -11    5    8      5.73      0.00
  -10    5    8     -0.06      0.00
   -9    5    8     -0.02      0.00
   -8    5    8      3.67      0.00
   -7    5    8      0.02      0.00
   -6    5    8      6.68      0.00
   -5    5    8     -1.92      0.00
   -4    5    8      0.74      0.00
   -3    5    8      6.16      0.00
   -2    5    8     -6.64      0.00
   -1    5    8     10.76      0.00
    0    5    8     15.24      0.00
    1    5    8      5.91      0.00
    2    5    8     -3.57      0.00
    3    5    8     -0.88      0.00
    4    5    8     -1.50      0.00
    5    5    8      7.00      0.00
    6    5    8      1.12      0.00
  -12    6    8      2.18      0.00
  -11    6    8     -1.15      0.00
  -10    6    8      3.99      0.00
   -9    6    8      4.13      0.00
   -8    6    8     -3.60      0.00
   -7    6    8      5.34      0.00
   -6    6    8     -4.90      0.00
   -5    6    8      4.60      0.00
   -4    6    8     11.85      0.00
   -3    6    8     -4.45      0.00
   -2    6    8     -2.12      0.00
   -1    6    8     23.08      0.00
    0    6    8     12.09      0.00
    1    6    8     -9.49      0.00
    2    6    8      3.54      0.00
    3    6    8      2.95      0.00
    4    6    8     -1.65      0.00
    5    6    8      6.22      0.00
    6    6    8      4.71      0.00
  -12    7    8      2.26      0.00
  -11    7    8      0.40      0.00
  -10    7    8      5.27      0.00
   -9    7    8      1.00      0.00
   -8    7    8     -7.88      0.00
   -7    7    8     -2.02      0.00
   -6    7    8     15.88      0.00
   -5    7    8     -1.24      0.00
   -4    7    8     -1.24      0.00
   -3    7    8      7.97      0.00
   -2    7    8      6.15      0.00
   -1    7    8      8.85      0.00
    0    7    8      4.40      0.00
    1    7    8     -1.93      0.00
    2    7    8      1.46      0.00
    3    7    8     -0.39      0.00
    4    7    8      4.94      0.00
    5    7    8      5.33      0.00
    6    7    8      3.11      0.00
  -10    8    8     -1.54      0.00
   -9    8    8     -6.97      0.00
   -8    8    8      0.58      0.00
   -7    8    8      8.41      0.00
   -6    8    8      0.55      0.00
   -5    8    8      5.03      0.00
   -4    8    8     -0.48      0.00
   -3    8    8      1.17      0.00
   -2    8    8     10.84      0.00
   -1    8    8     -0.70      0.00
    0    8    8     -1.16      0.00
    1    8    8      8.02      0.00
    2    8    8     -6.40      0.00
    3    8    8      1.83      0.00
    4    8    8      9.42      0.00
    5    8    8      2.01      0.00
  -10    9    8     -4.89      0.00
   -9    9    8     -2.84      0.00
   -8    9    8     10.66      0.00
   -7    9    8     -3.57      0.00
   -6    9    8      1.57      0.00
   -5    9    8      4.96      0.00
   -4    9    8     -2.17      0.00
   -3    9    8     -4.35      0.00
   -2    9    8      8.94      0.00
   -1    9    8      1.17      0.00
    0    9    8     -0.58      0.00
    1    9    8     -0.31      0.00
    2    9    8      1.69      0.00
    3    9    8      1.06      0.00
    4    9    8      4.30      0.00
    5    9    8      0.92      0.00
  -11   10    8     -1.84      0.00
  -10   10    8     -0.30      0.00
   -9   10    8      3.05      0.00
   -8   10    8     -3.15      0.00
   -7   10    8      4.50      0.00
   -6   10    8     -2.86      0.00
   -5   10    8     -2.29      0.00
   -4   10    8      0.23      0.00
   -3   10    8      2.29      0.00
   -2   10    8     -0.90      0.00
   -1   10    8      4.40      0.00
    0   10    8     -1.55      0.00
    1   10    8     -2.68      0.00
    2   10    8      0.03      0.00
    3   10    8      3.70      0.00
    4   10    8     -0.97      0.00
  -11   11    8     -1.75      0.00
  -10   11    8     -0.71      0.00
   -9   11    8      1.08      0.00
   -8   11    8     -3.24      0.00
   -7   11    8     -1.79      0.00
   -6   11    8      2.66      0.00
   -5   11    8     -4.27      0.00
   -4   11    8     -1.50      0.00
   -3   11    8      6.63      0.00
   -2   11    8     -5.26      0.00
   -1   11    8     -0.46      0.00
    0   11    8      3.16      0.00
    1   11    8     -8.32      0.00
    2   11    8      2.24      0.00
    3   11    8      2.13      0.00
  -11   12    8     -2.50      0.00
  -10   12    8      1.53      0.00
   -9   12    8     -2.69      0.00
   -8   12    8     -5.81      0.00
   -7   12    8      2.42      0.00
   -6   12    8      3.07      0.00
   -5   12    8     -6.36      0.00
   -4   12    8      0.87      0.00
   -3   12    8     -0.52      0.00
   -2   12    8      0.70      0.00
   -1   12    8     -1.24      0.00
    0   12    8     -6.75      0.00
    1   12    8      0.54      0.00
    2   12    8      0.32      0.00
  -10   13    8     -2.93      0.00
   -9   13    8     -7.08      0.00
   -8   13    8      6.10      0.00
   -7   13    8      0.37      0.00
   -6   13    8     -6.08      0.00
   -5   13    8      3.25      0.00
   -4   13    8     -1.95      0.00
   -3   13    8     -2.44      0.00
   -2   13    8      3.86      0.00
   -1   13    8     -6.23      0.00
    0   13    8     -5.76      0.00
    1   13    8      2.82      0.00
  -10   14    8     -3.37      0.00
   -9   14    8      1.98      0.00
   -8   14    8      2.99      0.00
   -7   14    8     -2.34      0.00
   -6   14    8     -4.07      0.00
   -5   14    8      2.08      0.00
   -4   14    8      1.55      0.00
   -3   14    8     -2.88      0.00
   -2   14    8     -1.22      0.00
   -1   14    8     -2.00      0.00
    0   14    8     -3.50      0.00
   -9   15    8      1.75      0.00
   -8   15    8     -1.87      0.00
   -7   15    8     -1.07      0.00
   -6   15    8      1.01      0.00
   -5   15    8     -0.40      0.00
   -4   15    8     -1.07      0.00
   -3   15    8      2.36      0.00
   -2   15    8     -2.22      0.00
   -1   15    8     -3.86      0.00
   -8   16    8     -2.51      0.00
   -7   16    8      0.39      0.00
   -6   16    8      3.76      0.00
   -5   16    8     -3.08      0.00
   -4   16    8     -0.25      0.00
   -3   16    8      2.76      0.00
    3  -18    9     -0.96      0.00
   -1  -17    9      0.58      0.00
   -2  -16    9     -2.17      0.00
   -1  -16    9     -2.85      0.00
    0  -16    9      0.98      0.00
    1  -16    9     -2.56      0.00
    2  -16    9      1.37      0.00
    3  -16    9      1.03      0.00
    4  -16    9     -0.02      0.00
    5  -16    9     -1.72      0.00
    6  -16    9     -0.50      0.00
   -3  -15    9      0.55      0.00
   -2  -15    9     -0.88      0.00
   -1  -15    9     -0.06      0.00
    0  -15    9      0.28      0.00
    1  -15    9     -0.24      0.00
    2  -15    9     -2.06      0.00
    3  -15    9      0.83      0.00
    4  -15    9     -0.55      0.00
    5  -15    9     -3.25      0.00
    7  -15    9      4.41      0.00
   -4  -14    9      0.27      0.00
   -3  -14    9     -2.89      0.00
   -2  -14    9      4.55      0.00
   -1  -14    9      2.20      0.00
    0  -14    9     -6.90      0.00
    1  -14    9      2.41      0.00
    2  -14    9      0.58      0.00
    3  -14    9     -4.82      0.00
    4  -14    9     -1.15      0.00
    5  -14    9      2.08      0.00
    6  -14    9      0.66      0.00
    7  -14    9      0.42      0.00
    8  -14    9      0.12      0.00
   -5  -13    9     -0.38      0.00
   -4  -13    9      1.96      0.00
   -3  -13    9     -1.61      0.00
   -2  -13    9      3.47      0.00
   -1  -13    9     -0.33      0.00
    0  -13    9     -2.07      0.00
    1  -13    9     -0.73      0.00
    2  -13    9      2.19      0.00
    3  -13    9     -4.73      0.00
    4  -13    9      1.90      0.00
    5  -13    9      1.57      0.00
    6  -13    9     -1.58      0.00
    7  -13    9     -0.48      0.00
    8  -13    9      0.82      0.00
   -6  -12    9     -0.73      0.00
   -5  -12    9     -1.52      0.00
   -4  -12    9      0.61      0.00
   -3  -12    9      6.02      0.00
   -2  -12    9     -2.27      0.00
   -1  -12    9      0.15      0.00
    0  -12    9      4.46      0.00
    1  -12    9      0.17      0.00
    2  -12    9     -3.66      0.00
    3  -12    9      6.39      0.00
    4  -12    9     -3.56      0.00
    5  -12    9     -3.93      0.00
    7  -12    9      1.38      0.00
    8  -12    9     -0.91      0.00
   -6  -11    9      4.05      0.00
   -5  -11    9     -0.29      0.00
   -4  -11    9     -0.58      0.00
   -3  -11    9      8.44      0.00
   -2  -11    9      0.18      0.00
   -1  -11    9     -0.72      0.00
    0  -11    9     10.00      0.00
    1  -11    9     -2.20      0.00
    2  -11    9      0.07      0.00
    3  -11    9      1.79      0.00
    4  -11    9     -3.33      0.00
    5  -11    9      1.20      0.00
    6  -11    9      4.87      0.00
    7  -11    9      1.81      0.00
    8  -11    9      2.46      0.00
    9  -11    9     -0.91      0.00
   -7  -10    9      2.40      0.00
   -5  -10    9      3.46      0.00
   -4  -10    9      4.31      0.00
   -3  -10    9      1.11      0.00
   -2  -10    9      7.03      0.00
   -1  -10    9      4.40      0.00
    0  -10    9     -1.32      0.00
    1  -10    9      6.01      0.00
    2  -10    9      1.82      0.00
    3  -10    9     -5.65      0.00
    4  -10    9      4.64      0.00
    6  -10    9      1.43      0.00
    7  -10    9      6.21      0.00
    8  -10    9     -1.06      0.00
    9  -10    9     -2.65      0.00
   -8   -9    9      3.86      0.00
   -7   -9    9      3.42      0.00
   -6   -9    9     -2.45      0.00
   -5   -9    9      6.13      0.00
   -4   -9    9      6.75      0.00
   -3   -9    9     -2.60      0.00
   -2   -9    9      5.01      0.00
   -1   -9    9      7.52      0.00
    0   -9    9     -3.73      0.00
    1   -9    9      6.02      0.00
    2   -9    9      3.10      0.00
    3   -9    9     -2.77      0.00
    4   -9    9      2.78      0.00
    5   -9    9      8.59      0.00
    6   -9    9      4.97      0.00
    7   -9    9     -3.36      0.00
    8   -9    9     -1.13      0.00
    9   -9    9     -2.37      0.00
   -8   -8    9     -0.09      0.00
   -7   -8    9      2.99      0.00
   -6   -8    9      1.37      0.00
   -5   -8    9     -1.70      0.00
   -4   -8    9      5.87      0.00
   -3   -8    9      0.24      0.00
   -2   -8    9     -1.88      0.00
   -1   -8    9      5.12      0.00
    0   -8    9      6.01      0.00
    1   -8    9     -1.79      0.00
    2   -8    9      3.97      0.00
    3   -8    9     -1.52      0.00
    4   -8    9      6.88      0.00
    5   -8    9      5.53      0.00
    6   -8    9     -3.25      0.00
    7   -8    9     -1.88      0.00
    8   -8    9     -1.87      0.00
    9   -8    9      0.41      0.00
   -9   -7    9     -0.56      0.00
   -8   -7    9     -0.77      0.00
   -7   -7    9     -3.62      0.00
   -6   -7    9      1.69      0.00
   -5   -7    9      0.94      0.00
   -4   -7    9     -5.17      0.00
   -3   -7    9      4.44      0.00
   -2   -7    9      0.65      0.00
   -1   -7    9     -2.70      0.00
    0   -7    9      8.19      0.00
    1   -7    9      4.23      0.00
    2   -7    9    -14.72      0.00
    3   -7    9     11.72      0.00
    4   -7    9      3.10      0.00
    5   -7    9     -9.66      0.00
    6   -7    9      4.06      0.00
    7   -7    9      1.61      0.00
    8   -7    9     -3.26      0.00
    9   -7    9      2.93      0.00
  -10   -6    9     -3.01      0.00
   -9   -6    9     -0.89      0.00
   -8   -6    9     -4.41      0.00
   -7   -6    9     -6.29      0.00
   -6   -6    9      3.28      0.00
   -5   -6    9      1.01      0.00
   -4   -6    9    -10.71      0.00
   -3   -6    9      6.84      0.00
   -2   -6    9      1.72      0.00
   -1   -6    9     -7.79      0.00
    0   -6    9      5.69      0.00
    1   -6    9    -10.66      0.00
    2   -6    9     -4.08      0.00
    3   -6    9      1.47      0.00
    5   -6    9      4.74      0.00
    6   -6    9      3.96      0.00
    7   -6    9     -2.69      0.00
    8   -6    9      1.42      0.00
    9   -6    9     -3.11      0.00
  -10   -5    9     -1.54      0.00
   -9   -5    9     -6.97      0.00
   -8   -5    9     -3.89      0.00
   -7   -5    9     -0.46      0.00
   -6   -5    9     -3.07      0.00
   -5   -5    9     -4.38      0.00
   -4   -5    9      7.45      0.00
   -3   -5    9    -10.01      0.00
   -2   -5    9     -4.08      0.00
   -1   -5    9      1.79      0.00
    0   -5    9    -22.66      0.00
    1   -5    9     -5.83      0.00
    2   -5    9      3.61      0.00
    3   -5    9    -11.60      0.00
    4   -5    9      7.22      0.00
    5   -5    9      8.35      0.00
    6   -5    9     -7.55      0.00
    7   -5    9      0.17      0.00
    8   -5    9     -2.81      0.00
    9   -5    9     -1.99      0.00
  -10   -4    9     -1.79      0.00
   -9   -4    9     -7.56      0.00
   -8   -4    9     -4.62      0.00
   -7   -4    9      4.77      0.00
   -6   -4    9     -7.92      0.00
   -5   -4    9      2.81      0.00
   -4   -4    9      2.06      0.00
   -3   -4    9    -14.49      0.00
   -2   -4    9    -15.84      0.00
   -1   -4    9     -5.48      0.00
    0   -4    9    -11.89      0.00
    1   -4    9     -9.30      0.00
    2   -4    9      2.03      0.00
    3   -4    9      2.47      0.00
    4   -4    9     -0.59      0.00
    5   -4    9     -1.64      0.00
    6   -4    9     -3.09      0.00
    7   -4    9     -6.39      0.00
    8   -4    9     -1.92      0.00
    9   -4    9     -3.11      0.00
  -11   -3    9     -0.69      0.00
  -10   -3    9     -2.92      0.00
   -9   -3    9     -6.13      0.00
   -8   -3    9     -0.99      0.00
   -7   -3    9      0.00      0.00
   -6   -3    9      6.67      0.00
   -5   -3    9     -9.01      0.00
   -4   -3    9     -9.31      0.00
   -3   -3    9    -12.59      0.00
   -2   -3    9    -14.23      0.00
   -1   -3    9     -6.04      0.00
    0   -3    9      0.96      0.00
    1   -3    9     -4.66      0.00
    2   -3    9     -6.06      0.00
    3   -3    9      1.32      0.00
    4   -3    9     -1.75      0.00
    5   -3    9     -8.35      0.00
    6   -3    9     -4.99      0.00
    7   -3    9     -4.41      0.00
    8   -3    9     -3.85      0.00
    9   -3    9      1.44      0.00
  -11   -2    9     -0.73      0.00
  -10   -2    9     -9.07      0.00
   -9   -2    9      2.03      0.00
   -8   -2    9      2.81      0.00
   -7   -2    9     -0.91      0.00
   -6   -2    9      1.52      0.00
   -5   -2    9     -3.58      0.00
   -4   -2    9    -23.78      0.00
   -3   -2    9     -2.78      0.00
   -2   -2    9     10.04      0.00
   -1   -2    9    -12.50      0.00
    0   -2    9      0.91      0.00
    1   -2    9     -3.68      0.00
    2   -2    9    -15.61      0.00
    3   -2    9      4.25      0.00
    4   -2    9     -0.82      0.00
    5   -2    9    -11.47      0.00
    6   -2    9     -3.99      0.00
    7   -2    9      1.11      0.00
    8   -2    9     -4.23      0.00
    9   -2    9      0.55      0.00
  -11   -1    9     -2.72      0.00
  -10   -1    9     -2.01      0.00
   -9   -1    9      1.66      0.00
   -8   -1    9      4.91      0.00
   -7   -1    9      0.15      0.00
   -6   -1    9     -3.05      0.00
   -5   -1    9     -2.54      0.00
   -4   -1    9    -11.04      0.00
   -3   -1    9      6.52      0.00
   -2   -1    9     10.01      0.00
   -1   -1    9     -7.48      0.00
    0   -1    9    -18.29      0.00
    1   -1    9     -4.12      0.00
    2   -1    9      8.78      0.00
    3   -1    9     -3.48      0.00
    4   -1    9     -1.51      0.00
    5   -1    9     -2.45      0.00
    6   -1    9     -0.25      0.00
    7   -1    9     -6.46      0.00
    8   -1    9     -0.40      0.00
  -11    0    9     -0.44      0.00
  -10    0    9      0.10      0.00
   -9    0    9     -0.72      0.00
   -8    0    9      3.94      0.00
   -7    0    9      5.24      0.00
   -6    0    9     -0.77      0.00
   -5    0    9     -9.08      0.00
   -4    0    9     16.22      0.00
   -3    0    9      5.88      0.00
   -2    0    9    -15.33      0.00
   -1    0    9     -2.40      0.00
    0    0    9     -2.74      0.00
    1    0    9      5.55      0.00
    2    0    9      9.90      0.00
    3    0    9      4.67      0.00
    4    0    9     -5.06      0.00
    5    0    9      4.99      0.00
    6    0    9     -8.89      0.00
    7    0    9     -2.54      0.00
    8    0    9      5.03      0.00
  -12    1    9     -0.40      0.00
  -11    1    9     -5.99      0.00
  -10    1    9      2.57      0.00
   -9    1    9      5.20      0.00
   -8    1    9     -0.25      0.00
   -7    1    9     13.39      0.00
   -6    1    9     -1.88      0.00
   -5    1    9     -1.27      0.00
   -4    1    9     16.25      0.00
   -3    1    9     -6.35      0.00
   -2    1    9    -17.33      0.00
   -1    1    9     18.57      0.00
    0    1    9     14.63      0.00
    1    1    9     -4.46      0.00
    2    1    9     15.51      0.00
    3    1    9      5.89      0.00
    4    1    9     -0.76      0.00
    5    1    9     -6.64      0.00
    6    1    9      1.25      0.00
    7    1    9      2.77      0.00
    8    1    9      2.32      0.00
  -12    2    9     -4.51      0.00
  -11    2    9      0.74      0.00
  -10    2    9      5.34      0.00
   -9    2    9      4.59      0.00
   -8    2    9     10.24      0.00
   -7    2    9     -0.19      0.00
   -6    2    9      3.24      0.00
   -5    2    9      6.72      0.00
   -4    2    9    -10.20      0.00
   -3    2    9     -1.54      0.00
   -2    2    9     28.80      0.00
   -1    2    9     -1.21      0.00
    0    2    9      1.99      0.00
    1    2    9     22.77      0.00
    2    2    9      0.67      0.00
    3    2    9      4.61      0.00
    4    2    9      1.68      0.00
    5    2    9     -3.83      0.00
    6    2    9      2.94      0.00
    7    2    9      6.72      0.00
    8    2    9     -0.85      0.00
  -12    3    9      0.41      0.00
  -11    3    9      6.63      0.00
  -10    3    9     -1.70      0.00
   -9    3    9      7.02      0.00
   -8    3    9      8.61      0.00
   -7    3    9     -5.98      0.00
   -6    3    9     -0.85      0.00
   -5    3    9      4.25      0.00
   -4    3    9     -4.27      0.00
   -3    3    9     22.20      0.00
   -2    3    9     11.41      0.00
   -1    3    9     -5.09      0.00
    0    3    9      9.02      0.00
    1    3    9     14.10      0.00
    2    3    9      3.86      0.00
    3    3    9      1.80      0.00
    4    3    9      0.16      0.00
    5    3    9      2.09      0.00
  -12    4    9      1.13      0.00
  -11    4    9     -0.97      0.00
  -10    4    9      4.43      0.00
   -9    4    9      2.54      0.00
   -8    4    9      1.55      0.00
   -7    4    9     -1.31      0.00
   -6    4    9     -5.91      0.00
   -5    4    9      6.85      0.00
   -4    4    9     18.89      0.00
   -3    4    9     -3.11      0.00
   -2    4    9      1.38      0.00
   -1    4    9      5.61      0.00
    0    4    9      3.47      0.00
    1    4    9      5.38      0.00
    2    4    9     12.58      0.00
    3    4    9     -4.03      0.00
    4    4    9     -0.91      0.00
    5    4    9      2.93      0.00
  -12    5    9     -0.58      0.00
  -11    5    9     -0.39      0.00
  -10    5    9      3.86      0.00
   -9    5    9      3.21      0.00
   -8    5    9     -4.99      0.00
   -7    5    9     -0.75      0.00
   -6    5    9      6.08      0.00
   -5    5    9     -3.08      0.00
   -4    5    9      4.30      0.00
   -3    5    9     10.18      0.00
   -2    5    9    -18.31      0.00
   -1    5    9      7.40      0.00
    0    5    9     12.70      0.00
    1    5    9      1.62      0.00
    2    5    9      0.03      0.00
    3    5    9      2.82      0.00
    4    5    9     -6.35      0.00
    5    5    9      6.14      0.00
    6    5    9      4.82      0.00
  -12    6    9      1.18      0.00
  -11    6    9     -2.10      0.00
  -10    6    9      2.91      0.00
   -9    6    9      3.97      0.00
   -8    6    9     -6.69      0.00
   -7    6    9      0.61      0.00
   -6    6    9     -3.47      0.00
   -5    6    9     -2.67      0.00
   -4    6    9      7.23      0.00
   -3    6    9     -9.49      0.00
   -2    6    9     -0.43      0.00
   -1    6    9      5.29      0.00
    0    6    9      6.44      0.00
    1    6    9     -1.33      0.00
    2    6    9     -2.00      0.00
    3    6    9     -3.35      0.00
    4    6    9      3.03      0.00
    5    6    9      0.59      0.00
    6    6    9      3.13      0.00
  -10    7    9      2.63      0.00
   -9    7    9     -4.81      0.00
   -8    7    9      0.00      0.00
   -7    7    9    -12.45      0.00
   -6    7    9     -1.62      0.00
   -5    7    9     10.23      0.00
   -4    7    9    -13.28      0.00
   -3    7    9     -3.16      0.00
   -2    7    9     12.36      0.00
   -1    7    9     -4.10      0.00
    0    7    9     -6.00      0.00
    1    7    9      5.96      0.00
    2    7    9     -5.24      0.00
    3    7    9     -5.62      0.00
    4    7    9      1.13      0.00
    5    7    9      0.81      0.00
  -10    8    9     -2.84      0.00
   -9    8    9     -6.98      0.00
   -8    8    9     -6.36      0.00
   -7    8    9     -0.99      0.00
   -6    8    9     -3.48      0.00
   -5    8    9     -0.86      0.00
   -4    8    9      1.37      0.00
   -3    8    9     -1.97      0.00
   -2    8    9     -0.41      0.00
   -1    8    9     -4.24      0.00
    0    8    9     -3.14      0.00
    1    8    9     -0.10      0.00
    2    8    9     -6.06      0.00
    3    8    9     -5.06      0.00
    4    8    9     -0.13      0.00
    5    8    9      1.01      0.00
  -11    9    9     -2.61      0.00
  -10    9    9     -3.56      0.00
   -9    9    9     -5.61      0.00
   -8    9    9     -1.24      0.00
   -7    9    9     -4.10      0.00
   -6    9    9      0.87      0.00
   -5    9    9     -1.23      0.00
   -4    9    9      1.95      0.00
   -3    9    9     -2.97      0.00
   -2    9    9    -11.57      0.00
   -1    9    9      0.96      0.00
    0    9    9      3.07      0.00
    1    9    9    -11.80      0.00
    2    9    9     -1.58      0.00
    3    9    9     -0.27      0.00
    4    9    9     -2.38      0.00
  -11   10    9     -3.71      0.00
  -10   10    9     -2.83      0.00
   -9   10    9      3.66      0.00
   -8   10    9    -10.82      0.00
   -7   10    9      2.48      0.00
   -6   10    9      4.78      0.00
   -5   10    9     -5.02      0.00
   -4   10    9     -5.14      0.00
   -3   10    9      0.00      0.00
   -2   10    9     -7.06      0.00
   -1   10    9      2.06      0.00
    0   10    9     -2.10      0.00
    1   10    9     -4.23      0.00
    2   10    9     -3.37      0.00
    3   10    9      1.28      0.00
  -11   11    9      0.40      0.00
  -10   11    9      2.03      0.00
   -9   11    9     -6.23      0.00
   -8   11    9      0.56      0.00
   -7   11    9     -0.17      0.00
   -6   11    9      0.00      0.00
   -5   11    9     -1.31      0.00
   -4   11    9     -3.77      0.00
   -3   11    9     -2.74      0.00
   -2   11    9      4.45      0.00
   -1   11    9     -2.64      0.00
    0   11    9     -1.21      0.00
    1   11    9     -1.60      0.00
    2   11    9     -0.34      0.00
  -11   12    9      3.16      0.00
  -10   12    9     -1.81      0.00
   -9   12    9     -2.75      0.00
   -8   12    9      0.39      0.00
   -7   12    9      0.15      0.00
   -6   12    9     -1.95      0.00
   -5   12    9      2.03      0.00
   -4   12    9      0.85      0.00
   -3   12    9     -3.90      0.00
   -2   12    9      5.70      0.00
   -1   12    9      3.77      0.00
    0   12    9     -6.85      0.00
    1   12    9      2.26      0.00
  -10   13    9     -0.93      0.00
   -9   13    9     -4.33      0.00
   -8   13    9      3.27      0.00
   -7   13    9      2.12      0.00
   -6   13    9     -2.48      0.00
   -5   13    9      3.51      0.00
   -4   13    9      0.77      0.00
   -3   13    9      0.99      0.00
   -2   13    9      4.87      0.00
   -1   13    9     -1.31      0.00
    0   13    9     -0.25      0.00
  -10   14    9     -2.93      0.00
   -9   14    9      3.57      0.00
   -8   14    9      0.68      0.00
   -7   14    9      0.07      0.00
   -6   14    9      3.65      0.00
   -5   14    9     -1.66      0.00
   -4   14    9      0.90      0.00
   -3   14    9      5.27      0.00
   -2   14    9     -2.28      0.00
   -1   14    9      0.78      0.00
   -9   15    9      2.67      0.00
   -8   15    9     -2.06      0.00
   -7   15    9      0.12      0.00
   -6   15    9      3.36      0.00
   -5   15    9     -0.36      0.00
   -4   15    9     -1.92      0.00
   -3   15    9      2.17      0.00
   -2   15    9      1.78      0.00
   -7   16    9     -0.19      0.00
   -6   16    9      1.14      0.00
   -5   16    9     -0.55      0.00
   -4   16    9     -0.15      0.00
   -3   16    9     -0.42      0.00
   -1  -17   10      0.46      0.00
    2  -17   10     -1.72      0.00
    3  -17   10      4.35      0.00
    4  -17   10      1.49      0.00
    5  -17   10      2.05      0.00
   -2  -16   10      1.33      0.00
   -1  -16   10      0.00      0.00
    0  -16   10     -0.07      0.00
    1  -16   10     -0.02      0.00
    2  -16   10      2.91      0.00
    3  -16   10      0.63      0.00
    4  -16   10      4.03      0.00
    5  -16   10     -0.35      0.00
    6  -16   10     -3.06      0.00
   -3  -15   10     -1.97      0.00
   -2  -15   10      3.54      0.00
   -1  -15   10      4.04      0.00
    0  -15   10     -2.36      0.00
    1  -15   10      4.43      0.00
    2  -15   10      1.29      0.00
    3  -15   10     -0.11      0.00
    4  -15   10      1.51      0.00
    5  -15   10     -1.29      0.00
    6  -15   10     -1.56      0.00
    7  -15   10      2.55      0.00
   -4  -14   10      2.65      0.00
   -3  -14   10      1.05      0.00
   -2  -14   10      3.73      0.00
   -1  -14   10      3.50      0.00
    0  -14   10      1.14      0.00
    1  -14   10     -0.49      0.00
    2  -14   10      3.41      0.00
    3  -14   10      0.36      0.00
    4  -14   10     -2.28      0.00
    5  -14   10      1.48      0.00
    7  -14   10     -1.32      0.00
   -5  -13   10      0.50      0.00
   -4  -13   10      0.55      0.00
   -3  -13   10      5.81      0.00
   -2  -13   10      0.85      0.00
   -1  -13   10     -1.30      0.00
    0  -13   10      6.15      0.00
    1  -13   10     -0.15      0.00
    2  -13   10     -1.36      0.00
    3  -13   10      3.53      0.00
    4  -13   10      1.94      0.00
    5  -13   10      2.17      0.00
    6  -13   10     -0.65      0.00
    7  -13   10     -0.88      0.00
    8  -13   10      0.16      0.00
   -5  -12   10     -0.02      0.00
   -4  -12   10     -2.55      0.00
   -3  -12   10      5.48      0.00
   -2  -12   10     -0.18      0.00
   -1  -12   10     -0.79      0.00
    0  -12   10      5.20      0.00
    1  -12   10      1.39      0.00
    2  -12   10     -2.01      0.00
    3  -12   10      6.77      0.00
    4  -12   10      2.01      0.00
    5  -12   10     -4.70      0.00
    7  -12   10      2.14      0.00
    8  -12   10      1.48      0.00
   -6  -11   10     -1.94      0.00
   -5  -11   10     -0.23      0.00
   -4  -11   10      0.72      0.00
   -3  -11   10     -3.05      0.00
   -2  -11   10      2.86      0.00
   -1  -11   10      4.17      0.00
    0  -11   10     -2.23      0.00
    1  -11   10      0.38      0.00
    2  -11   10      7.92      0.00
    3  -11   10     -5.04      0.00
    4  -11   10     -3.13      0.00
    5  -11   10     -0.60      0.00
    6  -11   10     -0.47      0.00
    8  -11   10      1.65      0.00
   -7  -10   10      1.11      0.00
   -6  -10   10     -5.95      0.00
   -5  -10   10     -1.87      0.00
   -4  -10   10      3.52      0.00
   -3  -10   10     -5.55      0.00
   -2  -10   10      1.88      0.00
   -1  -10   10      5.90      0.00
    0  -10   10     -9.15      0.00
    1  -10   10      4.16      0.00
    2  -10   10      0.78      0.00
    3  -10   10     -8.70      0.00
    4  -10   10     -2.80      0.00
    6  -10   10      0.02      0.00
    7  -10   10      2.20      0.00
    8  -10   10     -0.59      0.00
   -8   -9   10     -2.30      0.00
   -7   -9   10     -3.17      0.00
   -6   -9   10     -1.95      0.00
   -5   -9   10     -3.13      0.00
   -4   -9   10     -1.15      0.00
   -3   -9   10      1.47      0.00
   -2   -9   10     -2.71      0.00
   -1   -9   10     -5.15      0.00
    0   -9   10      1.24      0.00
    1   -9   10     -4.77      0.00
    2   -9   10     -8.84      0.00
    3   -9   10     -1.05      0.00
    4   -9   10     -1.82      0.00
    5   -9   10     -1.30      0.00
    6   -9   10      4.97      0.00
    7   -9   10     -1.52      0.00
    8   -9   10     -3.44      0.00
   -8   -8   10     -5.30      0.00
   -7   -8   10     -4.66      0.00
   -6   -8   10      1.97      0.00
   -5   -8   10     -4.82      0.00
   -4   -8   10     -6.51      0.00
   -3   -8   10      5.25      0.00
   -2   -8   10     -5.32      0.00
   -1   -8   10    -12.49      0.00
    0   -8   10      2.24      0.00
    1   -8   10     -9.38      0.00
    2   -8   10     -8.77      0.00
    3   -8   10      0.98      0.00
    4   -8   10      1.39      0.00
    5   -8   10     -0.55      0.00
    6   -8   10     -0.94      0.00
    7   -8   10     -2.06      0.00
    8   -8   10     -3.04      0.00
    9   -8   10      0.29      0.00
   -9   -7   10     -4.90      0.00
   -8   -7   10     -1.03      0.00
   -7   -7   10     -5.33      0.00
   -6   -7   10     -6.17      0.00
   -5   -7   10      1.03      0.00
   -4   -7   10     -3.87      0.00
   -3   -7   10     -3.70      0.00
   -2   -7   10     -3.56      0.00
   -1   -7   10     -8.35      0.00
    0   -7   10    -11.15      0.00
    1   -7   10      1.29      0.00
    2   -7   10     -5.84      0.00
    3   -7   10      1.06      0.00
    4   -7   10     -0.15      0.00
    5   -7   10     -5.39      0.00
    6   -7   10     -1.37      0.00
    7   -7   10     -0.74      0.00
    8   -7   10      0.02      0.00
    9   -7   10      0.01      0.00
  -10   -6   10     -1.87      0.00
   -9   -6   10     -2.62      0.00
   -8   -6   10     -4.22      0.00
   -7   -6   10     -4.68      0.00
   -6   -6   10     -4.57      0.00
   -5   -6   10     -0.05      0.00
   -4   -6   10      2.71      0.00
   -3   -6   10     -8.03      0.00
   -2   -6   10     -5.84      0.00
   -1   -6   10     -2.51      0.00
    0   -6   10     -4.81      0.00
    1   -6   10     -7.60      0.00
    2   -6   10      7.98      0.00
    3   -6   10     -8.95      0.00
    5   -6   10      7.02      0.00
    6   -6   10      0.49      0.00
    7   -6   10     -1.04      0.00
    8   -6   10      2.71      0.00
    9   -6   10     -4.86      0.00
  -10   -5   10      1.52      0.00
   -9   -5   10     -4.92      0.00
   -8   -5   10     -7.11      0.00
   -7   -5   10      2.74      0.00
   -6   -5   10     -1.80      0.00
   -5   -5   10     -3.52      0.00
   -4   -5   10     10.76      0.00
   -3   -5   10     -5.78      0.00
   -2   -5   10     -9.83      0.00
   -1   -5   10      8.17      0.00
    0   -5   10     -9.85      0.00
    1   -5   10     -2.49      0.00
    2   -5   10     -2.22      0.00
    3   -5   10    -10.63      0.00
    4   -5   10      5.35      0.00
    5   -5   10      8.22      0.00
    6   -5   10     -1.34      0.00
    7   -5   10      1.43      0.00
    8   -5   10     -4.10      0.00
  -10   -4   10     -1.52      0.00
   -9   -4   10     -3.08      0.00
   -8   -4   10     -1.08      0.00
   -7   -4   10     -0.28      0.00
   -6   -4   10      3.64      0.00
   -5   -4   10     10.99      0.00
   -4   -4   10     -2.37      0.00
   -3   -4   10      2.23      0.00
   -2   -4   10      0.83      0.00
   -1   -4   10    -15.59      0.00
    0   -4   10      7.77      0.00
    1   -4   10     -1.94      0.00
    2   -4   10    -12.92      0.00
    3   -4   10     12.79      0.00
    5   -4   10     -4.62      0.00
    6   -4   10      3.78      0.00
    7   -4   10     -2.33      0.00
    8   -4   10     -5.61      0.00
  -10   -3   10     -3.28      0.00
   -9   -3   10      1.14      0.00
   -8   -3   10      2.54      0.00
   -7   -3   10     -3.22      0.00
   -6   -3   10     19.00      0.00
   -5   -3   10      7.94      0.00
   -4   -3   10     -7.77      0.00
   -3   -3   10      1.69      0.00
   -2   -3   10     -1.64      0.00
   -1   -3   10     -5.67      0.00
    0   -3   10      5.92      0.00
    1   -3   10      5.80      0.00
    2   -3   10      3.98      0.00
    3   -3   10      9.33      0.00
    4   -3   10      5.20      0.00
    5   -3   10     -0.89      0.00
    6   -3   10     -0.56      0.00
    7   -3   10     -3.62      0.00
    8   -3   10     -4.87      0.00
  -11   -2   10      1.69      0.00
  -10   -2   10     -2.79      0.00
   -9   -2   10      0.18      0.00
   -8   -2   10      3.03      0.00
   -7   -2   10     13.16      0.00
   -6   -2   10      4.04      0.00
   -5   -2   10      6.59      0.00
   -4   -2   10     -2.59      0.00
   -3   -2   10     -6.49      0.00
   -2   -2   10      6.04      0.00
   -1   -2   10     12.59      0.00
    0   -2   10      4.68      0.00
    1   -2   10      9.19      0.00
    2   -2   10      8.07      0.00
    3   -2   10      1.12      0.00
    4   -2   10      2.12      0.00
    5   -2   10      4.34      0.00
    6   -2   10     -3.49      0.00
    7   -2   10     -3.33      0.00
    8   -2   10      3.67      0.00
  -11   -1   10     -2.21      0.00
  -10   -1   10      3.06      0.00
   -9   -1   10     -0.03      0.00
   -8   -1   10      4.91      0.00
   -7   -1   10     10.90      0.00
   -6   -1   10      3.93      0.00
   -5   -1   10     -4.73      0.00
   -4   -1   10      8.17      0.00
   -3   -1   10      3.42      0.00
   -2   -1   10      2.34      0.00
   -1   -1   10     23.63      0.00
    0   -1   10      3.51      0.00
    1   -1   10     -7.12      0.00
    2   -1   10     12.26      0.00
    3   -1   10      3.93      0.00
    4   -1   10      0.53      0.00
    5   -1   10      6.53      0.00
    6   -1   10      0.64      0.00
    7   -1   10     -1.68      0.00
    8   -1   10      2.15      0.00
  -11    0   10     -0.25      0.00
  -10    0   10      2.50      0.00
   -9    0   10      1.20      0.00
   -8    0   10      0.60      0.00
   -7    0   10      8.15      0.00
   -6    0   10      4.86      0.00
   -5    0   10     -3.99      0.00
   -4    0   10      9.98      0.00
   -3    0   10     10.40      0.00
   -2    0   10      3.82      0.00
   -1    0   10      0.98      0.00
    0    0   10      2.65      0.00
    1    0   10      5.99      0.00
    2    0   10      0.44      0.00
    3    0   10      9.68      0.00
    4    0   10      7.49      0.00
    5    0   10      3.10      0.00
    6    0   10     -3.19      0.00
    7    0   10      0.33      0.00
    8    0   10      4.12      0.00
  -11    1   10     -1.28      0.00
  -10    1   10     -3.50      0.00
   -9    1   10      1.65      0.00
   -8    1   10      4.86      0.00
   -7    1   10      2.82      0.00
   -6    1   10      3.13      0.00
   -5    1   10     10.71      0.00
   -4    1   10     -3.16      0.00
   -3    1   10     -0.86      0.00
   -2    1   10      3.02      0.00
   -1    1   10     -5.88      0.00
    0    1   10     10.18      0.00
    1    1   10      3.03      0.00
    2    1   10      1.44      0.00
    3    1   10      8.65      0.00
    4    1   10     10.85      0.00
    5    1   10     -9.68      0.00
    6    1   10     -0.55      0.00
    7    1   10      6.30      0.00
  -12    2   10     -3.32      0.00
  -11    2   10     -0.13      0.00
  -10    2   10     -1.72      0.00
   -9    2   10     -0.31      0.00
   -8    2   10     11.79      0.00
   -7    2   10     -0.75      0.00
   -6    2   10      2.28      0.00
   -5    2   10      3.84      0.00
   -4    2   10    -14.94      0.00
   -3    2   10    -13.87      0.00
   -2    2   10     17.20      0.00
   -1    2   10      3.19      0.00
    0    2   10    -12.67      0.00
    1    2   10     11.54      0.00
    2    2   10      4.93      0.00
    3    2   10      4.20      0.00
    4    2   10     -4.98      0.00
    5    2   10     -1.42      0.00
    6    2   10      0.04      0.00
  -12    3   10     -0.42      0.00
  -11    3   10      0.93      0.00
  -10    3   10     -2.05      0.00
   -9    3   10      4.77      0.00
   -8    3   10      2.60      0.00
   -7    3   10      2.83      0.00
   -6    3   10     -7.33      0.00
   -5    3   10    -16.94      0.00
   -4    3   10     -9.90      0.00
   -3    3   10     14.03      0.00
   -2    3   10     -4.44      0.00
   -1    3   10     -4.04      0.00
    0    3   10      6.24      0.00
    1    3   10     -6.85      0.00
    2    3   10      8.11      0.00
    3    3   10     -3.35      0.00
    4    3   10     -7.57      0.00
    5    3   10     -0.71      0.00
  -12    4   10      1.16      0.00
  -11    4   10     -6.28      0.00
  -10    4   10      4.08      0.00
   -9    4   10      3.42      0.00
   -8    4   10     -4.51      0.00
   -7    4   10     -0.90      0.00
   -6    4   10    -11.58      0.00
   -5    4   10    -20.21      0.00
   -4    4   10     16.96      0.00
   -3    4   10      1.04      0.00
   -2    4   10    -15.89      0.00
   -1    4   10      7.15      0.00
    0    4   10     -2.77      0.00
    1    4   10     -6.90      0.00
    2    4   10      0.40      0.00
    3    4   10     -2.79      0.00
    4    4   10     -6.46      0.00
    5    4   10     -2.45      0.00
  -12    5   10     -1.49      0.00
  -11    5   10     -0.51      0.00
  -10    5   10      0.73      0.00
   -9    5   10      1.78      0.00
   -8    5   10     -1.47      0.00
   -7    5   10    -10.86      0.00
   -6    5   10     -6.86      0.00
   -5    5   10      5.43      0.00
   -4    5   10     -9.05      0.00
   -3    5   10     -0.97      0.00
   -2    5   10      1.66      0.00
   -1    5   10    -10.62      0.00
    0    5   10     -3.88      0.00
    1    5   10      3.02      0.00
    2    5   10     -8.32      0.00
    3    5   10     -3.59      0.00
    4    5   10     -3.16      0.00
    5    5   10     -2.28      0.00
  -12    6   10     -1.68      0.00
  -11    6   10      1.71      0.00
  -10    6   10     -0.53      0.00
   -9    6   10      0.57      0.00
   -8    6   10     -1.76      0.00
   -7    6   10     -5.39      0.00
   -6    6   10     -4.96      0.00
   -5    6   10     -2.00      0.00
   -4    6   10     -0.89      0.00
   -3    6   10     -9.41      0.00
   -2    6   10      5.71      0.00
   -1    6   10     -6.55      0.00
    0    6   10     -6.06      0.00
    1    6   10      0.67      0.00
    2    6   10     -2.35      0.00
    3    6   10     -7.68      0.00
    4    6   10      2.55      0.00
    5    6   10     -1.44      0.00
  -10    7   10      3.34      0.00
   -9    7   10     -4.47      0.00
   -8    7   10      2.86      0.00
   -7    7   10     -5.96      0.00
   -6    7   10    -10.64      0.00
   -5    7   10      5.32      0.00
   -4    7   10     -4.77      0.00
   -3    7   10      0.02      0.00
   -2    7   10      0.98      0.00
   -1    7   10     -1.77      0.00
    0    7   10     -5.58      0.00
    1    7   10      0.23      0.00
    2    7   10     -1.11      0.00
    3    7   10      0.55      0.00
    4    7   10     -5.78      0.00
    5    7   10     -0.79      0.00
  -10    8   10     -0.76      0.00
   -9    8   10      4.13      0.00
   -8    8   10     -9.39      0.00
   -7    8   10     -4.56      0.00
   -6    8   10      4.04      0.00
   -5    8   10     -9.80      0.00
   -4    8   10      7.66      0.00
   -3    8   10      9.88      0.00
   -2    8   10    -10.36      0.00
   -1    8   10     -2.18      0.00
    0    8   10      5.56      0.00
    1    8   10     -4.89      0.00
    2    8   10      0.97      0.00
    3    8   10     -2.91      0.00
    4    8   10     -4.47      0.00
  -11    9   10     -1.91      0.00
  -10    9   10      2.66      0.00
   -9    9   10     -2.18      0.00
   -8    9   10     -4.23      0.00
   -7    9   10     -1.77      0.00
   -6    9   10      0.75      0.00
   -5    9   10      3.78      0.00
   -4    9   10      7.04      0.00
   -3    9   10      1.34      0.00
   -2    9   10     -7.29      0.00
   -1    9   10      0.93      0.00
    0    9   10      4.21      0.00
    1    9   10     -2.15      0.00
    2    9   10     -2.92      0.00
    3    9   10     -0.09      0.00
  -11   10   10      3.03      0.00
  -10   10   10     -0.30      0.00
   -9   10   10      1.51      0.00
   -8   10   10     -3.00      0.00
   -7   10   10     -0.80      0.00
   -6   10   10      4.91      0.00
   -5   10   10      9.21      0.00
   -4   10   10     -2.26      0.00
   -3   10   10     -5.81      0.00
   -2   10   10      5.49      0.00
   -1   10   10      2.37      0.00
    0   10   10     -3.25      0.00
    1   10   10      4.53      0.00
    2   10   10     -0.26      0.00
    3   10   10     -0.44      0.00
  -11   11   10      3.41      0.00
  -10   11   10      4.99      0.00
   -9   11   10     -5.62      0.00
   -8   11   10      3.45      0.00
   -7   11   10      4.27      0.00
   -6   11   10     -0.88      0.00
   -5   11   10      4.20      0.00
   -4   11   10      1.12      0.00
   -3   11   10     -3.57      0.00
   -2   11   10      6.88      0.00
   -1   11   10      1.78      0.00
    0   11   10      1.65      0.00
    1   11   10      3.10      0.00
    2   11   10      2.43      0.00
  -10   12   10     -1.59      0.00
   -9   12   10      1.31      0.00
   -8   12   10      2.28      0.00
   -7   12   10     -0.81      0.00
   -6   12   10      1.66      0.00
   -5   12   10      1.18      0.00
   -4   12   10      3.06      0.00
   -3   12   10      2.89      0.00
   -2   12   10     -0.39      0.00
   -1   12   10      6.48      0.00
    0   12   10      4.10      0.00
    1   12   10      0.81      0.00
  -10   13   10      0.26      0.00
   -9   13   10      1.10      0.00
   -8   13   10     -3.40      0.00
   -7   13   10      1.24      0.00
   -6   13   10      4.13      0.00
   -5   13   10      0.71      0.00
   -4   13   10      0.63      0.00
   -3   13   10      3.69      0.00
   -2   13   10      2.08      0.00
   -1   13   10      1.58      0.00
    0   13   10      4.80      0.00
   -9   14   10      0.33      0.00
   -8   14   10     -0.80      0.00
   -7   14   10     -0.03      0.00
   -6   14   10      3.57      0.00
   -5   14   10      0.92      0.00
   -4   14   10     -1.15      0.00
   -3   14   10      1.79      0.00
   -2   14   10     -0.32      0.00
   -8   15   10     -0.05      0.00
   -7   15   10     -0.48      0.00
   -6   15   10     -0.59      0.00
   -5   15   10      2.39      0.00
   -4   15   10     -0.93      0.00
   -3   15   10     -4.35      0.00
   -6   16   10     -0.20      0.00
   -5   16   10     -0.54      0.00
    0  -17   11      0.29      0.00
    1  -17   11      0.06      0.00
    2  -17   11     -2.52      0.00
    3  -17   11      0.41      0.00
   -2  -16   11      1.80      0.00
   -1  -16   11      2.24      0.00
    0  -16   11     -1.94      0.00
    1  -16   11     -0.70      0.00
    2  -16   11      3.23      0.00
    3  -16   11      0.48      0.00
    4  -16   11      1.75      0.00
    5  -16   11      1.27      0.00
   -3  -15   11     -0.34      0.00
   -2  -15   11      0.26      0.00
   -1  -15   11      0.57      0.00
    0  -15   11      0.47      0.00
    1  -15   11      1.57      0.00
    2  -15   11      0.38      0.00
    3  -15   11      2.07      0.00
    4  -15   11     -0.80      0.00
    5  -15   11     -0.55      0.00
    6  -15   11      1.79      0.00
   -4  -14   11     -1.71      0.00
   -3  -14   11      3.11      0.00
   -2  -14   11     -1.54      0.00
   -1  -14   11     -2.54      0.00
    0  -14   11      5.63      0.00
    1  -14   11     -2.75      0.00
    2  -14   11     -0.86      0.00
    3  -14   11      1.97      0.00
    4  -14   11     -2.17      0.00
    5  -14   11      0.42      0.00
    7  -14   11     -1.22      0.00
   -4  -13   11     -2.60      0.00
   -3  -13   11     -0.11      0.00
   -2  -13   11     -0.92      0.00
   -1  -13   11     -1.34      0.00
    0  -13   11     -1.23      0.00
    1  -13   11      1.68      0.00
    2  -13   11     -3.65      0.00
    3  -13   11     -2.79      0.00
    4  -13   11      2.34      0.00
    5  -13   11      2.06      0.00
    6  -13   11     -4.18      0.00
    7  -13   11     -1.35      0.00
   -5  -12   11     -0.80      0.00
   -4  -12   11     -1.65      0.00
   -3  -12   11     -5.60      0.00
   -2  -12   11     -0.22      0.00
   -1  -12   11      0.93      0.00
    0  -12   11     -4.37      0.00
    1  -12   11     -2.27      0.00
    2  -12   11     -0.97      0.00
    3  -12   11     -2.27      0.00
    4  -12   11      2.21      0.00
    5  -12   11     -2.96      0.00
    7  -12   11      0.72      0.00
   -6  -11   11     -4.14      0.00
   -5  -11   11     -4.21      0.00
   -4  -11   11      0.21      0.00
   -3  -11   11     -5.79      0.00
   -2  -11   11     -2.37      0.00
   -1  -11   11      3.49      0.00
    0  -11   11     -5.96      0.00
    1  -11   11     -5.58      0.00
    2  -11   11      3.62      0.00
    3  -11   11     -3.26      0.00
    4  -11   11     -5.54      0.00
    5  -11   11     -3.28      0.00
    6  -11   11      0.39      0.00
    7  -11   11      1.08      0.00
    8  -11   11     -1.37      0.00
   -7  -10   11     -3.23      0.00
   -6  -10   11     -1.95      0.00
   -5  -10   11     -4.98      0.00
   -4  -10   11     -4.37      0.00
   -3  -10   11      1.88      0.00
   -2  -10   11     -0.54      0.00
   -1  -10   11     -3.76      0.00
    0  -10   11     -2.38      0.00
    1  -10   11      0.50      0.00
    2  -10   11     -7.72      0.00
    3  -10   11     -1.99      0.00
    4  -10   11     -3.91      0.00
    6  -10   11      2.34      0.00
    7  -10   11     -1.01      0.00
    8  -10   11     -0.20      0.00
   -7   -9   11     -5.40      0.00
   -6   -9   11      0.21      0.00
   -5   -9   11     -1.91      0.00
   -4   -9   11     -5.31      0.00
   -3   -9   11      7.34      0.00
   -2   -9   11      2.03      0.00
   -1   -9   11     -9.92      0.00
    0   -9   11      5.66      0.00
    1   -9   11     -4.85      0.00
    2   -9   11    -10.01      0.00
    3   -9   11      0.14      0.00
    4   -9   11      0.39      0.00
    5   -9   11     -1.72      0.00
    6   -9   11      1.90      0.00
    7   -9   11      1.18      0.00
    8   -9   11     -0.46      0.00
   -8   -8   11     -1.07      0.00
   -7   -8   11     -1.27      0.00
   -6   -8   11     -0.93      0.00
   -5   -8   11      1.36      0.00
   -4   -8   11      3.18      0.00
   -3   -8   11      3.08      0.00
   -2   -8   11      2.21      0.00
   -1   -8   11      1.59      0.00
    0   -8   11     -6.74      0.00
    1   -8   11     -6.34      0.00
    2   -8   11      1.12      0.00
    3   -8   11     -1.38      0.00
    4   -8   11      1.37      0.00
    5   -8   11      5.45      0.00
    6   -8   11      0.09      0.00
    7   -8   11      0.84      0.00
    8   -8   11      0.19      0.00
   -9   -7   11     -2.13      0.00
   -8   -7   11      2.84      0.00
   -7   -7   11      4.43      0.00
   -6   -7   11     -4.83      0.00
   -5   -7   11      3.03      0.00
   -4   -7   11     13.68      0.00
   -3   -7   11     -1.63      0.00
   -2   -7   11      2.07      0.00
   -1   -7   11      5.46      0.00
    0   -7   11    -13.23      0.00
    1   -7   11      0.97      0.00
    2   -7   11      9.80      0.00
    3   -7   11      1.25      0.00
    4   -7   11      3.98      0.00
    5   -7   11      2.84      0.00
    6   -7   11      0.09      0.00
    7   -7   11      0.12      0.00
    8   -7   11      0.93      0.00
   -9   -6   11      4.93      0.00
   -8   -6   11      0.47      0.00
   -7   -6   11      0.38      0.00
   -6   -6   11      3.22      0.00
   -5   -6   11      4.64      0.00
   -4   -6   11      8.42      0.00
   -3   -6   11      6.59      0.00
   -2   -6   11     -1.19      0.00
   -1   -6   11     -3.34      0.00
    0   -6   11      7.29      0.00
    1   -6   11      4.47      0.00
    2   -6   11      8.78      0.00
    3   -6   11      4.63      0.00
    5   -6   11      1.99      0.00
    6   -6   11      3.92      0.00
    7   -6   11      1.61      0.00
    8   -6   11      1.63      0.00
  -10   -5   11      3.34      0.00
   -9   -5   11      3.11      0.00
   -8   -5   11     -2.22      0.00
   -7   -5   11      0.15      0.00
   -6   -5   11      7.27      0.00
   -5   -5   11      5.34      0.00
   -4   -5   11      3.39      0.00
   -3   -5   11      9.86      0.00
   -2   -5   11      0.87      0.00
   -1   -5   11      1.26      0.00
    0   -5   11      9.56      0.00
    1   -5   11     12.62      0.00
    2   -5   11     -5.67      0.00
    3   -5   11     -1.86      0.00
    4   -5   11      6.43      0.00
    5   -5   11      3.89      0.00
    6   -5   11      4.88      0.00
    7   -5   11      4.18      0.00
    8   -5   11     -2.66      0.00
  -10   -4   11     -0.87      0.00
   -9   -4   11     -1.09      0.00
   -8   -4   11      3.84      0.00
   -7   -4   11     -3.54      0.00
   -6   -4   11      3.05      0.00
   -5   -4   11     14.18      0.00
   -4   -4   11      1.26      0.00
   -3   -4   11      4.50      0.00
   -2   -4   11     13.18      0.00
   -1   -4   11     -7.94      0.00
    0   -4   11      8.17      0.00
    1   -4   11      2.98      0.00
    2   -4   11     -7.73      0.00
    3   -4   11      5.92      0.00
    4   -4   11     12.15      0.00
    5   -4   11      2.70      0.00
    6   -4   11      4.82      0.00
    7   -4   11      1.38      0.00
    8   -4   11     -2.56      0.00
  -10   -3   11     -0.99      0.00
   -9   -3   11      1.06      0.00
   -8   -3   11     -2.28      0.00
   -7   -3   11     -0.96      0.00
   -6   -3   11      8.12      0.00
   -5   -3   11      6.27      0.00
   -4   -3   11      8.15      0.00
   -3   -3   11      2.05      0.00
   -2   -3   11    -10.40      0.00
   -1   -3   11      7.33      0.00
    0   -3   11     -6.12      0.00
    1   -3   11     -4.82      0.00
    2   -3   11     15.19      0.00
    3   -3   11      6.76      0.00
    4   -3   11     -0.41      0.00
    5   -3   11      8.45      0.00
    6   -3   11      2.28      0.00
    7   -3   11     -3.92      0.00
    8   -3   11     -0.36      0.00
  -11   -2   11     -0.49      0.00
  -10   -2   11      3.82      0.00
   -9   -2   11     -5.17      0.00
   -8   -2   11     -7.37      0.00
   -7   -2   11     12.84      0.00
   -6   -2   11     -0.44      0.00
   -5   -2   11     -0.72      0.00
   -4   -2   11      9.61      0.00
   -3   -2   11    -10.74      0.00
   -2   -2   11    -13.93      0.00
   -1   -2   11      4.47      0.00
    0   -2   11     -0.31      0.00
    1   -2   11      6.42      0.00
    2   -2   11     10.13      0.00
    3   -2   11     -2.05      0.00
    4   -2   11     -1.00      0.00
    5   -2   11      6.01      0.00
    6   -2   11     -2.77      0.00
    7   -2   11     -4.05      0.00
    8   -2   11      3.62      0.00
  -11   -1   11     -0.87      0.00
  -10   -1   11     -1.34      0.00
   -9   -1   11     -3.89      0.00
   -8   -1   11      1.91      0.00
   -7   -1   11     -2.40      0.00
   -6   -1   11      4.20      0.00
   -5   -1   11     -2.46      0.00
   -4   -1   11     -7.25      0.00
   -3   -1   11     -7.35      0.00
   -2   -1   11     -7.17      0.00
   -1   -1   11     -2.24      0.00
    0   -1   11     13.21      0.00
    1   -1   11      1.65      0.00
    2   -1   11    -10.82      0.00
    3   -1   11      0.38      0.00
    4   -1   11      2.96      0.00
    5   -1   11     -3.50      0.00
    6   -1   11     -2.09      0.00
    7   -1   11      2.00      0.00
  -11    0   11      0.95      0.00
  -10    0   11     -4.91      0.00
   -9    0   11      0.36      0.00
   -8    0   11     -1.49      0.00
   -7    0   11     -4.87      0.00
   -6    0   11     -0.52      0.00
   -5    0   11      1.30      0.00
   -4    0   11    -15.24      0.00
   -3    0   11     -8.93      0.00
   -2    0   11      7.33      0.00
   -1    0   11     -6.43      0.00
    0    0   11     -3.64      0.00
    1    0   11      1.09      0.00
    2    0   11    -11.00      0.00
    3    0   11     -2.97      0.00
    4    0   11      4.81      0.00
    5    0   11     -3.77      0.00
    6    0   11     -2.84      0.00
    7    0   11     -2.97      0.00
  -11    1   11     -0.64      0.00
  -10    1   11     -4.39      0.00
   -9    1   11     -5.42      0.00
   -8    1   11      0.81      0.00
   -7    1   11     -2.97      0.00
   -6    1   11     -2.96      0.00
   -5    1   11      1.67      0.00
   -4    1   11    -10.38      0.00
   -3    1   11    -10.45      0.00
   -2    1   11     -2.49      0.00
   -1    1   11     -5.08      0.00
    0    1   11     -3.33      0.00
    1    1   11     -8.12      0.00
    2    1   11     -2.48      0.00
    3    1   11     -0.90      0.00
    4    1   11      0.04      0.00
    5    1   11     -5.03      0.00
    6    1   11     -6.79      0.00
    7    1   11      1.71      0.00
  -12    2   11     -1.52      0.00
  -11    2   11     -3.57      0.00
  -10    2   11     -1.62      0.00
   -9    2   11     -3.49      0.00
   -8    2   11     -0.81      0.00
   -7    2   11      5.59      0.00
   -6    2   11      3.45      0.00
   -5    2   11    -11.99      0.00
   -4    2   11     -6.70      0.00
   -3    2   11    -11.76      0.00
   -2    2   11    -12.05      0.00
   -1    2   11     11.08      0.00
    0    2   11     -8.89      0.00
    1    2   11     -9.73      0.00
    2    2   11      4.40      0.00
    3    2   11      2.55      0.00
    4    2   11    -11.83      0.00
  -12    3   11     -0.25      0.00
  -11    3   11     -1.88      0.00
  -10    3   11     -1.69      0.00
   -9    3   11      4.51      0.00
   -8    3   11     -0.96      0.00
   -7    3   11      9.02      0.00
   -6    3   11     -0.83      0.00
   -5    3   11    -18.08      0.00
   -4    3   11    -13.64      0.00
   -3    3   11      5.19      0.00
   -2    3   11     -1.97      0.00
   -1    3   11     -6.08      0.00
    0    3   11      7.35      0.00
    1    3   11     -5.05      0.00
    2    3   11      0.29      0.00
    3    3   11     -5.59      0.00
    4    3   11     -2.90      0.00
    5    3   11     -4.04      0.00
  -12    4   11      1.02      0.00
  -11    4   11     -2.20      0.00
  -10    4   11      2.09      0.00
   -9    4   11      2.41      0.00
   -8    4   11      6.19      0.00
   -7    4   11      0.51      0.00
   -6    4   11     -8.49      0.00
   -5    4   11    -10.95      0.00
   -4    4   11      2.88      0.00
   -3    4   11      0.54      0.00
   -2    4   11      1.38      0.00
   -1    4   11      7.49      0.00
    0    4   11     -4.06      0.00
    1    4   11      4.40      0.00
    2    4   11     -9.55      0.00
    3    4   11     -0.79      0.00
    4    4   11      1.10      0.00
    5    4   11     -2.04      0.00
  -12    5   11     -1.60      0.00
  -11    5   11      3.65      0.00
  -10    5   11      0.25      0.00
   -9    5   11      1.18      0.00
   -8    5   11      9.59      0.00
   -7    5   11     -6.79      0.00
   -6    5   11    -10.78      0.00
   -5    5   11     15.66      0.00
   -4    5   11     -5.51      0.00
   -3    5   11     -7.20      0.00
   -2    5   11     23.44      0.00
   -1    5   11     -3.03      0.00
    0    5   11     -5.71      0.00
    1    5   11      0.52      0.00
    2    5   11      0.47      0.00
    3    5   11     -0.87      0.00
    4    5   11      1.38      0.00
    5    5   11     -0.71      0.00
   -9    6   11      3.70      0.00
   -8    6   11     -1.44      0.00
   -7    6   11      0.87      0.00
   -6    6   11      7.39      0.00
   -5    6   11     -8.04      0.00
   -4    6   11      1.75      0.00
   -3    6   11     12.88      0.00
   -2    6   11      0.19      0.00
    0    6   11     -0.52      0.00
    1    6   11     -3.55      0.00
    2    6   11      6.48      0.00
    3    6   11      2.00      0.00
    4    6   11      0.76      0.00
    5    6   11      1.81      0.00
  -10    7   11      3.23      0.00
   -9    7   11      1.46      0.00
   -8    7   11      2.25      0.00
   -7    7   11      6.88      0.00
   -6    7   11     -5.24      0.00
   -5    7   11     -5.21      0.00
   -4    7   11      7.71      0.00
   -3    7   11     11.66      0.00
   -2    7   11     -4.66      0.00
   -1    7   11      2.70      0.00
    0    7   11      3.23      0.00
    1    7   11      1.16      0.00
    2    7   11      2.77      0.00
    3    7   11      8.87      0.00
    4    7   11     -2.19      0.00
  -10    8   11     -0.54      0.00
   -9    8   11      9.49      0.00
   -8    8   11      1.33      0.00
   -7    8   11     -7.78      0.00
   -6    8   11      3.22      0.00
   -5    8   11     -2.11      0.00
   -4    8   11      5.29      0.00
   -3    8   11      8.55      0.00
   -2    8   11      2.03      0.00
   -1    8   11     -1.69      0.00
    0    8   11      5.10      0.00
    1    8   11      3.30      0.00
    2    8   11      5.59      0.00
    3    8   11     -1.63      0.00
    4    8   11     -0.37      0.00
  -11    9   11      1.19      0.00
  -10    9   11      7.15      0.00
   -9    9   11     -0.38      0.00
   -8    9   11     -0.81      0.00
   -7    9   11     -0.28      0.00
   -6    9   11     -7.77      0.00
   -5    9   11      9.52      0.00
   -4    9   11      8.31      0.00
   -3    9   11     -2.79      0.00
   -2    9   11      4.85      0.00
   -1    9   11      1.95      0.00
    0    9   11     -2.23      0.00
    1    9   11      7.61      0.00
    2    9   11     -2.18      0.00
    3    9   11     -0.24      0.00
  -11   10   11      5.26      0.00
  -10   10   11      1.60      0.00
   -9   10   11     -0.48      0.00
   -8   10   11      0.68      0.00
   -7   10   11     -4.68      0.00
   -6   10   11      0.16      0.00
   -5   10   11      9.42      0.00
   -4   10   11      1.86      0.00
   -3   10   11     -4.69      0.00
   -2   10   11      3.56      0.00
   -1   10   11      0.24      0.00
    0   10   11     -0.18      0.00
    1   10   11      0.31      0.00
    2   10   11      3.39      0.00
  -11   11   11      0.83      0.00
  -10   11   11      2.47      0.00
   -9   11   11     -1.27      0.00
   -8   11   11     -3.70      0.00
   -7   11   11      2.40      0.00
   -6   11   11      1.94      0.00
   -5   11   11     -2.95      0.00
   -4   11   11      0.15      0.00
   -3   11   11      3.50      0.00
   -2   11   11     -5.06      0.00
   -1   11   11     -1.12      0.00
    0   11   11      4.05      0.00
    1   11   11      0.82      0.00
  -10   12   11     -2.04      0.00
   -9   12   11      0.10      0.00
   -8   12   11      0.25      0.00
   -7   12   11     -5.53      0.00
   -6   12   11      1.51      0.00
   -5   12   11     -2.49      0.00
   -4   12   11     -0.25      0.00
   -3   12   11      2.38      0.00
   -2   12   11     -5.71      0.00
   -1   12   11      0.41      0.00
    0   12   11      4.56      0.00
  -10   13   11     -1.43      0.00
   -9   13   11      1.14      0.00
   -8   13   11     -6.42      0.00
   -7   13   11     -2.58      0.00
   -6   13   11     -0.66      0.00
   -5   13   11      1.89      0.00
   -4   13   11     -0.06      0.00
   -3   13   11     -3.87      0.00
   -2   13   11      0.51      0.00
   -1   13   11      1.00      0.00
   -9   14   11     -4.22      0.00
   -8   14   11     -1.21      0.00
   -7   14   11     -1.14      0.00
   -6   14   11     -1.90      0.00
   -5   14   11      3.05      0.00
   -4   14   11     -0.15      0.00
   -3   14   11     -3.68      0.00
   -7   15   11     -0.60      0.00
   -6   15   11     -0.95      0.00
   -5   15   11      0.92      0.00
   -4   15   11      0.00      0.00
   -3   15   11     -3.18      0.00
   -1  -16   12     -0.29      0.00
    0  -16   12     -0.62      0.00
    1  -16   12     -2.62      0.00
    2  -16   12      0.03      0.00
    3  -16   12      1.67      0.00
    4  -16   12     -2.68      0.00
   -2  -15   12     -1.94      0.00
   -1  -15   12     -3.95      0.00
    0  -15   12      0.91      0.00
    1  -15   12      0.33      0.00
    2  -15   12     -2.15      0.00
    3  -15   12     -0.34      0.00
    4  -15   12     -1.00      0.00
    5  -15   12      0.71      0.00
   -3  -14   12     -1.47      0.00
   -2  -14   12     -1.28      0.00
   -1  -14   12     -1.43      0.00
    0  -14   12     -0.30      0.00
    1  -14   12     -0.68      0.00
    2  -14   12     -0.96      0.00
    3  -14   12     -2.92      0.00
    4  -14   12      0.22      0.00
    5  -14   12      2.41      0.00
   -4  -13   12      0.87      0.00
   -3  -13   12     -4.33      0.00
   -2  -13   12      0.06      0.00
   -1  -13   12      3.80      0.00
    0  -13   12     -5.79      0.00
    1  -13   12      1.41      0.00
    2  -13   12      0.10      0.00
    3  -13   12     -5.30      0.00
    4  -13   12      1.41      0.00
    5  -13   12      0.39      0.00
    6  -13   12     -0.21      0.00
   -5  -12   12     -0.43      0.00
   -4  -12   12      1.15      0.00
   -3  -12   12     -0.98      0.00
   -2  -12   12      0.95      0.00
   -1  -12   12      1.09      0.00
    0  -12   12      1.53      0.00
    1  -12   12     -2.80      0.00
    2  -12   12     -2.24      0.00
    3  -12   12      1.27      0.00
    4  -12   12     -0.11      0.00
    5  -12   12     -0.25      0.00
    7  -12   12      1.02      0.00
   -6  -11   12      2.70      0.00
   -5  -11   12     -1.01      0.00
   -4  -11   12     -1.20      0.00
   -3  -11   12      5.71      0.00
   -2  -11   12      0.86      0.00
   -1  -11   12      0.39      0.00
    0  -11   12      4.29      0.00
    1  -11   12     -2.27      0.00
    2  -11   12     -0.78      0.00
    3  -11   12      3.76      0.00
    4  -11   12     -0.73      0.00
    5  -11   12     -1.43      0.00
    6  -11   12      3.35      0.00
    7  -11   12      1.54      0.00
   -7  -10   12     -1.07      0.00
   -6  -10   12      2.52      0.00
   -5  -10   12      1.60      0.00
   -4  -10   12     -2.32      0.00
   -3  -10   12      5.41      0.00
   -2  -10   12      7.87      0.00
   -1  -10   12     -1.25      0.00
    0  -10   12      2.24      0.00
    1  -10   12      5.50      0.00
    2  -10   12     -2.01      0.00
    3  -10   12      0.80      0.00
    4  -10   12      2.30      0.00
    5  -10   12      1.80      0.00
    6  -10   12      2.41      0.00
    7  -10   12     -1.62      0.00
   -7   -9   12      2.14      0.00
   -6   -9   12     -1.93      0.00
   -5   -9   12      1.47      0.00
   -4   -9   12      4.05      0.00
   -3   -9   12      4.57      0.00
   -2   -9   12      5.68      0.00
   -1   -9   12      4.80      0.00
    0   -9   12      3.72      0.00
    1   -9   12     -0.59      0.00
    2   -9   12      3.28      0.00
    3   -9   12     -0.13      0.00
    4   -9   12      1.76      0.00
    5   -9   12      3.48      0.00
    6   -9   12     -1.43      0.00
    7   -9   12      1.70      0.00
   -8   -8   12      2.95      0.00
   -7   -8   12      2.62      0.00
   -6   -8   12     -2.09      0.00
   -5   -8   12      0.12      0.00
   -4   -8   12     10.83      0.00
   -3   -8   12      2.03      0.00
   -2   -8   12      2.31      0.00
   -1   -8   12     15.54      0.00
    0   -8   12     -5.21      0.00
    1   -8   12     -3.76      0.00
    2   -8   12      6.05      0.00
    3   -8   12     -0.04      0.00
    4   -8   12     -0.38      0.00
    5   -8   12      4.82      0.00
    6   -8   12      1.55      0.00
    7   -8   12      2.82      0.00
    8   -8   12      1.09      0.00
   -9   -7   12      3.50      0.00
   -8   -7   12      0.74      0.00
   -7   -7   12      1.91      0.00
   -6   -7   12      1.19      0.00
   -5   -7   12     -0.19      0.00
   -4   -7   12      6.11      0.00
   -3   -7   12      6.40      0.00
   -2   -7   12      8.25      0.00
   -1   -7   12     -2.30      0.00
    0   -7   12     -3.41      0.00
    1   -7   12     -0.40      0.00
    2   -7   12      0.81      0.00
    3   -7   12      3.30      0.00
    4   -7   12      6.45      0.00
    5   -7   12      0.19      0.00
    6   -7   12      3.15      0.00
    7   -7   12      1.14      0.00
    8   -7   12     -1.50      0.00
   -9   -6   12      5.35      0.00
   -8   -6   12      1.04      0.00
   -7   -6   12     -4.99      0.00
   -6   -6   12      2.44      0.00
   -5   -6   12      5.02      0.00
   -4   -6   12     -4.44      0.00
   -3   -6   12     11.93      0.00
   -2   -6   12      2.34      0.00
   -1   -6   12    -15.91      0.00
    0   -6   12      2.62      0.00
    1   -6   12      5.80      0.00
    2   -6   12     -2.40      0.00
    3   -6   12      8.13      0.00
    5   -6   12     -3.31      0.00
    6   -6   12      2.46      0.00
    7   -6   12     -1.26      0.00
    8   -6   12      0.36      0.00
  -10   -5   12      2.32      0.00
   -9   -5   12      0.06      0.00
   -8   -5   12     -2.08      0.00
   -7   -5   12     -3.28      0.00
   -6   -5   12     -1.29      0.00
   -5   -5   12      0.56      0.00
   -4   -5   12      0.41      0.00
   -3   -5   12     -0.54      0.00
   -2   -5   12     -4.64      0.00
   -1   -5   12     -3.55      0.00
    0   -5   12     -1.95      0.00
    1   -5   12      4.89      0.00
    2   -5   12      1.90      0.00
    3   -5   12     -6.72      0.00
    4   -5   12     -2.38      0.00
    5   -5   12      2.10      0.00
    6   -5   12     -1.36      0.00
    7   -5   12      1.36      0.00
    8   -5   12     -0.87      0.00
  -10   -4   12      0.06      0.00
   -9   -4   12     -5.74      0.00
   -8   -4   12     -1.40      0.00
   -7   -4   12     -1.38      0.00
   -6   -4   12     -9.12      0.00
   -5   -4   12     -2.73      0.00
   -4   -4   12      5.23      0.00
   -3   -4   12     -7.06      0.00
   -2   -4   12     -4.03      0.00
   -1   -4   12      0.90      0.00
    0   -4   12     -5.34      0.00
    1   -4   12     -8.07      0.00
    2   -4   12     -1.55      0.00
    3   -4   12     -4.48      0.00
    4   -4   12     -1.15      0.00
    5   -4   12      1.85      0.00
    6   -4   12     -0.53      0.00
    7   -4   12     -0.25      0.00
  -10   -3   12     -1.15      0.00
   -9   -3   12     -0.59      0.00
   -8   -3   12     -7.30      0.00
   -7   -3   12     -4.52      0.00
   -6   -3   12     -2.97      0.00
   -5   -3   12     -6.21      0.00
   -4   -3   12      4.99      0.00
   -3   -3   12      1.81      0.00
   -2   -3   12    -16.60      0.00
   -1   -3   12     -3.40      0.00
    0   -3   12    -10.77      0.00
    1   -3   12    -12.32      0.00
    2   -3   12      3.45      0.00
    3   -3   12      3.82      0.00
    4   -3   12     -5.91      0.00
    5   -3   12      0.21      0.00
    6   -3   12      1.53      0.00
    7   -3   12     -2.90      0.00
  -11   -2   12     -1.65      0.00
  -10   -2   12      1.61      0.00
   -9   -2   12     -3.62      0.00
   -8   -2   12     -7.49      0.00
   -7   -2   12     -1.74      0.00
   -6   -2   12     -2.08      0.00
   -5   -2   12      1.16      0.00
   -4   -2   12     -0.16      0.00
   -3   -2   12     -8.26      0.00
   -2   -2   12     -9.21      0.00
   -1   -2   12    -22.29      0.00
    0   -2   12     -6.23      0.00
    1   -2   12     10.95      0.00
    2   -2   12     -0.39      0.00
    3   -2   12     -5.60      0.00
    4   -2   12      0.99      0.00
    5   -2   12     -2.06      0.00
    6   -2   12     -3.28      0.00
    7   -2   12     -1.23      0.00
  -11   -1   12      2.01      0.00
  -10   -1   12     -5.37      0.00
   -9   -1   12     -4.13      0.00
   -8   -1   12      5.86      0.00
   -7   -1   12     -9.30      0.00
   -6   -1   12      1.65      0.00
   -5   -1   12      9.48      0.00
   -4   -1   12    -12.28      0.00
   -3   -1   12    -12.93      0.00
   -2   -1   12     -8.08      0.00
   -1   -1   12    -15.12      0.00
    0   -1   12     10.42      0.00
    1   -1   12     11.91      0.00
    2   -1   12    -11.99      0.00
    3   -1   12     -3.74      0.00
    4   -1   12      2.85      0.00
    5   -1   12     -5.91      0.00
    6   -1   12     -2.35      0.00
    7   -1   12      1.13      0.00
  -11    0   12      0.50      0.00
  -10    0   12     -3.05      0.00
   -9    0   12      2.96      0.00
   -8    0   12     -1.52      0.00
   -7    0   12      1.14      0.00
   -6    0   12      1.98      0.00
   -5    0   12      0.83      0.00
   -4    0   12     -7.05      0.00
   -3    0   12    -13.99      0.00
   -2    0   12     -5.97      0.00
   -1    0   12     13.11      0.00
    0    0   12      2.64      0.00
    1    0   12     -7.83      0.00
    2    0   12      2.74      0.00
    3    0   12     -2.30      0.00
    4    0   12     -4.89      0.00
    5    0   12      1.48      0.00
    6    0   12      0.36      0.00
    7    0   12     -4.79      0.00
  -11    1   12     -1.81      0.00
  -10    1   12      4.65      0.00
   -9    1   12     -1.50      0.00
   -8    1   12     -3.05      0.00
   -7    1   12      6.28      0.00
   -6    1   12      4.33      0.00
   -5    1   12     -6.47      0.00
   -4    1   12      0.98      0.00
   -3    1   12      0.05      0.00
   -2    1   12     -4.18      0.00
   -1    1   12      7.75      0.00
    0    1   12      2.59      0.00
    1    1   12     -5.15      0.00
    2    1   12      2.89      0.00
    3    1   12      1.10      0.00
    4    1   12     -2.16      0.00
    5    1   12      2.35      0.00
  -11    2   12     -0.19      0.00
  -10    2   12      0.93      0.00
   -9    2   12      0.94      0.00
   -8    2   12     -1.86      0.00
   -7    2   12      7.56      0.00
   -6    2   12     10.04      0.00
   -5    2   12     -1.87      0.00
   -4    2   12      1.46      0.00
   -3    2   12      3.55      0.00
   -2    2   12     -6.00      0.00
   -1    2   12      4.93      0.00
    0    2   12      5.87      0.00
    1    2   12      1.72      0.00
    2    2   12     -0.05      0.00
    3    2   12      3.90      0.00
    4    2   12      1.14      0.00
  -11    3   12      2.44      0.00
  -10    3   12     -1.08      0.00
   -9    3   12      1.60      0.00
   -8    3   12      7.07      0.00
   -7    3   12      7.97      0.00
   -6    3   12      3.89      0.00
   -5    3   12      8.28      0.00
   -4    3   12     -7.15      0.00
   -3    3   12     -7.19      0.00
   -2    3   12     14.00      0.00
   -1    3   12     -1.84      0.00
    0    3   12      5.51      0.00
    1    3   12     10.92      0.00
    2    3   12      0.26      0.00
    3    3   12     -3.86      0.00
    4    3   12      5.16      0.00
  -11    4   12      1.96      0.00
  -10    4   12      1.78      0.00
   -9    4   12     -0.82      0.00
   -8    4   12     10.97      0.00
   -7    4   12      4.52      0.00
   -6    4   12     -0.48      0.00
   -5    4   12      0.97      0.00
   -4    4   12     -2.76      0.00
   -3    4   12     -1.97      0.00
   -2    4   12      5.53      0.00
   -1    4   12     14.88      0.00
    0    4   12      2.64      0.00
    1    4   12      5.83      0.00
    2    4   12     -4.35      0.00
    3    4   12      3.19      0.00
    4    4   12      2.74      0.00
   -9    5   12      2.57      0.00
   -8    5   12      4.01      0.00
   -7    5   12      1.68      0.00
   -6    5   12     -2.68      0.00
   -5    5   12      0.16      0.00
   -4    5   12     -0.28      0.00
   -3    5   12     -2.19      0.00
   -2    5   12     13.46      0.00
   -1    5   12      8.26      0.00
    0    5   12      5.20      0.00
    1    5   12    -10.58      0.00
    2    5   12      5.58      0.00
    3    5   12      5.13      0.00
    4    5   12     -0.50      0.00
    5    5   12      1.00      0.00
   -9    6   12      4.02      0.00
   -8    6   12     -5.77      0.00
   -7    6   12      0.25      0.00
   -6    6   12     11.64      0.00
   -5    6   12    -14.32      0.00
   -4    6   12     -6.43      0.00
   -3    6   12     21.46      0.00
   -2    6   12     -3.25      0.00
   -1    6   12      2.15      0.00
    0    6   12      0.41      0.00
    1    6   12     -3.19      0.00
    2    6   12      2.83      0.00
    3    6   12      2.82      0.00
    4    6   12      0.37      0.00
  -10    7   12     -1.17      0.00
   -9    7   12     -2.43      0.00
   -8    7   12      2.42      0.00
   -7    7   12      7.67      0.00
   -6    7   12    -10.51      0.00
   -5    7   12     -6.39      0.00
   -4    7   12      6.71      0.00
   -3    7   12     -0.01      0.00
   -2    7   12      2.41      0.00
   -1    7   12     -2.14      0.00
    0    7   12     -2.78      0.00
    1    7   12      4.28      0.00
    2    7   12     -2.15      0.00
    3    7   12      2.41      0.00
    4    7   12      2.57      0.00
  -10    8   12     -2.48      0.00
   -9    8   12      2.52      0.00
   -8    8   12      9.30      0.00
   -7    8   12    -10.44      0.00
   -6    8   12     -8.61      0.00
   -5    8   12      5.26      0.00
   -4    8   12     -2.36      0.00
   -3    8   12     -5.37      0.00
   -2    8   12      6.87      0.00
   -1    8   12     -1.26      0.00
    0    8   12     -3.72      0.00
    1    8   12      0.38      0.00
    2    8   12      3.35      0.00
    3    8   12     -2.76      0.00
  -11    9   12     -1.15      0.00
  -10    9   12      4.74      0.00
   -9    9   12      2.13      0.00
   -8    9   12     -5.52      0.00
   -7    9   12     -0.58      0.00
   -6    9   12     -7.65      0.00
   -5    9   12     -2.59      0.00
   -4    9   12      3.16      0.00
   -3    9   12     -0.24      0.00
   -2    9   12     -0.38      0.00
   -1    9   12      0.01      0.00
    0    9   12     -4.68      0.00
    1    9   12      0.76      0.00
    2    9   12     -3.24      0.00
  -11   10   12      1.95      0.00
  -10   10   12      0.41      0.00
   -9   10   12     -1.24      0.00
   -8   10   12     -1.84      0.00
   -7   10   12     -6.99      0.00
   -6   10   12     -0.31      0.00
   -5   10   12     -2.06      0.00
   -4   10   12     -0.03      0.00
   -3   10   12      3.25      0.00
   -2   10   12     -4.09      0.00
   -1   10   12     -6.17      0.00
    0   10   12      2.13      0.00
    1   10   12     -6.77      0.00
  -10   11   12     -1.16      0.00
   -9   11   12      0.05      0.00
   -8   11   12     -6.31      0.00
   -7   11   12     -1.40      0.00
   -6   11   12      0.71      0.00
   -5   11   12     -4.40      0.00
   -4   11   12     -2.19      0.00
   -3   11   12      4.00      0.00
   -2   11   12     -6.60      0.00
   -1   11   12     -3.67      0.00
    0   11   12     -2.36      0.00
  -10   12   12     -1.17      0.00
   -9   12   12     -3.23      0.00
   -8   12   12      2.35      0.00
   -7   12   12     -5.26      0.00
   -6   12   12     -5.22      0.00
   -5   12   12      1.16      0.00
   -4   12   12      1.30      0.00
   -3   12   12     -3.88      0.00
   -2   12   12     -1.28      0.00
   -1   12   12     -1.85      0.00
   -9   13   12      1.44      0.00
   -8   13   12     -3.91      0.00
   -7   13   12     -2.68      0.00
   -6   13   12     -3.54      0.00
   -5   13   12      2.57      0.00
   -4   13   12      2.60      0.00
   -3   13   12     -3.90      0.00
   -2   13   12      0.13      0.00
   -8   14   12     -1.37      0.00
   -7   14   12     -0.52      0.00
   -6   14   12      0.10      0.00
   -5   14   12      1.41      0.00
   -4   14   12      0.71      0.00
   -3   14   12      0.58      0.00
    0  -16   13      0.32      0.00
    1  -16   13      0.29      0.00
    2  -16   13     -0.55      0.00
    3  -16   13      0.50      0.00
   -2  -15   13      1.19      0.00
   -1  -15   13      0.26      0.00
    0  -15   13     -0.64      0.00
    1  -15   13      1.89      0.00
    2  -15   13      0.85      0.00
    3  -15   13     -2.42      0.00
    4  -15   13      0.49      0.00
   -3  -14   13     -1.66      0.00
   -2  -14   13      1.57      0.00
   -1  -14   13      3.91      0.00
    0  -14   13     -1.23      0.00
    1  -14   13      0.39      0.00
    2  -14   13      2.18      0.00
    3  -14   13     -1.07      0.00
    4  -14   13      1.63      0.00
    5  -14   13      2.19      0.00
   -4  -13   13      1.37      0.00
   -3  -13   13      2.10      0.00
   -2  -13   13      1.25      0.00
   -1  -13   13      2.14      0.00
    0  -13   13      1.52      0.00
    1  -13   13      1.30      0.00
    2  -13   13      0.77      0.00
    3  -13   13      1.88      0.00
    4  -13   13      1.07      0.00
    5  -13   13     -4.17      0.00
    6  -13   13      4.26      0.00
   -5  -12   13      0.74      0.00
   -4  -12   13     -1.40      0.00
   -3  -12   13      4.87      0.00
   -2  -12   13      3.02      0.00
   -1  -12   13     -2.25      0.00
    0  -12   13      6.65      0.00
    1  -12   13      1.63      0.00
    2  -12   13     -3.01      0.00
    3  -12   13      3.71      0.00
    4  -12   13     -2.56      0.00
    5  -12   13      1.53      0.00
    6  -12   13      0.95      0.00
   -6  -11   13      2.58      0.00
   -5  -11   13      0.31      0.00
   -4  -11   13     -0.86      0.00
   -3  -11   13      3.46      0.00
   -2  -11   13      2.87      0.00
   -1  -11   13      1.72      0.00
    0  -11   13      2.11      0.00
    1  -11   13      0.34      0.00
    2  -11   13      1.25      0.00
    3  -11   13     -1.59      0.00
    4  -11   13      1.39      0.00
    6  -11   13      1.45      0.00
    7  -11   13      1.15      0.00
   -6  -10   13     -2.50      0.00
   -5  -10   13      0.03      0.00
   -4  -10   13      3.23      0.00
   -3  -10   13     -3.95      0.00
   -2  -10   13      4.04      0.00
   -1  -10   13      4.83      0.00
    0  -10   13     -4.02      0.00
    1  -10   13      1.00      0.00
    2  -10   13      2.09      0.00
    3  -10   13     -2.46      0.00
    4  -10   13      1.63      0.00
    6  -10   13      0.85      0.00
    7  -10   13     -1.13      0.00
   -7   -9   13      2.82      0.00
   -6   -9   13     -4.23      0.00
   -5   -9   13     -3.52      0.00
   -4   -9   13      0.27      0.00
   -3   -9   13      0.68      0.00
   -2   -9   13     -3.30      0.00
   -1   -9   13      3.38      0.00
    0   -9   13      0.69      0.00
    1   -9   13     -4.70      0.00
    2   -9   13      0.67      0.00
    3   -9   13      1.25      0.00
    4   -9   13     -1.11      0.00
    6   -9   13     -2.20      0.00
    7   -9   13      0.63      0.00
   -8   -8   13      1.14      0.00
   -7   -8   13     -4.63      0.00
   -6   -8   13     -1.81      0.00
   -5   -8   13     -4.97      0.00
   -4   -8   13     -3.59      0.00
   -3   -8   13     -0.09      0.00
   -2   -8   13     -1.47      0.00
   -1   -8   13      2.09      0.00
    0   -8   13     -2.50      0.00
    1   -8   13     -3.41      0.00
    2   -8   13     -4.55      0.00
    3   -8   13     -0.64      0.00
    4   -8   13     -2.12      0.00
    5   -8   13     -2.61      0.00
    6   -8   13      1.59      0.00
    7   -8   13      1.77      0.00
   -8   -7   13     -3.22      0.00
   -7   -7   13     -6.61      0.00
   -6   -7   13     -0.64      0.00
   -5   -7   13     -3.12      0.00
   -4   -7   13     -9.14      0.00
   -3   -7   13      1.43      0.00
   -2   -7   13     10.24      0.00
   -1   -7   13    -12.67      0.00
    0   -7   13     -4.76      0.00
    1   -7   13     -3.18      0.00
    2   -7   13     -8.78      0.00
    3   -7   13     -3.56      0.00
    5   -7   13     -0.15      0.00
    6   -7   13      2.46      0.00
    7   -7   13      0.02      0.00
   -9   -6   13     -2.12      0.00
   -8   -6   13     -1.39      0.00
   -7   -6   13     -2.90      0.00
   -6   -6   13     -5.80      0.00
   -5   -6   13     -1.22      0.00
   -4   -6   13     -2.37      0.00
   -3   -6   13      4.17      0.00
   -2   -6   13     -4.20      0.00
   -1   -6   13     -7.94      0.00
    0   -6   13    -10.92      0.00
    1   -6   13     -6.08      0.00
    2   -6   13     -1.99      0.00
    3   -6   13      3.03      0.00
    4   -6   13      0.45      0.00
    5   -6   13      0.70      0.00
    6   -6   13     -1.35      0.00
    7   -6   13     -5.30      0.00
   -9   -5   13     -2.61      0.00
   -8   -5   13     -3.64      0.00
   -7   -5   13      2.73      0.00
   -6   -5   13     -3.72      0.00
   -5   -5   13     -6.50      0.00
   -4   -5   13      8.81      0.00
   -3   -5   13     -6.05      0.00
   -2   -5   13    -12.03      0.00
   -1   -5   13      0.41      0.00
    0   -5   13     -8.51      0.00
    1   -5   13     -7.74      0.00
    2   -5   13     10.33      0.00
    3   -5   13     -2.09      0.00
    4   -5   13     -4.45      0.00
    5   -5   13      1.24      0.00
    6   -5   13     -7.32      0.00
    7   -5   13     -0.20      0.00
  -10   -4   13      0.87      0.00
   -9   -4   13     -2.81      0.00
   -8   -4   13     -0.29      0.00
   -7   -4   13      2.84      0.00
   -6   -4   13     -3.35      0.00
   -5   -4   13     -3.79      0.00
   -4   -4   13      0.49      0.00
   -3   -4   13     -1.47      0.00
   -2   -4   13     -4.30      0.00
   -1   -4   13     -1.73      0.00
    0   -4   13     -2.74      0.00
    1   -4   13     -0.21      0.00
    2   -4   13     -2.90      0.00
    3   -4   13      1.51      0.00
    4   -4   13     -0.73      0.00
    5   -4   13     -5.64      0.00
    6   -4   13     -1.13      0.00
    7   -4   13      0.16      0.00
  -10   -3   13     -2.66      0.00
   -9   -3   13      2.73      0.00
   -8   -3   13      3.31      0.00
   -7   -3   13     -5.42      0.00
   -6   -3   13      1.06      0.00
   -5   -3   13      1.99      0.00
   -4   -3   13     -2.65      0.00
   -3   -3   13      7.03      0.00
   -2   -3   13      5.53      0.00
   -1   -3   13    -11.11      0.00
    0   -3   13     -2.49      0.00
    1   -3   13      1.11      0.00
    2   -3   13     -1.80      0.00
    3   -3   13      4.29      0.00
    4   -3   13      0.29      0.00
    5   -3   13     -3.57      0.00
    6   -3   13      2.19      0.00
    7   -3   13      0.93      0.00
  -10   -2   13     -0.61      0.00
   -9   -2   13      2.23      0.00
   -8   -2   13      1.98      0.00
   -7   -2   13     -1.65      0.00
   -6   -2   13      0.91      0.00
   -5   -2   13      9.90      0.00
   -4   -2   13      5.48      0.00
   -3   -2   13      1.19      0.00
   -2   -2   13      4.39      0.00
   -1   -2   13    -12.69      0.00
    0   -2   13     -6.63      0.00
    1   -2   13     11.21      0.00
    2   -2   13      7.76      0.00
    3   -2   13     -2.44      0.00
    4   -2   13      4.07      0.00
    5   -2   13      2.56      0.00
    6   -2   13      0.39      0.00
    7   -2   13      1.46      0.00
  -11   -1   13      1.10      0.00
  -10   -1   13     -0.04      0.00
   -9   -1   13     -1.05      0.00
   -8   -1   13      4.78      0.00
   -7   -1   13      3.13      0.00
   -6   -1   13      4.18      0.00
   -5   -1   13     10.45      0.00
   -4   -1   13      7.44      0.00
   -3   -1   13     -0.66      0.00
   -2   -1   13    -12.36      0.00
   -1   -1   13     -0.70      0.00
    0   -1   13      9.54      0.00
    1   -1   13      8.16      0.00
    2   -1   13      4.50      0.00
    3   -1   13      5.04      0.00
    4   -1   13      1.61      0.00
    5   -1   13      2.25      0.00
    6   -1   13      2.61      0.00
  -11    0   13     -1.71      0.00
  -10    0   13      1.81      0.00
   -9    0   13      6.40      0.00
   -8    0   13     -2.35      0.00
   -7    0   13      8.21      0.00
   -6    0   13     10.69      0.00
   -5    0   13     -1.21      0.00
   -4    0   13      5.86      0.00
   -3    0   13     -1.96      0.00
   -2    0   13    -12.58      0.00
   -1    0   13     16.32      0.00
    0    0   13     12.52      0.00
    1    0   13     -5.69      0.00
    2    0   13     10.54      0.00
    3    0   13      7.11      0.00
    4    0   13     -3.45      0.00
    5    0   13      5.34      0.00
    6    0   13      3.04      0.00
  -11    1   13     -0.61      0.00
  -10    1   13      5.99      0.00
   -9    1   13      2.10      0.00
   -8    1   13      0.00      0.00
   -7    1   13      4.67      0.00
   -6    1   13      4.63      0.00
   -5    1   13      0.24      0.00
   -4    1   13     -1.05      0.00
   -3    1   13      2.32      0.00
   -2    1   13      9.20      0.00
   -1    1   13      0.40      0.00
    0    1   13      0.44      0.00
    1    1   13     12.77      0.00
    2    1   13      1.84      0.00
    3    1   13     -0.95      0.00
    4    1   13      5.99      0.00
  -11    2   13      4.03      0.00
  -10    2   13     -0.66      0.00
   -9    2   13     -1.10      0.00
   -8    2   13      3.29      0.00
   -7    2   13     -2.50      0.00
   -6    2   13     -0.12      0.00
   -5    2   13      9.43      0.00
   -4    2   13      0.69      0.00
   -3    2   13      0.78      0.00
   -2    2   13      3.76      0.00
   -1    2   13     -6.66      0.00
    0    2   13      5.56      0.00
    1    2   13     10.54      0.00
    2    2   13     -3.07      0.00
    3    2   13     -0.34      0.00
    4    2   13      5.53      0.00
  -11    3   13      1.66      0.00
  -10    3   13     -0.53      0.00
   -9    3   13     -3.21      0.00
   -8    3   13      1.79      0.00
   -7    3   13      0.66      0.00
   -6    3   13     -0.63      0.00
   -5    3   13      9.07      0.00
   -4    3   13      0.99      0.00
   -3    3   13    -14.49      0.00
   -2    3   13     -1.96      0.00
   -1    3   13      4.43      0.00
    0    3   13      2.37      0.00
    1    3   13      0.93      0.00
    2    3   13      2.39      0.00
    3    3   13     -2.19      0.00
    4    3   13     -3.41      0.00
  -11    4   13     -0.28      0.00
  -10    4   13      0.36      0.00
   -9    4   13     -1.27      0.00
   -8    4   13     -2.91      0.00
   -7    4   13      1.45      0.00
   -6    4   13      6.40      0.00
   -5    4   13     -7.73      0.00
   -4    4   13     -9.87      0.00
   -3    4   13     -1.81      0.00
   -2    4   13    -10.84      0.00
   -1    4   13      8.23      0.00
    0    4   13      6.62      0.00
    1    4   13     -4.16      0.00
    2    4   13     -4.70      0.00
    3    4   13      0.25      0.00
    4    4   13     -2.95      0.00
   -8    5   13     -4.38      0.00
   -7    5   13      1.39      0.00
   -6    5   13      0.00      0.00
   -5    5   13    -12.86      0.00
   -4    5   13     -6.16      0.00
   -3    5   13     -4.15      0.00
   -2    5   13      1.80      0.00
   -1    5   13      2.72      0.00
    0    5   13      4.66      0.00
    1    5   13     -9.56      0.00
    2    5   13     -3.41      0.00
    3    5   13     -0.16      0.00
    4    5   13     -2.17      0.00
   -9    6   13     -1.87      0.00
   -8    6   13     -1.15      0.00
   -7    6   13     -4.17      0.00
   -6    6   13     -1.93      0.00
   -5    6   13     -3.89      0.00
   -4    6   13    -11.46      0.00
   -3    6   13      3.68      0.00
   -2    6   13      4.89      0.00
   -1    6   13     -1.05      0.00
    0    6   13     -8.28      0.00
    1    6   13      1.03      0.00
    2    6   13     -3.53      0.00
    3    6   13     -5.61      0.00
    4    6   13     -0.35      0.00
  -10    7   13     -1.34      0.00
   -9    7   13     -5.41      0.00
   -8    7   13      1.49      0.00
   -7    7   13      4.73      0.00
   -6    7   13    -11.93      0.00
   -5    7   13     -2.30      0.00
   -4    7   13      6.26      0.00
   -3    7   13     -8.59      0.00
   -2    7   13      3.86      0.00
   -1    7   13     -2.10      0.00
    0    7   13     -4.34      0.00
    1    7   13     -0.40      0.00
    2    7   13     -4.92      0.00
    3    7   13     -3.57      0.00
  -10    8   13     -1.82      0.00
   -9    8   13     -0.02      0.00
   -8    8   13      6.03      0.00
   -7    8   13     -6.30      0.00
   -6    8   13     -3.49      0.00
   -5    8   13      4.01      0.00
   -4    8   13     -4.49      0.00
   -3    8   13     -0.74      0.00
   -2    8   13     -1.73      0.00
   -1    8   13      2.67      0.00
    0    8   13     -0.12      0.00
    1    8   13     -7.76      0.00
    2    8   13     -0.52      0.00
  -11    9   13     -1.73      0.00
  -10    9   13      0.64      0.00
   -9    9   13      6.28      0.00
   -8    9   13     -7.71      0.00
   -7    9   13      1.02      0.00
   -6    9   13      6.49      0.00
   -5    9   13    -10.25      0.00
   -4    9   13     -1.33      0.00
   -3    9   13      7.07      0.00
   -2    9   13     -0.46      0.00
   -1    9   13     -0.26      0.00
    0    9   13     -2.27      0.00
    1    9   13     -2.47      0.00
  -10   10   13      1.91      0.00
   -9   10   13     -2.40      0.00
   -8   10   13      2.28      0.00
   -7   10   13     -0.37      0.00
   -6   10   13     -2.10      0.00
   -5   10   13     -1.34      0.00
   -4   10   13      0.98      0.00
   -3   10   13      4.34      0.00
   -2   10   13      2.26      0.00
   -1   10   13     -4.23      0.00
    0   10   13     -0.60      0.00
  -10   11   13     -0.51      0.00
   -9   11   13      0.32      0.00
   -8   11   13      0.28      0.00
   -7   11   13      0.56      0.00
   -6   11   13     -3.78      0.00
   -5   11   13      1.99      0.00
   -4   11   13      2.62      0.00
   -3   11   13      0.51      0.00
   -2   11   13      0.62      0.00
   -1   11   13      1.15      0.00
   -9   12   13     -1.78      0.00
   -8   12   13      3.93      0.00
   -7   12   13     -1.09      0.00
   -6   12   13     -5.20      0.00
   -5   12   13      3.06      0.00
   -4   12   13      4.39      0.00
   -3   12   13     -1.88      0.00
   -2   12   13      2.61      0.00
   -8   13   13     -1.75      0.00
   -7   13   13     -2.42      0.00
   -6   13   13      2.01      0.00
   -5   13   13      0.64      0.00
   -4   13   13      1.20      0.00
   -3   13   13      3.17      0.00
   -6   14   13      2.54      0.00
   -5   14   13      0.59      0.00
   -2  -15   14      1.37      0.00
   -1  -15   14      2.71      0.00
    0  -15   14      0.78      0.00
    1  -15   14     -0.13      0.00
    2  -15   14      1.31      0.00
    3  -15   14      0.30      0.00
   -3  -14   14      1.15      0.00
   -2  -14   14      1.07      0.00
   -1  -14   14      0.80      0.00
    0  -14   14      0.88      0.00
    1  -14   14     -1.28      0.00
    2  -14   14     -0.12      0.00
    3  -14   14      1.14      0.00
    4  -14   14      1.57      0.00
   -4  -13   14     -3.45      0.00
   -3  -13   14      2.48      0.00
   -2  -13   14      0.18      0.00
   -1  -13   14     -3.99      0.00
    0  -13   14      0.66      0.00
    1  -13   14      0.88      0.00
    2  -13   14     -2.03      0.00
    3  -13   14      2.14      0.00
    4  -13   14      0.71      0.00
    5  -13   14     -5.81      0.00
   -4  -12   14     -3.06      0.00
   -3  -12   14     -2.48      0.00
   -2  -12   14     -0.21      0.00
   -1  -12   14     -1.72      0.00
    0  -12   14     -1.48      0.00
    1  -12   14      0.00      0.00
    2  -12   14     -0.45      0.00
    3  -12   14     -1.69      0.00
    4  -12   14     -6.34      0.00
    5  -12   14      1.84      0.00
    6  -12   14     -0.70      0.00
   -5  -11   14     -4.51      0.00
   -4  -11   14      0.31      0.00
   -3  -11   14     -3.74      0.00
   -2  -11   14     -2.85      0.00
   -1  -11   14      2.87      0.00
    0  -11   14     -4.16      0.00
    1  -11   14     -3.76      0.00
    2  -11   14      0.55      0.00
    3  -11   14     -7.35      0.00
    4  -11   14     -1.01      0.00
    6  -11   14     -0.51      0.00
   -6  -10   14     -4.12      0.00
   -5  -10   14     -2.84      0.00
   -4  -10   14      1.54      0.00
   -3  -10   14     -4.45      0.00
   -2  -10   14     -1.88      0.00
   -1  -10   14     -0.09      0.00
    0  -10   14     -3.43      0.00
    1  -10   14     -3.66      0.00
    2  -10   14     -5.54      0.00
    3  -10   14     -1.14      0.00
    4  -10   14      0.48      0.00
    5  -10   14     -0.29      0.00
    6  -10   14      1.15      0.00
   -7   -9   14     -1.85      0.00
   -6   -9   14      0.62      0.00
   -5   -9   14      0.19      0.00
   -4   -9   14     -8.56      0.00
   -3   -9   14      3.64      0.00
   -2   -9   14     -1.78      0.00
   -1   -9   14     -7.10      0.00
    0   -9   14      1.78      0.00
    1   -9   14     -3.62      0.00
    2   -9   14     -5.51      0.00
    3   -9   14      3.09      0.00
    4   -9   14      0.05      0.00
    6   -9   14     -0.51      0.00
   -7   -8   14     -4.04      0.00
   -6   -8   14      0.94      0.00
   -5   -8   14     -1.04      0.00
   -4   -8   14     -4.25      0.00
   -3   -8   14     -1.51      0.00
   -2   -8   14      1.30      0.00
   -1   -8   14     -0.99      0.00
    0   -8   14     -1.56      0.00
    1   -8   14      0.57      0.00
    2   -8   14     -1.20      0.00
    3   -8   14     -2.12      0.00
    4   -8   14     -0.75      0.00
    6   -8   14      1.54      0.00
   -8   -7   14     -1.65      0.00
   -7   -7   14     -0.08      0.00
   -6   -7   14     -0.59      0.00
   -5   -7   14     -0.86      0.00
   -4   -7   14      0.42      0.00
   -3   -7   14     -1.43      0.00
   -2   -7   14      7.16      0.00
   -1   -7   14      2.87      0.00
    0   -7   14     -1.98      0.00
    1   -7   14     -2.25      0.00
    2   -7   14     -0.86      0.00
    3   -7   14     -5.08      0.00
    5   -7   14      5.57      0.00
    6   -7   14      1.39      0.00
    7   -7   14     -0.26      0.00
   -9   -6   14     -2.88      0.00
   -8   -6   14     -0.93      0.00
   -7   -6   14      6.15      0.00
   -6   -6   14     -0.89      0.00
   -5   -6   14     -2.03      0.00
   -4   -6   14      8.59      0.00
   -3   -6   14      7.95      0.00
   -2   -6   14     -3.63      0.00
   -1   -6   14      8.58      0.00
    0   -6   14     -2.52      0.00
    1   -6   14     -8.90      0.00
    2   -6   14     -0.11      0.00
    3   -6   14      4.34      0.00
    4   -6   14      5.68      0.00
    5   -6   14      4.32      0.00
    6   -6   14     -0.91      0.00
    7   -6   14     -3.56      0.00
   -9   -5   14      1.95      0.00
   -8   -5   14      0.61      0.00
   -7   -5   14      4.04      0.00
   -6   -5   14      5.63      0.00
   -5   -5   14      1.96      0.00
   -4   -5   14      8.16      0.00
   -3   -5   14      2.32      0.00
   -2   -5   14      3.09      0.00
   -1   -5   14     -0.34      0.00
    0   -5   14     -1.27      0.00
    1   -5   14     -3.03      0.00
    2   -5   14      5.13      0.00
    3   -5   14      8.81      0.00
    4   -5   14      4.59      0.00
    5   -5   14      0.09      0.00
    6   -5   14     -4.98      0.00
  -10   -4   14      0.46      0.00
   -9   -4   14      1.09      0.00
   -8   -4   14      5.28      0.00
   -7   -4   14      1.87      0.00
   -6   -4   14      4.05      0.00
   -5   -4   14      9.36      0.00
   -4   -4   14     -6.13      0.00
   -3   -4   14      4.78      0.00
   -2   -4   14      9.91      0.00
   -1   -4   14     -4.50      0.00
    0   -4   14     -1.56      0.00
    1   -4   14     11.79      0.00
    2   -4   14     -1.03      0.00
    4   -4   14      5.28      0.00
    5   -4   14     -5.44      0.00
    6   -4   14      2.40      0.00
  -10   -3   14     -2.05      0.00
   -9   -3   14      0.96      0.00
   -8   -3   14      6.07      0.00
   -7   -3   14     -0.67      0.00
   -6   -3   14      2.15      0.00
   -5   -3   14      2.77      0.00
   -4   -3   14      1.09      0.00
   -3   -3   14      4.43      0.00
   -2   -3   14     10.07      0.00
   -1   -3   14     -1.94      0.00
    0   -3   14      1.38      0.00
    1   -3   14      0.78      0.00
    2   -3   14      5.79      0.00
    3   -3   14      1.98      0.00
    4   -3   14     -0.13      0.00
    5   -3   14      2.87      0.00
    6   -3   14      2.29      0.00
  -10   -2   14     -0.42      0.00
   -9   -2   14      1.17      0.00
   -8   -2   14     -1.62      0.00
   -7   -2   14      3.69      0.00
   -6   -2   14     -0.39      0.00
   -5   -2   14     -1.91      0.00
   -4   -2   14     11.19      0.00
   -3   -2   14      6.56      0.00
   -2   -2   14     -4.97      0.00
   -1   -2   14      4.56      0.00
    0   -2   14     -4.71      0.00
    1   -2   14     -3.83      0.00
    2   -2   14      9.04      0.00
    3   -2   14      1.01      0.00
    4   -2   14      1.06      0.00
    5   -2   14      5.14      0.00
    6   -2   14      1.28      0.00
  -10   -1   14      1.51      0.00
   -9   -1   14     -1.48      0.00
   -8   -1   14     -3.20      0.00
   -7   -1   14      3.58      0.00
   -6   -1   14      0.30      0.00
   -5   -1   14      0.15      0.00
   -4   -1   14      6.68      0.00
   -3   -1   14      4.35      0.00
   -2   -1   14    -11.03      0.00
   -1   -1   14     -4.96      0.00
    0   -1   14      0.90      0.00
    1   -1   14      0.74      0.00
    2   -1   14      0.87      0.00
    3   -1   14      6.72      0.00
    4   -1   14      1.48      0.00
    5   -1   14      0.41      0.00
    6   -1   14      1.72      0.00
  -10    0   14     -2.21      0.00
   -9    0   14      1.34      0.00
   -8    0   14     -0.19      0.00
   -7    0   14     -2.82      0.00
   -6    0   14      3.41      0.00
   -5    0   14      0.81      0.00
   -4    0   14     -3.63      0.00
   -3    0   14     -5.67      0.00
   -2    0   14     -4.90      0.00
   -1    0   14     -6.00      0.00
    0    0   14      0.77      0.00
    1    0   14      1.46      0.00
    2    0   14      2.19      0.00
    3    0   14      2.01      0.00
    4    0   14      0.05      0.00
  -10    1   14      0.25      0.00
   -9    1   14     -1.60      0.00
   -8    1   14      2.71      0.00
   -7    1   14     -1.92      0.00
   -6    1   14     -7.43      0.00
   -5    1   14      1.65      0.00
   -4    1   14     -8.80      0.00
   -3    1   14    -10.58      0.00
   -2    1   14      7.56      0.00
   -1    1   14     -7.03      0.00
    0    1   14    -11.33      0.00
    1    1   14     12.04      0.00
    2    1   14      0.82      0.00
    3    1   14     -6.90      0.00
   -9    2   14     -1.96      0.00
   -8    2   14      2.22      0.00
   -7    2   14     -6.75      0.00
   -6    2   14     -7.51      0.00
   -5    2   14     -3.32      0.00
   -4    2   14     -0.98      0.00
   -3    2   14     -0.55      0.00
   -2    2   14     -8.01      0.00
   -1    2   14     -8.97      0.00
    0    2   14      6.04      0.00
    1    2   14     -0.77      0.00
    2    2   14     -3.12      0.00
    3    2   14     -0.80      0.00
  -11    3   14     -1.67      0.00
   -9    3   14      2.66      0.00
   -8    3   14     -7.35      0.00
   -7    3   14     -2.86      0.00
   -6    3   14      0.75      0.00
   -5    3   14     -5.30      0.00
   -4    3   14      3.92      0.00
   -3    3   14     -3.90      0.00
   -2    3   14    -18.92      0.00
   -1    3   14      5.16      0.00
    0    3   14      5.15      0.00
    1    3   14     -9.02      0.00
    2    3   14      0.46      0.00
    3    3   14     -0.43      0.00
    4    3   14     -8.71      0.00
   -9    4   14      1.98      0.00
   -8    4   14     -5.32      0.00
   -7    4   14     -1.26      0.00
   -6    4   14      5.99      0.00
   -5    4   14     -1.60      0.00
   -4    4   14     -9.58      0.00
   -3    4   14     -4.15      0.00
   -2    4   14     -3.21      0.00
   -1    4   14     -1.13      0.00
    0    4   14      1.06      0.00
    1    4   14      2.47      0.00
    2    4   14     -4.06      0.00
    3    4   14     -5.90      0.00
    4    4   14     -1.70      0.00
   -9    5   14     -1.79      0.00
   -8    5   14      2.36      0.00
   -7    5   14      2.92      0.00
   -6    5   14     -2.75      0.00
   -5    5   14     -2.02      0.00
   -4    5   14     -2.61      0.00
   -3    5   14     -7.20      0.00
   -2    5   14      5.83      0.00
   -1    5   14      1.18      0.00
    0    5   14      0.62      0.00
    1    5   14      2.90      0.00
    2    5   14     -4.18      0.00
    3    5   14     -4.12      0.00
    4    5   14     -0.58      0.00
   -9    6   14     -0.63      0.00
   -8    6   14      5.75      0.00
   -7    6   14     -1.13      0.00
   -6    6   14     -6.99      0.00
   -5    6   14      6.30      0.00
   -4    6   14     -0.45      0.00
   -3    6   14     -2.46      0.00
   -2    6   14      6.56      0.00
   -1    6   14      4.97      0.00
    0    6   14     -1.91      0.00
    1    6   14      1.51      0.00
    2    6   14     -0.76      0.00
    3    6   14     -4.07      0.00
  -10    7   14      1.65      0.00
   -9    7   14      2.59      0.00
   -8    7   14     -2.82      0.00
   -7    7   14      1.13      0.00
   -6    7   14      3.17      0.00
   -5    7   14     -1.35      0.00
   -4    7   14      5.77      0.00
   -3    7   14      4.46      0.00
   -2    7   14     -0.53      0.00
   -1    7   14      1.49      0.00
    0    7   14      6.83      0.00
    1    7   14     -2.89      0.00
    2    7   14     -2.99      0.00
  -10    8   14      0.83      0.00
   -9    8   14      0.85      0.00
   -8    8   14     -0.06      0.00
   -7    8   14     -0.99      0.00
   -6    8   14      6.70      0.00
   -5    8   14      3.82      0.00
   -4    8   14     -2.78      0.00
   -3    8   14      6.43      0.00
   -2    8   14     -2.84      0.00
   -1    8   14      5.62      0.00
    0    8   14      4.24      0.00
    1    8   14     -4.60      0.00
  -10    9   14     -0.73      0.00
   -9    9   14      2.74      0.00
   -8    9   14     -2.47      0.00
   -7    9   14      2.65      0.00
   -6    9   14      8.94      0.00
   -5    9   14     -4.39      0.00
   -4    9   14     -0.54      0.00
   -3    9   14      0.01      0.00
   -2    9   14      7.63      0.00
   -1    9   14      2.71      0.00
    0    9   14     -3.62      0.00
  -10   10   14      3.06      0.00
   -9   10   14     -4.19      0.00
   -8   10   14      4.71      0.00
   -7   10   14      6.91      0.00
   -6   10   14     -8.14      0.00
   -5   10   14      1.45      0.00
   -4   10   14      2.08      0.00
   -3   10   14      0.62      0.00
   -2   10   14      4.86      0.00
   -1   10   14      0.43      0.00
   -9   11   14      1.03      0.00
   -8   11   14      2.71      0.00
   -7   11   14     -1.09      0.00
   -6   11   14     -3.56      0.00
   -5   11   14      0.42      0.00
   -4   11   14      3.26      0.00
   -3   11   14      0.93      0.00
   -2   11   14      0.40      0.00
   -8   12   14      0.07      0.00
   -7   12   14     -2.17      0.00
   -6   12   14     -0.55      0.00
   -5   12   14      0.32      0.00
   -4   12   14      0.79      0.00
   -3   12   14      1.47      0.00
   -7   13   14     -3.43      0.00
   -6   13   14      3.07      0.00
   -5   13   14      0.12      0.00
    0  -15   15      2.22      0.00
    1  -15   15     -1.67      0.00
    2  -15   15     -1.03      0.00
   -2  -14   15      1.16      0.00
   -1  -14   15     -0.93      0.00
    0  -14   15     -1.17      0.00
    1  -14   15     -1.16      0.00
    2  -14   15     -0.45      0.00
    3  -14   15     -1.48      0.00
   -3  -13   15     -1.37      0.00
   -2  -13   15      0.07      0.00
   -1  -13   15     -0.96      0.00
    0  -13   15     -3.97      0.00
    1  -13   15      0.94      0.00
    2  -13   15     -0.61      0.00
    3  -13   15      0.04      0.00
    4  -13   15      0.29      0.00
   -4  -12   15      0.33      0.00
   -3  -12   15     -3.23      0.00
   -2  -12   15     -1.31      0.00
   -1  -12   15      1.73      0.00
    0  -12   15     -1.14      0.00
    1  -12   15     -1.63      0.00
    2  -12   15      2.28      0.00
    3  -12   15     -0.83      0.00
    4  -12   15     -5.82      0.00
    5  -12   15      1.18      0.00
   -5  -11   15     -2.73      0.00
   -4  -11   15      0.04      0.00
   -3  -11   15      2.55      0.00
   -2  -11   15     -0.71      0.00
   -1  -11   15      1.02      0.00
    0  -11   15      1.30      0.00
    1  -11   15      0.32      0.00
    2  -11   15     -2.02      0.00
    3  -11   15     -4.55      0.00
    4  -11   15      0.53      0.00
    5  -11   15     -0.32      0.00
   -6  -10   15      0.80      0.00
   -5  -10   15      2.87      0.00
   -4  -10   15      0.77      0.00
   -3  -10   15      2.66      0.00
   -2  -10   15      4.35      0.00
   -1  -10   15     -2.39      0.00
    0  -10   15      2.97      0.00
    1  -10   15      1.79      0.00
    2  -10   15     -7.29      0.00
    3  -10   15      0.94      0.00
    4  -10   15      1.79      0.00
    5  -10   15     -1.66      0.00
   -6   -9   15      4.47      0.00
   -5   -9   15      6.28      0.00
   -4   -9   15     -2.34      0.00
   -3   -9   15      4.89      0.00
   -2   -9   15      4.74      0.00
   -1   -9   15     -1.23      0.00
    0   -9   15      2.23      0.00
    1   -9   15     -1.06      0.00
    2   -9   15      0.95      0.00
    3   -9   15      1.63      0.00
    4   -9   15     -0.22      0.00
    5   -9   15      2.05      0.00
    6   -9   15      0.69      0.00
   -7   -8   15      4.77      0.00
   -6   -8   15      1.92      0.00
   -5   -8   15     -0.65      0.00
   -4   -8   15      8.68      0.00
   -3   -8   15      0.12      0.00
   -2   -8   15     -1.31      0.00
   -1   -8   15      8.19      0.00
    0   -8   15      0.26      0.00
    1   -8   15      1.34      0.00
    2   -8   15      6.99      0.00
    3   -8   15     -1.84      0.00
    4   -8   15      0.02      0.00
    5   -8   15      2.06      0.00
    6   -8   15      1.09      0.00
   -8   -7   15      0.35      0.00
   -7   -7   15      3.86      0.00
   -6   -7   15      0.46      0.00
   -5   -7   15      1.31      0.00
   -4   -7   15      5.17      0.00
   -3   -7   15      0.23      0.00
   -2   -7   15      1.63      0.00
   -1   -7   15      8.75      0.00
    0   -7   15      5.60      0.00
    1   -7   15      2.02      0.00
    2   -7   15     -0.41      0.00
    3   -7   15     -1.54      0.00
    5   -7   15      4.83      0.00
    6   -7   15      0.53      0.00
   -8   -6   15      0.33      0.00
   -7   -6   15      0.26      0.00
   -6   -6   15      3.00      0.00
   -5   -6   15      1.29      0.00
   -4   -6   15     -1.11      0.00
   -3   -6   15      6.70      0.00
   -2   -6   15      4.55      0.00
   -1   -6   15      3.60      0.00
    0   -6   15      6.04      0.00
    1   -6   15     -2.27      0.00
    2   -6   15     -7.91      0.00
    3   -6   15      1.77      0.00
    4   -6   15      8.37      0.00
    5   -6   15      1.05      0.00
    6   -6   15      0.80      0.00
   -9   -5   15      1.92      0.00
   -8   -5   15      1.41      0.00
   -7   -5   15     -4.27      0.00
   -6   -5   15      1.99      0.00
   -5   -5   15      4.46      0.00
   -4   -5   15     -1.82      0.00
   -3   -5   15     -0.69      0.00
   -2   -5   15     10.59      0.00
   -1   -5   15     -2.73      0.00
    0   -5   15     -4.82      0.00
    1   -5   15     -2.23      0.00
    2   -5   15     -3.56      0.00
    3   -5   15      6.47      0.00
    4   -5   15      3.88      0.00
    5   -5   15      0.35      0.00
    6   -5   15     -0.30      0.00
   -9   -4   15     -1.60      0.00
   -8   -4   15     -1.52      0.00
   -7   -4   15     -1.05      0.00
   -6   -4   15     -2.00      0.00
   -5   -4   15      2.91      0.00
   -4   -4   15     -4.74      0.00
   -3   -4   15      0.07      0.00
   -2   -4   15      0.43      0.00
   -1   -4   15     -2.34      0.00
    0   -4   15     -8.65      0.00
    1   -4   15     -0.79      0.00
    2   -4   15      3.52      0.00
    3   -4   15      0.44      0.00
    4   -4   15      0.49      0.00
    5   -4   15     -0.61      0.00
    6   -4   15      2.61      0.00
  -10   -3   15     -0.08      0.00
   -9   -3   15     -3.46      0.00
   -8   -3   15     -5.44      0.00
   -7   -3   15      1.35      0.00
   -6   -3   15      0.20      0.00
   -5   -3   15    -10.79      0.00
   -4   -3   15      3.04      0.00
   -3   -3   15     -1.39      0.00
   -2   -3   15     -8.52      0.00
   -1   -3   15     -1.17      0.00
    0   -3   15      0.89      0.00
    1   -3   15     -9.58      0.00
    2   -3   15      3.61      0.00
    3   -3   15     -0.75      0.00
    4   -3   15     -4.92      0.00
    5   -3   15      3.94      0.00
    6   -3   15     -1.03      0.00
  -10   -2   15     -0.90      0.00
   -9   -2   15     -3.19      0.00
   -8   -2   15     -4.49      0.00
   -7   -2   15      1.50      0.00
   -6   -2   15     -2.69      0.00
   -5   -2   15     -7.72      0.00
   -4   -2   15     -1.05      0.00
   -3   -2   15      1.21      0.00
   -2   -2   15     -9.41      0.00
   -1   -2   15      0.37      0.00
    0   -2   15     -4.68      0.00
    1   -2   15     -6.39      0.00
    2   -2   15     -4.13      0.00
    3   -2   15     -1.80      0.00
    4   -2   15      1.35      0.00
    5   -2   15     -1.53      0.00
  -10   -1   15     -1.90      0.00
   -9   -1   15     -2.16      0.00
   -8   -1   15      0.44      0.00
   -7   -1   15     -2.40      0.00
   -6   -1   15     -4.93      0.00
   -5   -1   15      2.11      0.00
   -4   -1   15     -5.57      0.00
   -3   -1   15     -5.69      0.00
   -2   -1   15      4.65      0.00
   -1   -1   15    -11.82      0.00
    0   -1   15    -10.44      0.00
    1   -1   15      1.18      0.00
    2   -1   15     -6.17      0.00
    3   -1   15      0.49      0.00
    4   -1   15      1.35      0.00
    5   -1   15     -4.45      0.00
  -10    0   15     -3.59      0.00
   -9    0   15     -2.29      0.00
   -8    0   15      5.03      0.00
   -7    0   15     -4.25      0.00
   -6    0   15     -1.02      0.00
   -5    0   15      2.89      0.00
   -4    0   15     -5.34      0.00
   -3    0   15     -7.50      0.00
   -2    0   15     -0.58      0.00
   -1    0   15     -9.52      0.00
    0    0   15     -7.33      0.00
    1    0   15      0.09      0.00
    2    0   15      2.17      0.00
    3    0   15     -1.33      0.00
  -10    1   15     -0.67      0.00
   -9    1   15      0.67      0.00
   -8    1   15      1.73      0.00
   -7    1   15      6.28      0.00
   -6    1   15     -1.95      0.00
   -5    1   15     -4.57      0.00
   -4    1   15     -2.93      0.00
   -3    1   15     -4.46      0.00
   -2    1   15     -6.17      0.00
   -1    1   15      0.09      0.00
    0    1   15     -4.12      0.00
    1    1   15      1.11      0.00
    2    1   15      5.01      0.00
    3    1   15     -0.85      0.00
   -9    2   15      4.45      0.00
   -8    2   15      4.82      0.00
   -7    2   15      0.76      0.00
   -6    2   15      1.54      0.00
   -5    2   15     -9.76      0.00
   -4    2   15     -0.76      0.00
   -3    2   15      8.52      0.00
   -2    2   15     -7.33      0.00
   -1    2   15     -5.53      0.00
    0    2   15     12.28      0.00
    1    2   15      0.24      0.00
    2    2   15     -0.32      0.00
    3    2   15      2.47      0.00
   -9    3   15      9.40      0.00
   -8    3   15     -0.19      0.00
   -7    3   15     -0.08      0.00
   -6    3   15      0.88      0.00
   -5    3   15     -1.01      0.00
   -4    3   15      5.61      0.00
   -3    3   15      3.22      0.00
   -2    3   15     -5.69      0.00
   -1    3   15      6.79      0.00
    0    3   15      4.46      0.00
    1    3   15      1.50      0.00
    2    3   15      1.80      0.00
    3    3   15     -0.03      0.00
   -9    4   15      1.85      0.00
   -8    4   15      4.54      0.00
   -7    4   15      0.83      0.00
   -6    4   15     -2.79      0.00
   -5    4   15     11.84      0.00
   -4    4   15      1.22      0.00
   -3    4   15     -9.15      0.00
   -2    4   15     13.24      0.00
   -1    4   15      1.61      0.00
    0    4   15     -4.86      0.00
    1    4   15      9.51      0.00
    2    4   15      3.40      0.00
    3    4   15     -5.05      0.00
   -9    5   15     -0.62      0.00
   -8    5   15      5.14      0.00
   -7    5   15      2.95      0.00
   -6    5   15     -0.41      0.00
   -5    5   15      1.21      0.00
   -4    5   15      1.00      0.00
   -3    5   15      2.71      0.00
   -2    5   15      1.18      0.00
   -1    5   15      1.10      0.00
    0    5   15      4.80      0.00
    1    5   15      4.92      0.00
    2    5   15      0.31      0.00
    3    5   15     -0.20      0.00
   -9    6   15      4.89      0.00
   -8    6   15      1.86      0.00
   -7    6   15     -1.27      0.00
   -6    6   15     -2.05      0.00
   -5    6   15     -1.06      0.00
   -4    6   15      3.60      0.00
   -3    6   15      3.47      0.00
   -2    6   15     -3.13      0.00
   -1    6   15      4.18      0.00
    0    6   15      7.33      0.00
    1    6   15     -0.66      0.00
    2    6   15      0.32      0.00
  -10    7   15      1.65      0.00
   -9    7   15      5.56      0.00
   -8    7   15     -5.79      0.00
   -7    7   15     -6.72      0.00
   -6    7   15      6.36      0.00
   -5    7   15     -1.52      0.00
   -4    7   15     -1.59      0.00
   -3    7   15      5.17      0.00
   -2    7   15     -0.51      0.00
   -1    7   15     -0.12      0.00
    0    7   15      5.20      0.00
    1    7   15     -0.22      0.00
  -10    8   15      2.45      0.00
   -9    8   15     -3.78      0.00
   -8    8   15     -4.00      0.00
   -7    8   15      0.13      0.00
   -6    8   15     -0.78      0.00
   -5    8   15      2.75      0.00
   -4    8   15     -0.56      0.00
   -3    8   15     -2.48      0.00
   -2    8   15     -0.35      0.00
   -1    8   15      3.78      0.00
    0    8   15     -1.34      0.00
  -10    9   15     -1.23      0.00
   -9    9   15     -3.97      0.00
   -8    9   15      0.00      0.00
   -7    9   15      0.32      0.00
   -6    9   15     -0.12      0.00
   -5    9   15     -1.37      0.00
   -4    9   15      0.24      0.00
   -3    9   15     -7.90      0.00
   -2    9   15      5.02      0.00
   -1    9   15      1.43      0.00
   -9   10   15     -2.19      0.00
   -8   10   15     -0.39      0.00
   -7   10   15      4.71      0.00
   -6   10   15     -6.79      0.00
   -5   10   15     -1.99      0.00
   -4   10   15     -3.03      0.00
   -3   10   15      2.64      0.00
   -2   10   15     -1.54      0.00
   -9   11   15      1.22      0.00
   -8   11   15      1.31      0.00
   -7   11   15     -5.93      0.00
   -6   11   15      0.23      0.00
   -5   11   15     -3.39      0.00
   -4   11   15     -0.07      0.00
   -3   11   15      0.93      0.00
   -7   12   15     -2.59      0.00
   -6   12   15     -0.37      0.00
   -5   12   15     -0.05      0.00
   -1  -14   16      2.74      0.00
    0  -14   16     -1.49      0.00
    1  -14   16      0.32      0.00
    2  -14   16      2.54      0.00
   -3  -13   16      0.39      0.00
   -2  -13   16      1.16      0.00
   -1  -13   16      2.44      0.00
    0  -13   16     -1.01      0.00
    1  -13   16      2.36      0.00
    2  -13   16      0.70      0.00
    3  -13   16      1.44      0.00
   -3  -12   16      2.35      0.00
   -2  -12   16      1.90      0.00
   -1  -12   16     -0.71      0.00
    0  -12   16      4.88      0.00
    1  -12   16      0.93      0.00
    2  -12   16      1.25      0.00
    3  -12   16      1.74      0.00
    4  -12   16     -2.03      0.00
   -4  -11   16     -1.87      0.00
   -3  -11   16      4.74      0.00
   -2  -11   16      2.78      0.00
   -1  -11   16     -0.06      0.00
    0  -11   16      2.36      0.00
    1  -11   16      4.30      0.00
    2  -11   16     -0.65      0.00
    3  -11   16     -3.56      0.00
    4  -11   16      1.71      0.00
   -5  -10   16      1.65      0.00
   -4  -10   16      2.29      0.00
   -3  -10   16     -0.22      0.00
   -2  -10   16      2.94      0.00
   -1  -10   16      1.65      0.00
    0  -10   16      0.99      0.00
    1  -10   16      1.05      0.00
    2  -10   16     -2.42      0.00
    3  -10   16     -0.57      0.00
    4  -10   16     -1.09      0.00
    5  -10   16     -1.58      0.00
   -6   -9   16      0.70      0.00
   -5   -9   16     -0.89      0.00
   -4   -9   16      2.10      0.00
   -3   -9   16     -0.03      0.00
   -2   -9   16     -0.73      0.00
   -1   -9   16      3.49      0.00
    0   -9   16     -0.92      0.00
    1   -9   16     -5.49      0.00
    2   -9   16      3.00      0.00
    3   -9   16     -1.17      0.00
    4   -9   16     -3.60      0.00
   -6   -8   16     -2.04      0.00
   -5   -8   16     -4.93      0.00
   -4   -8   16      4.29      0.00
   -3   -8   16      0.21      0.00
   -2   -8   16     -5.04      0.00
   -1   -8   16      0.36      0.00
    0   -8   16     -2.21      0.00
    1   -8   16      0.40      0.00
    2   -8   16      0.75      0.00
    3   -8   16     -2.72      0.00
    4   -8   16      1.49      0.00
    5   -8   16      1.81      0.00
   -7   -7   16     -3.83      0.00
   -6   -7   16     -3.29      0.00
   -5   -7   16      3.87      0.00
   -4   -7   16     -5.30      0.00
   -3   -7   16     -3.30      0.00
   -2   -7   16      0.14      0.00
   -1   -7   16     -5.16      0.00
    0   -7   16      2.58      0.00
    1   -7   16      5.05      0.00
    2   -7   16     -6.88      0.00
    3   -7   16     -0.94      0.00
    4   -7   16      1.94      0.00
    5   -7   16     -0.32      0.00
   -8   -6   16      0.25      0.00
   -7   -6   16     -6.78      0.00
   -6   -6   16      0.41      0.00
   -5   -6   16      0.93      0.00
   -4   -6   16     -8.94      0.00
   -3   -6   16     -2.35      0.00
   -2   -6   16      3.40      0.00
   -1   -6   16     -2.89      0.00
    0   -6   16      1.89      0.00
    1   -6   16     -1.16      0.00
    2   -6   16     -7.10      0.00
    3   -6   16     -2.94      0.00
    4   -6   16      1.71      0.00
    5   -6   16     -1.66      0.00
   -8   -5   16     -2.36      0.00
   -7   -5   16     -2.34      0.00
   -6   -5   16     -2.55      0.00
   -5   -5   16     -4.57      0.00
   -4   -5   16      0.94      0.00
   -3   -5   16     -2.30      0.00
   -2   -5   16     -1.24      0.00
   -1   -5   16      3.46      0.00
    0   -5   16     -6.15      0.00
    1   -5   16     -9.13      0.00
    2   -5   16     -2.97      0.00
    4   -5   16     -3.57      0.00
    5   -5   16      1.29      0.00
   -9   -4   16     -0.74      0.00
   -8   -4   16     -6.28      0.00
   -7   -4   16      1.24      0.00
   -6   -4   16     -1.49      0.00
   -5   -4   16     -3.68      0.00
   -4   -4   16      2.72      0.00
   -3   -4   16      2.41      0.00
   -2   -4   16     -7.66      0.00
   -1   -4   16     -1.99      0.00
    0   -4   16     -5.31      0.00
    1   -4   16     -9.79      0.00
    2   -4   16      3.02      0.00
    3   -4   16     -1.95      0.00
    4   -4   16     -1.06      0.00
    5   -4   16      1.32      0.00
   -9   -3   16     -1.51      0.00
   -8   -3   16     -4.49      0.00
   -7   -3   16      1.08      0.00
   -6   -3   16      4.94      0.00
   -5   -3   16     -2.23      0.00
   -4   -3   16      2.07      0.00
   -3   -3   16     -0.63      0.00
   -2   -3   16     -6.32      0.00
   -1   -3   16     -7.02      0.00
    0   -3   16      0.92      0.00
    1   -3   16     -0.21      0.00
    2   -3   16     -2.72      0.00
    4   -3   16     -0.59      0.00
    5   -3   16      0.91      0.00
  -10   -2   16     -0.01      0.00
   -9   -2   16     -3.43      0.00
   -8   -2   16      4.35      0.00
   -7   -2   16      3.03      0.00
   -6   -2   16      0.75      0.00
   -5   -2   16      8.53      0.00
   -4   -2   16     -4.53      0.00
   -3   -2   16     -5.08      0.00
   -2   -2   16      1.91      0.00
   -1   -2   16      0.63      0.00
    0   -2   16     -1.97      0.00
    1   -2   16      4.62      0.00
    2   -2   16     -4.18      0.00
    3   -2   16     -2.31      0.00
    4   -2   16      4.68      0.00
    5   -2   16     -3.72      0.00
  -10   -1   16     -1.76      0.00
   -9   -1   16      1.05      0.00
   -8   -1   16      6.32      0.00
   -7   -1   16      2.75      0.00
   -6   -1   16      2.63      0.00
   -5   -1   16      5.80      0.00
   -4   -1   16     -0.55      0.00
   -3   -1   16     -6.36      0.00
   -2   -1   16     10.55      0.00
   -1   -1   16      1.90      0.00
    0   -1   16     -4.43      0.00
    1   -1   16     -0.32      0.00
    2   -1   16      0.68      0.00
  -10    0   16      0.56      0.00
   -9    0   16      0.19      0.00
   -8    0   16      2.44      0.00
   -7    0   16      5.51      0.00
   -6    0   16      7.53      0.00
   -5    0   16     -1.08      0.00
   -4    0   16      1.98      0.00
   -3    0   16      7.58      0.00
   -2    0   16     -4.15      0.00
   -1    0   16      0.86      0.00
    0    0   16      2.14      0.00
    1    0   16     -3.39      0.00
    2    0   16      7.03      0.00
  -10    1   16     -1.40      0.00
   -9    1   16      2.53      0.00
   -8    1   16     -0.11      0.00
   -7    1   16     11.13      0.00
   -6    1   16      7.08      0.00
   -5    1   16     -3.64      0.00
   -4    1   16      2.07      0.00
   -3    1   16      3.90      0.00
   -2    1   16     -5.78      0.00
   -1    1   16      1.86      0.00
    0    1   16      4.39      0.00
    1    1   16      2.33      0.00
    2    1   16      4.71      0.00
    3    1   16      3.75      0.00
  -10    2   16     -1.35      0.00
   -9    2   16      2.07      0.00
   -8    2   16      9.91      0.00
   -7    2   16      3.44      0.00
   -6    2   16      0.95      0.00
   -5    2   16     -0.35      0.00
   -4    2   16     -4.35      0.00
   -3    2   16      0.74      0.00
   -2    2   16      5.83      0.00
   -1    2   16     -3.55      0.00
    0    2   16      4.31      0.00
    1    2   16      8.17      0.00
    2    2   16      1.59      0.00
    3    2   16     -0.66      0.00
   -9    3   16      4.89      0.00
   -8    3   16      6.17      0.00
   -7    3   16      0.64      0.00
   -6    3   16     -6.07      0.00
   -5    3   16      0.42      0.00
   -4    3   16      2.43      0.00
   -3    3   16     -2.32      0.00
   -2    3   16      1.32      0.00
   -1    3   16      6.72      0.00
    0    3   16     -1.55      0.00
    1    3   16      3.17      0.00
    2    3   16      1.53      0.00
    3    3   16     -0.18      0.00
   -9    4   16      0.43      0.00
   -8    4   16      3.17      0.00
   -7    4   16     -0.06      0.00
   -6    4   16     -6.97      0.00
   -5    4   16      2.22      0.00
   -4    4   16      2.28      0.00
   -3    4   16     -7.03      0.00
   -2    4   16      6.42      0.00
   -1    4   16      0.42      0.00
    0    4   16     -4.18      0.00
    1    4   16     -0.17      0.00
    2    4   16      3.23      0.00
    3    4   16     -0.51      0.00
   -9    5   16      2.31      0.00
   -8    5   16     -1.32      0.00
   -7    5   16     -3.38      0.00
   -6    5   16      3.19      0.00
   -5    5   16     -7.20      0.00
   -4    5   16     -7.54      0.00
   -3    5   16     11.07      0.00
   -2    5   16     -7.57      0.00
   -1    5   16     -7.36      0.00
    0    5   16      4.43      0.00
    1    5   16     -0.41      0.00
    2    5   16     -1.00      0.00
   -9    6   16      3.65      0.00
   -8    6   16     -1.74      0.00
   -7    6   16     -3.29      0.00
   -6    6   16     -4.19      0.00
   -5    6   16     -7.18      0.00
   -4    6   16      1.60      0.00
   -3    6   16     -1.81      0.00
   -2    6   16     -6.66      0.00
   -1    6   16     -0.48      0.00
    0    6   16      1.31      0.00
    1    6   16     -0.82      0.00
  -10    7   16      1.64      0.00
   -9    7   16      0.86      0.00
   -8    7   16     -1.88      0.00
   -7    7   16     -8.09      0.00
   -6    7   16     -4.48      0.00
   -5    7   16      1.69      0.00
   -4    7   16     -3.21      0.00
   -3    7   16     -6.24      0.00
   -2    7   16      2.48      0.00
   -1    7   16     -0.40      0.00
    0    7   16     -4.08      0.00
  -10    8   16      2.67      0.00
   -9    8   16     -3.78      0.00
   -8    8   16     -4.54      0.00
   -7    8   16      0.76      0.00
   -6    8   16     -5.62      0.00
   -5    8   16     -0.96      0.00
   -4    8   16      1.49      0.00
   -3    8   16     -3.28      0.00
   -2    8   16     -1.22      0.00
   -1    8   16     -0.43      0.00
   -9    9   16     -2.44      0.00
   -8    9   16      0.08      0.00
   -7    9   16     -2.39      0.00
   -6    9   16     -0.38      0.00
   -5    9   16     -0.58      0.00
   -4    9   16     -0.21      0.00
   -3    9   16     -1.95      0.00
   -2    9   16     -0.67      0.00
   -8   10   16     -2.51      0.00
   -7   10   16      0.64      0.00
   -6   10   16      0.74      0.00
   -5   10   16     -0.85      0.00
   -4   10   16     -4.76      0.00
   -3   10   16      4.34      0.00
   -7   11   16     -3.39      0.00
   -6   11   16      1.13      0.00
   -5   11   16     -1.86      0.00
   -2  -13   17      0.45      0.00
   -1  -13   17     -1.08      0.00
    0  -13   17      0.12      0.00
    1  -13   17      1.78      0.00
    2  -13   17     -0.96      0.00
   -3  -12   17      0.18      0.00
   -2  -12   17      1.10      0.00
   -1  -12   17     -3.62      0.00
    0  -12   17      2.03      0.00
    1  -12   17     -0.55      0.00
    2  -12   17     -0.67      0.00
    3  -12   17      0.10      0.00
   -4  -11   17     -1.50      0.00
   -3  -11   17     -1.50      0.00
   -2  -11   17     -2.36      0.00
   -1  -11   17      1.85      0.00
    0  -11   17     -2.91      0.00
    1  -11   17     -1.41      0.00
    2  -11   17      2.22      0.00
    3  -11   17     -3.29      0.00
   -4  -10   17      0.88      0.00
   -3  -10   17     -3.80      0.00
   -2  -10   17     -3.59      0.00
   -1  -10   17      1.97      0.00
    0  -10   17     -2.24      0.00
    1  -10   17     -2.17      0.00
    2  -10   17     -1.23      0.00
    3  -10   17     -0.15      0.00
    4  -10   17     -2.83      0.00
   -5   -9   17     -4.22      0.00
   -4   -9   17     -2.41      0.00
   -3   -9   17     -1.79      0.00
   -2   -9   17     -0.59      0.00
   -1   -9   17     -1.21      0.00
    0   -9   17     -1.58      0.00
    1   -9   17     -3.79      0.00
    2   -9   17     -1.61      0.00
    3   -9   17     -1.86      0.00
    4   -9   17     -2.50      0.00
   -6   -8   17     -3.31      0.00
   -5   -8   17     -0.64      0.00
   -4   -8   17     -3.53      0.00
   -3   -8   17      1.18      0.00
   -2   -8   17      2.83      0.00
   -1   -8   17     -6.34      0.00
    0   -8   17     -5.38      0.00
    1   -8   17      2.77      0.00
    2   -8   17     -3.60      0.00
    3   -8   17     -3.65      0.00
   -7   -7   17     -3.87      0.00
   -6   -7   17     -2.48      0.00
   -5   -7   17      5.30      0.00
   -4   -7   17     -1.72      0.00
   -3   -7   17     -0.50      0.00
   -2   -7   17      1.20      0.00
   -1   -7   17     -5.77      0.00
    0   -7   17     -0.77      0.00
    1   -7   17      2.69      0.00
    2   -7   17     -3.26      0.00
    3   -7   17      0.64      0.00
    4   -7   17      1.36      0.00
   -7   -6   17     -0.06      0.00
   -6   -6   17      3.93      0.00
   -5   -6   17     -0.81      0.00
   -4   -6   17      2.58      0.00
   -3   -6   17      1.25      0.00
   -2   -6   17     -2.73      0.00
   -1   -6   17      3.26      0.00
    0   -6   17      2.83      0.00
    1   -6   17     -3.48      0.00
    2   -6   17      2.59      0.00
    3   -6   17     -0.42      0.00
   -8   -5   17     -1.46      0.00
   -7   -5   17      5.41      0.00
   -6   -5   17      2.64      0.00
   -5   -5   17     -3.60      0.00
   -4   -5   17      7.56      0.00
   -3   -5   17      5.43      0.00
   -2   -5   17     -2.63      0.00
   -1   -5   17      6.44      0.00
    0   -5   17      2.34      0.00
    1   -5   17     -3.45      0.00
    2   -5   17     -0.25      0.00
    3   -5   17     -1.01      0.00
    4   -5   17     -2.13      0.00
   -8   -4   17      1.26      0.00
   -6   -4   17      1.76      0.00
   -5   -4   17      6.50      0.00
   -4   -4   17      4.36      0.00
   -3   -4   17      5.59      0.00
   -2   -4   17      5.93      0.00
   -1   -4   17     -3.24      0.00
    0   -4   17      0.72      0.00
    1   -4   17      0.45      0.00
    2   -4   17     -0.77      0.00
    4   -4   17      3.56      0.00
   -9   -3   17      0.92      0.00
   -8   -3   17      2.53      0.00
   -7   -3   17     -1.15      0.00
   -6   -3   17      5.00      0.00
   -5   -3   17     10.76      0.00
   -4   -3   17      4.05      0.00
   -3   -3   17      1.87      0.00
   -2   -3   17      2.93      0.00
   -1   -3   17     -3.67      0.00
    0   -3   17     -0.96      0.00
    1   -3   17      8.29      0.00
    2   -3   17     -0.80      0.00
    3   -3   17      2.95      0.00
    4   -3   17      2.59      0.00
   -9   -2   17     -2.08      0.00
   -8   -2   17      2.06      0.00
   -7   -2   17      4.61      0.00
   -6   -2   17      3.12      0.00
   -5   -2   17      9.73      0.00
   -4   -2   17      3.91      0.00
   -3   -2   17     -4.64      0.00
   -2   -2   17     -1.94      0.00
   -1   -2   17      5.99      0.00
    0   -2   17      3.53      0.00
    1   -2   17      2.63      0.00
    2   -2   17      2.89      0.00
    3   -2   17      0.64      0.00
   -9   -1   17      1.31      0.00
   -8   -1   17     -0.56      0.00
   -7   -1   17      3.42      0.00
   -6   -1   17      9.02      0.00
   -5   -1   17     -2.46      0.00
   -4   -1   17      1.29      0.00
   -3   -1   17     -0.69      0.00
   -2   -1   17     -0.44      0.00
   -1   -1   17      6.30      0.00
    0   -1   17      5.04      0.00
    1   -1   17     -5.26      0.00
    2   -1   17      2.22      0.00
  -10    0   17      1.21      0.00
   -9    0   17     -1.40      0.00
   -8    0   17     -3.37      0.00
   -7    0   17      4.25      0.00
   -6    0   17      4.48      0.00
   -5    0   17     -3.55      0.00
   -4    0   17     -3.08      0.00
   -3    0   17      8.33      0.00
   -2    0   17     -3.55      0.00
   -1    0   17     -1.82      0.00
    0    0   17      1.49      0.00
    1    0   17     -1.18      0.00
    2    0   17      3.81      0.00
  -10    1   17     -4.03      0.00
   -9    1   17     -3.29      0.00
   -8    1   17      0.54      0.00
   -7    1   17      2.77      0.00
   -6    1   17     -1.14      0.00
   -5    1   17      1.54      0.00
   -4    1   17      0.92      0.00
   -3    1   17     -8.51      0.00
   -2    1   17      0.76      0.00
   -1    1   17     -2.56      0.00
    0    1   17     -3.23      0.00
    1    1   17      4.41      0.00
    2    1   17     -0.62      0.00
  -10    2   17     -3.29      0.00
   -9    2   17     -4.05      0.00
   -8    2   17      6.69      0.00
   -7    2   17      1.20      0.00
   -6    2   17     -4.44      0.00
   -5    2   17      3.49      0.00
   -4    2   17     -8.52      0.00
   -3    2   17    -10.04      0.00
   -2    2   17      3.37      0.00
   -1    2   17     -1.33      0.00
    0    2   17     -5.28      0.00
    1    2   17      1.00      0.00
    2    2   17     -0.05      0.00
    3    2   17     -3.54      0.00
  -10    3   17     -1.64      0.00
   -9    3   17      1.55      0.00
   -8    3   17      1.99      0.00
   -7    3   17      0.75      0.00
   -6    3   17     -1.27      0.00
   -5    3   17     -9.53      0.00
   -4    3   17     -4.87      0.00
   -3    3   17      0.39      0.00
   -2    3   17     -6.00      0.00
   -1    3   17      0.76      0.00
    0    3   17     -1.39      0.00
    1    3   17     -4.95      0.00
    2    3   17     -2.94      0.00
   -9    4   17      2.49      0.00
   -8    4   17     -0.54      0.00
   -7    4   17     -0.02      0.00
   -6    4   17     -2.04      0.00
   -5    4   17     -8.04      0.00
   -4    4   17     -2.10      0.00
   -3    4   17     -0.45      0.00
   -2    4   17     -0.25      0.00
   -1    4   17     -3.98      0.00
    0    4   17     -1.57      0.00
    1    4   17     -5.24      0.00
    2    4   17     -1.10      0.00
   -9    5   17      2.75      0.00
   -8    5   17      0.51      0.00
   -7    5   17     -3.56      0.00
   -6    5   17      0.41      0.00
   -5    5   17     -2.78      0.00
   -4    5   17     -7.26      0.00
   -3    5   17      6.47      0.00
   -2    5   17     -1.81      0.00
   -1    5   17     -6.54      0.00
    0    5   17     -1.20      0.00
    1    5   17     -0.38      0.00
   -9    6   17      0.44      0.00
   -8    6   17      1.83      0.00
   -7    6   17      1.46      0.00
   -6    6   17     -6.46      0.00
   -5    6   17     -2.41      0.00
   -4    6   17      6.53      0.00
   -3    6   17     -5.90      0.00
   -2    6   17     -2.05      0.00
   -1    6   17      2.91      0.00
    0    6   17     -3.24      0.00
   -8    7   17      2.81      0.00
   -7    7   17     -2.26      0.00
   -6    7   17     -4.47      0.00
   -5    7   17      3.94      0.00
   -4    7   17     -0.42      0.00
   -3    7   17     -3.59      0.00
   -2    7   17      3.68      0.00
   -1    7   17      0.92      0.00
   -8    8   17     -2.20      0.00
   -7    8   17      0.51      0.00
   -6    8   17      1.80      0.00
   -5    8   17     -2.45      0.00
   -4    8   17      0.04      0.00
   -3    8   17      5.46      0.00
   -2    8   17     -0.54      0.00
   -8    9   17      1.19      0.00
   -7    9   17     -1.81      0.00
   -6    9   17      1.84      0.00
   -5    9   17      1.56      0.00
   -4    9   17      1.14      0.00
   -7   10   17      0.66      0.00
   -6   10   17      2.22      0.00
   -2  -12   18     -1.34      0.00
   -1  -12   18     -0.63      0.00
    0  -12   18     -0.08      0.00
    1  -12   18     -3.21      0.00
   -3  -11   18     -1.52      0.00
   -2  -11   18     -3.57      0.00
   -1  -11   18      3.49      0.00
    0  -11   18     -1.91      0.00
    1  -11   18     -3.41      0.00
    2  -11   18      2.87      0.00
   -4  -10   18     -1.18      0.00
   -3  -10   18     -0.64      0.00
   -2  -10   18      1.25      0.00
   -1  -10   18      0.21      0.00
    0  -10   18     -0.93      0.00
    1  -10   18      3.03      0.00
    2  -10   18     -1.47      0.00
    3  -10   18      0.48      0.00
   -4   -9   18     -2.58      0.00
   -3   -9   18      0.27      0.00
   -2   -9   18      6.38      0.00
   -1   -9   18     -0.42      0.00
    0   -9   18      1.31      0.00
    1   -9   18      1.92      0.00
    2   -9   18     -1.66      0.00
    3   -9   18     -1.66      0.00
   -5   -8   18      1.82      0.00
   -4   -8   18     -0.03      0.00
   -3   -8   18      3.69      0.00
   -2   -8   18      6.72      0.00
   -1   -8   18      2.00      0.00
    0   -8   18     -2.60      0.00
    1   -8   18      0.63      0.00
    2   -8   18      0.04      0.00
    3   -8   18     -2.70      0.00
   -6   -7   18      1.24      0.00
   -5   -7   18     -0.20      0.00
   -4   -7   18      6.05      0.00
   -3   -7   18      6.81      0.00
   -2   -7   18     -0.13      0.00
   -1   -7   18      0.96      0.00
    0   -7   18      1.85      0.00
    1   -7   18     -2.24      0.00
    2   -7   18     -0.29      0.00
    3   -7   18      2.29      0.00
   -6   -6   18      4.02      0.00
   -5   -6   18     -0.53      0.00
   -4   -6   18      6.46      0.00
   -3   -6   18      4.80      0.00
   -2   -6   18     -2.00      0.00
   -1   -6   18      2.22      0.00
    0   -6   18      2.90      0.00
    1   -6   18     -2.41      0.00
    2   -6   18      3.97      0.00
    4   -6   18     -2.24      0.00
   -7   -5   18      2.50      0.00
   -6   -5   18      0.55      0.00
   -5   -5   18      3.36      0.00
   -4   -5   18      1.51      0.00
   -3   -5   18      2.00      0.00
   -2   -5   18      4.09      0.00
   -1   -5   18     -0.23      0.00
    0   -5   18      0.16      0.00
    1   -5   18      6.52      0.00
    2   -5   18     -0.84      0.00
    3   -5   18     -2.80      0.00
    4   -5   18      1.74      0.00
   -7   -4   18     -2.49      0.00
   -6   -4   18     -3.16      0.00
   -5   -4   18      6.56      0.00
   -4   -4   18     -0.63      0.00
   -3   -4   18     -0.39      0.00
   -2   -4   18      8.40      0.00
   -1   -4   18     -2.90      0.00
    0   -4   18     -0.59      0.00
    1   -4   18      3.47      0.00
    2   -4   18     -3.13      0.00
    3   -4   18      0.23      0.00
   -8   -3   18     -1.13      0.00
   -7   -3   18     -4.08      0.00
   -6   -3   18      0.16      0.00
   -5   -3   18     -0.29      0.00
   -4   -3   18      3.32      0.00
   -3   -3   18      4.60      0.00
   -2   -3   18     -5.99      0.00
   -1   -3   18     -0.67      0.00
    0   -3   18     -1.34      0.00
    1   -3   18     -2.18      0.00
    2   -3   18      1.24      0.00
    3   -3   18      1.43      0.00
   -8   -2   18     -7.37      0.00
   -7   -2   18      0.54      0.00
   -6   -2   18      0.91      0.00
   -5   -2   18     -2.46      0.00
   -4   -2   18      5.23      0.00
   -3   -2   18     -2.50      0.00
   -2   -2   18    -11.42      0.00
   -1   -2   18     -0.85      0.00
    0   -2   18      2.14      0.00
    1   -2   18     -3.62      0.00
   -9   -1   18     -2.29      0.00
   -8   -1   18     -3.11      0.00
   -7   -1   18     -1.62      0.00
   -6   -1   18      3.94      0.00
   -5   -1   18     -1.64      0.00
   -4   -1   18     -5.72      0.00
   -3   -1   18     -4.07      0.00
   -2   -1   18     -3.80      0.00
   -1   -1   18     -3.76      0.00
    0   -1   18      1.14      0.00
    1   -1   18     -3.58      0.00
    2   -1   18     -2.42      0.00
   -9    0   18     -3.28      0.00
   -8    0   18     -0.16      0.00
   -7    0   18      1.39      0.00
   -6    0   18     -4.36      0.00
   -5    0   18      0.38      0.00
   -4    0   18     -4.71      0.00
   -3    0   18     -4.29      0.00
   -2    0   18      0.16      0.00
   -1    0   18     -3.33      0.00
    0    0   18     -5.83      0.00
    1    0   18      1.61      0.00
    2    0   18      1.00      0.00
   -9    1   18     -3.01      0.00
   -8    1   18      2.61      0.00
   -7    1   18     -0.98      0.00
   -6    1   18     -3.76      0.00
   -5    1   18      2.43      0.00
   -4    1   18      4.32      0.00
   -3    1   18    -11.55      0.00
   -2    1   18     -0.92      0.00
   -1    1   18      0.80      0.00
    0    1   18     -2.65      0.00
    1    1   18      0.64      0.00
    2    1   18     -2.96      0.00
   -9    2   18     -0.27      0.00
   -8    2   18      0.06      0.00
   -7    2   18      1.99      0.00
   -6    2   18      3.86      0.00
   -5    2   18      3.56      0.00
   -4    2   18     -8.60      0.00
   -3    2   18     -1.23      0.00
   -2    2   18     -2.36      0.00
   -1    2   18      2.13      0.00
    0    2   18     -0.02      0.00
    1    2   18     -5.73      0.00
    2    2   18     -1.39      0.00
   -9    3   18      2.62      0.00
   -8    3   18      0.39      0.00
   -7    3   18      3.16      0.00
   -6    3   18      9.04      0.00
   -5    3   18     -9.05      0.00
   -4    3   18     -5.77      0.00
   -3    3   18      5.53      0.00
   -2    3   18     -1.83      0.00
   -1    3   18     -2.21      0.00
    0    3   18      0.87      0.00
    1    3   18     -2.86      0.00
   -9    4   18      2.01      0.00
   -8    4   18      3.24      0.00
   -7    4   18      3.92      0.00
   -6    4   18     -1.81      0.00
   -5    4   18     -3.17      0.00
   -4    4   18      1.16      0.00
   -3    4   18     -1.78      0.00
   -2    4   18      3.27      0.00
   -1    4   18     -0.33      0.00
    0    4   18     -1.12      0.00
    1    4   18     -0.29      0.00
   -9    5   18      0.75      0.00
   -8    5   18      4.79      0.00
   -7    5   18      0.88      0.00
   -6    5   18     -4.24      0.00
   -5    5   18      3.84      0.00
   -4    5   18     -0.01      0.00
   -3    5   18     -0.58      0.00
   -2    5   18      3.21      0.00
   -1    5   18      1.62      0.00
    0    5   18     -1.22      0.00
   -9    6   18      0.73      0.00
   -8    6   18      1.60      0.00
   -7    6   18      2.89      0.00
   -6    6   18     -0.85      0.00
   -5    6   18     -0.70      0.00
   -4    6   18      4.24      0.00
   -3    6   18     -0.59      0.00
   -2    6   18     -0.39      0.00
   -8    7   18      2.11      0.00
   -7    7   18     -0.36      0.00
   -6    7   18      1.85      0.00
   -5    7   18      1.53      0.00
   -4    7   18     -3.20      0.00
   -3    7   18      1.99      0.00
   -8    8   18      0.05      0.00
   -7    8   18     -0.56      0.00
   -6    8   18      3.33      0.00
   -5    8   18     -2.37      0.00
   -2  -11   19      0.47      0.00
   -1  -11   19      2.06      0.00
    0  -11   19     -0.52      0.00
   -3  -10   19     -0.11      0.00
   -2  -10   19      4.88      0.00
   -1  -10   19     -0.44      0.00
    0  -10   19     -1.09      0.00
    1  -10   19      4.49      0.00
   -4   -9   19      0.06      0.00
   -3   -9   19      0.60      0.00
   -2   -9   19      1.82      0.00
   -1   -9   19      1.57      0.00
    0   -9   19      2.93      0.00
    1   -9   19     -0.23      0.00
    2   -9   19     -0.44      0.00
   -4   -8   19      0.79      0.00
   -3   -8   19      1.56      0.00
   -2   -8   19     -0.04      0.00
   -1   -8   19      4.66      0.00
    0   -8   19      0.67      0.00
    1   -8   19     -3.61      0.00
    2   -8   19      0.61      0.00
   -5   -7   19     -3.52      0.00
   -4   -7   19     -0.08      0.00
   -3   -7   19      3.91      0.00
   -2   -7   19      0.54      0.00
   -1   -7   19     -1.58      0.00
    0   -7   19      0.24      0.00
    1   -7   19     -1.78      0.00
    2   -7   19     -3.32      0.00
   -6   -6   19     -2.17      0.00
   -5   -6   19      0.39      0.00
   -4   -6   19     -0.02      0.00
   -3   -6   19     -0.93      0.00
   -2   -6   19      1.29      0.00
   -1   -6   19     -3.05      0.00
    0   -6   19     -3.96      0.00
    1   -6   19     -1.47      0.00
    2   -6   19      1.06      0.00
   -6   -5   19     -3.41      0.00
   -5   -5   19      2.22      0.00
   -4   -5   19     -2.55      0.00
   -3   -5   19     -3.67      0.00
   -2   -5   19      0.59      0.00
   -1   -5   19     -3.30      0.00
    0   -5   19     -6.28      0.00
    1   -5   19      5.36      0.00
    2   -5   19     -0.05      0.00
    3   -5   19     -2.88      0.00
   -7   -4   19     -1.10      0.00
   -6   -4   19     -2.34      0.00
   -5   -4   19     -3.30      0.00
   -4   -4   19     -1.77      0.00
   -3   -4   19     -1.31      0.00
   -2   -4   19     -1.89      0.00
   -1   -4   19     -2.13      0.00
    0   -4   19      2.03      0.00
    1   -4   19     -2.05      0.00
    3   -4   19      0.09      0.00
   -7   -3   19     -2.63      0.00
   -6   -3   19      0.79      0.00
   -5   -3   19     -7.40      0.00
   -4   -3   19      0.16      0.00
   -3   -3   19      7.83      0.00
   -2   -3   19     -7.05      0.00
   -1   -3   19     -1.47      0.00
    0   -3   19      0.96      0.00
    1   -3   19     -7.43      0.00
    2   -3   19      0.36      0.00
   -7   -2   19     -0.30      0.00
   -6   -2   19     -1.44      0.00
   -5   -2   19      0.84      0.00
   -4   -2   19      5.15      0.00
   -3   -2   19     -1.72      0.00
   -2   -2   19     -2.24      0.00
   -1   -2   19     -4.63      0.00
    0   -2   19     -4.87      0.00
    1   -2   19      1.62      0.00
   -8   -1   19      2.77      0.00
   -7   -1   19      0.20      0.00
   -6   -1   19      0.69      0.00
   -5   -1   19      8.08      0.00
   -4   -1   19     -2.05      0.00
   -3   -1   19     -4.56      0.00
   -2   -1   19      1.15      0.00
   -1   -1   19     -5.40      0.00
    0   -1   19     -0.94      0.00
    1   -1   19      0.32      0.00
   -8    0   19      3.26      0.00
   -7    0   19      4.81      0.00
   -6    0   19      0.27      0.00
   -5    0   19      0.50      0.00
   -4    0   19      3.52      0.00
   -3    0   19     -2.79      0.00
   -2    0   19     -2.98      0.00
   -1    0   19      2.57      0.00
    0    0   19     -1.12      0.00
    1    0   19      1.86      0.00
   -8    1   19      2.38      0.00
   -7    1   19      0.40      0.00
   -6    1   19      2.53      0.00
   -5    1   19      1.73      0.00
   -4    1   19      4.42      0.00
   -3    1   19     -0.34      0.00
   -2    1   19     -3.94      0.00
   -1    1   19      3.19      0.00
    0    1   19      6.21      0.00
    1    1   19     -0.15      0.00
   -8    2   19     -1.63      0.00
   -7    2   19      0.68      0.00
   -6    2   19      7.43      0.00
   -5    2   19      6.07      0.00
   -4    2   19     -6.30      0.00
   -3    2   19      2.18      0.00
   -2    2   19      0.62      0.00
   -1    2   19      2.48      0.00
    0    2   19      3.08      0.00
    1    2   19     -2.63      0.00
   -8    3   19      1.49      0.00
   -7    3   19      3.55      0.00
   -6    3   19      5.73      0.00
   -5    3   19     -3.09      0.00
   -4    3   19     -1.11      0.00
   -3    3   19     -2.13      0.00
   -2    3   19      2.78      0.00
   -1    3   19     -0.90      0.00
    0    3   19     -2.01      0.00
   -8    4   19      3.34      0.00
   -7    4   19      4.55      0.00
   -6    4   19     -5.24      0.00
   -5    4   19     -0.29      0.00
   -4    4   19      1.61      0.00
   -3    4   19     -5.89      0.00
   -2    4   19     -0.77      0.00
   -1    4   19      1.74      0.00
   -8    5   19      1.74      0.00
   -7    5   19     -0.14      0.00
   -6    5   19     -2.39      0.00
   -5    5   19      1.14      0.00
   -4    5   19     -2.58      0.00
   -3    5   19     -2.23      0.00
   -2    5   19     -0.40      0.00
   -7    6   19     -1.24      0.00
   -6    6   19      4.00      0.00
   -5    6   19     -1.68      0.00
   -4    6   19     -3.61      0.00
   -2   -9   20     -4.25      0.00
   -1   -9   20     -1.17      0.00
    0   -9   20      2.04      0.00
   -3   -8   20     -2.53      0.00
   -2   -8   20     -1.67      0.00
   -1   -8   20      0.80      0.00
    0   -8   20      0.38      0.00
    1   -8   20     -1.03      0.00
   -4   -7   20     -4.64      0.00
   -3   -7   20     -1.04      0.00
   -2   -7   20      3.98      0.00
   -1   -7   20     -0.94      0.00
    0   -7   20     -1.86      0.00
    1   -7   20      1.91      0.00
   -4   -6   20      0.63      0.00
   -3   -6   20      0.55      0.00
   -2   -6   20      1.84      0.00
   -1   -6   20      0.56      0.00
    0   -6   20     -3.34      0.00
    1   -6   20     -2.64      0.00
   -5   -5   20     -0.95      0.00
   -4   -5   20      2.12      0.00
   -3   -5   20      2.45      0.00
   -2   -5   20     -2.75      0.00
   -1   -5   20     -0.65      0.00
    0   -5   20     -3.16      0.00
    1   -5   20      1.24      0.00
   -5   -4   20     -1.76      0.00
   -4   -4   20      1.00      0.00
   -3   -4   20      1.35      0.00
   -2   -4   20     -0.69      0.00
   -1   -4   20     -1.77      0.00
    0   -4   20      5.45      0.00
    1   -4   20     -0.73      0.00
   -6   -3   20      0.99      0.00
   -5   -3   20      0.97      0.00
   -4   -3   20     -0.70      0.00
   -3   -3   20      4.89      0.00
   -2   -3   20      4.27      0.00
   -1   -3   20      1.47      0.00
    0   -3   20      0.17      0.00
   -6   -2   20     -1.66      0.00
   -5   -2   20      5.24      0.00
   -4   -2   20      7.12      0.00
   -3   -2   20      0.57      0.00
   -2   -2   20      5.86      0.00
   -1   -2   20      0.23      0.00
    0   -2   20     -6.96      0.00
    1   -2   20      4.87      0.00
   -6   -1   20      3.57      0.00
   -5   -1   20      6.03      0.00
   -4   -1   20      3.06      0.00
   -3   -1   20      3.29      0.00
   -2   -1   20     -0.91      0.00
   -1   -1   20     -4.71      0.00
    0   -1   20      3.38      0.00
    1   -1   20     -0.23      0.00
   -7    0   20      4.42      0.00
   -6    0   20      5.43      0.00
   -5    0   20     -2.95      0.00
   -4    0   20      4.12      0.00
   -3    0   20      2.97      0.00
   -2    0   20     -8.26      0.00
   -1    0   20      1.24      0.00
    0    0   20      2.31      0.00
    1    0   20      1.70      0.00
   -7    1   20     -0.22      0.00
   -6    1   20     -0.58      0.00
   -5    1   20      2.77      0.00
   -4    1   20     -0.39      0.00
   -3    1   20     -0.95      0.00
   -2    1   20     -3.23      0.00
   -1    1   20     -1.40      0.00
    0    1   20      4.48      0.00
   -7    2   20     -2.11      0.00
   -6    2   20      0.46      0.00
   -5    2   20      4.27      0.00
   -4    2   20     -1.20      0.00
   -3    2   20     -6.14      0.00
   -2    2   20      0.45      0.00
   -1    2   20      0.90      0.00
   -6    3   20      0.50      0.00
   -5    3   20     -1.47      0.00
   -4    3   20      0.98      0.00
   -3    3   20     -5.58      0.00
   -2    3   20     -1.74      0.00
   -5    4   20      0.56      0.00
   -3   -7   21      0.49      0.00
   -2   -7   21      3.23      0.00
   -1   -7   21      3.13      0.00
   -3   -6   21      5.33      0.00
   -2   -6   21      1.56      0.00
   -1   -6   21      3.09      0.00
   -3   -5   21      4.68      0.00
   -2   -5   21      0.43      0.00
   -1   -5   21     -0.26      0.00
    0   -5   21     -0.96      0.00
   -4   -4   21      1.96      0.00
   -3   -4   21     -2.43      0.00
   -2   -4   21      3.06      0.00
   -1   -4   21     -1.42      0.00
    0   -4   21      1.43      0.00
   -4   -3   21     -1.40      0.00
   -3   -3   21     -0.18      0.00
   -2   -3   21      4.17      0.00
   -1   -3   21      3.10      0.00
    0   -3   21     -1.60      0.00
   -4   -2   21      3.09      0.00
   -3   -2   21      3.61      0.00
   -2   -2   21      1.43      0.00
   -1   -2   21      0.49      0.00
    0   -2   21     -3.66      0.00
   -4   -1   21      0.34      0.00
   -3   -1   21      5.70      0.00
   -2   -1   21     -2.45      0.00
   -1   -1   21     -6.68      0.00
   -4    0   21      1.53      0.00
   -3    0   21      0.49      0.00
   -2    0   21     -5.95      0.00
   -1    1    0    174.18      0.00
   11    1    0     -2.69      0.00
  -12    6    0     -0.53      0.00
  -12    7    0      0.76      0.00
  -12    8    0     -2.15      0.00
    6   12    0      0.01      0.00
   -7   13    0      1.42      0.00
    5   13    0     -0.15      0.00
    4   14    0      2.72      0.00
    3   15    0     -0.98      0.00
    2   16    0      2.69      0.00
   -2   17    0     -0.98      0.00
    1   17    0      0.69      0.00
   -3   18    0      1.01      0.00
   -2   18    0      0.37      0.00
   -5   19    0      1.73      0.00
   -4   19    0     -1.02      0.00
    3  -19    1     -0.25      0.00
    5  -19    1      1.12      0.00
    2  -18    1     -2.44      0.00
    3  -18    1      4.19      0.00
   -1  -17    1      0.37      0.00
    2  -17    1      2.12      0.00
   -3  -15    1     -0.29      0.00
   -4  -14    1     -1.85      0.00
   -5  -13    1      1.06      0.00
   -6  -12    1     -1.76      0.00
    2   -2    1     40.38      0.00
   -1    0    1    -42.93      0.00
    0    1    1    -51.30      0.00
    7   10    1      0.32      0.00
    5   13    1     -0.61      0.00
    4   14    1      0.13      0.00
    3   15    1     -0.09      0.00
    2   16    1     -0.42      0.00
   -3   18    1     -1.16      0.00
   -2   18    1      1.70      0.00
    3  -19    2     -0.70      0.00
    5  -19    2      0.05      0.00
    2  -18    2     -2.97      0.00
    2  -17    2      3.76      0.00
   -4  -15    2     -1.98      0.00
   -6  -12    2      2.43      0.00
   -7  -11    2      1.82      0.00
    4   -9    2     17.71      0.00
    3   -5    2     -0.76      0.00
    0    0    2    -11.25      0.00
   10    3    2     -0.56      0.00
    6   11    2     -0.20      0.00
    5   12    2     -0.40      0.00
    3   15    2      1.42      0.00
   -3   18    2      0.57      0.00
    3  -19    3     -2.73      0.00
    5  -19    3      0.02      0.00
    1  -18    3     -1.50      0.00
    2  -18    3     -1.83      0.00
    2  -17    3      0.44      0.00
   -3  -16    3      0.64      0.00
   -4  -15    3     -0.09      0.00
   -5  -14    3      0.66      0.00
   -7  -11    3      2.54      0.00
   11   -2    3     -1.88      0.00
    8    7    3     -1.87      0.00
    5   12    3      2.26      0.00
    4   13    3      1.65      0.00
    3   14    3      4.26      0.00
    2   15    3      2.00      0.00
    1   16    3      1.89      0.00
    0   17    3      2.64      0.00
   -3   18    3     -0.35      0.00
    3  -19    4     -0.66      0.00
    1  -18    4     -0.77      0.00
    2  -18    4     -1.78      0.00
    7  -18    4      2.83      0.00
   -2  -17    4      3.05      0.00
    1  -17    4      0.82      0.00
    2  -17    4     -0.14      0.00
   -3  -16    4     -0.13      0.00
   -4  -15    4      1.31      0.00
   -5  -14    4     -2.22      0.00
   -7  -11    4      1.31      0.00
   11  -10    4     -2.39      0.00
    1   -6    4      5.09      0.00
   11   -4    4      3.45      0.00
  -11   -3    4      0.82      0.00
    8    6    4      3.78      0.00
    6   10    4      2.04      0.00
    4   13    4      2.49      0.00
    3   14    4      0.60      0.00
    2   15    4      1.85      0.00
    1   16    4     -1.76      0.00
   -3   18    4     -2.05      0.00
    1  -18    5      1.22      0.00
    2  -18    5     -2.59      0.00
   -2  -17    5      1.01      0.00
    1  -17    5     -1.36      0.00
    2  -17    5      2.47      0.00
   -3  -16    5      0.05      0.00
   -4  -15    5     -2.28      0.00
   -5  -14    5     -1.61      0.00
    5  -14    5     -6.52      0.00
   -6  -13    5     -3.33      0.00
    5  -12    5      1.13      0.00
   -7  -11    5      1.79      0.00
   -8  -10    5      1.32      0.00
    5  -10    5     -4.70      0.00
  -10   -6    5      1.26      0.00
    8    5    5      2.99      0.00
    8    6    5      3.42      0.00
  -12   10    5     -0.78      0.00
  -12   11    5      0.49      0.00
    5   11    5     -0.24      0.00
    4   12    5      0.61      0.00
    3   13    5     -4.67      0.00
    2   14    5     -3.11      0.00
    1   15    5     -4.50      0.00
    0   16    5     -0.47      0.00
   -1   17    5      0.92      0.00
   -6   18    5     -1.49      0.00
   -4   18    5      0.43      0.00
    0  -18    6      0.33      0.00
    1  -18    6     -0.70      0.00
    2  -18    6     -2.13      0.00
   -2  -17    6     -2.42      0.00
    1  -17    6     -5.72      0.00
    2  -17    6      2.44      0.00
   -3  -16    6     -0.06      0.00
    1  -16    6     -0.43      0.00
   -4  -15    6     -1.39      0.00
   -5  -14    6      1.57      0.00
   -6  -13    6      0.81      0.00
    5  -12    6      2.53      0.00
   10  -12    6     -1.58      0.00
   -7  -11    6      2.86      0.00
    5  -11    6      6.66      0.00
   -8  -10    6      3.23      0.00
   -8   -9    6      3.25      0.00
    5   -8    6      3.74      0.00
    5   -7    6      0.82      0.00
    4   -6    6      7.38      0.00
   -2   -4    6    -10.65      0.00
    7    5    6      1.72      0.00
    8    5    6      0.56      0.00
  -12    9    6      0.92      0.00
  -11    9    6     -5.74      0.00
  -12   10    6     -1.09      0.00
    4   12    6     -0.44      0.00
    3   13    6     -0.11      0.00
    2   14    6     -1.65      0.00
    1   15    6      0.98      0.00
    0   16    6     -0.95      0.00
   -8   17    6      1.24      0.00
   -2   17    6     -0.06      0.00
    0  -18    7      2.80      0.00
    1  -18    7     -1.86      0.00
    2  -18    7     -1.98      0.00
    1  -17    7     -2.86      0.00
    2  -17    7      0.53      0.00
    7  -17    7      1.87      0.00
   -3  -16    7     -1.70      0.00
    1  -16    7      4.59      0.00
    5  -16    7      2.63      0.00
   -4  -15    7      2.60      0.00
   -5  -14    7      1.29      0.00
    9  -14    7      3.50      0.00
   -6  -13    7      3.16      0.00
   -7  -11    7     -0.14      0.00
    5  -11    7      7.93      0.00
   -8  -10    7     -1.48      0.00
   -4   -5    7      5.42      0.00
   10   -3    7     -0.47      0.00
    7    4    7     -4.06      0.00
    8    4    7     -0.74      0.00
    7    5    7      0.77      0.00
    7    6    7      0.29      0.00
  -12    9    7      1.00      0.00
  -11    9    7     -0.62      0.00
  -12   10    7     -1.81      0.00
    5   10    7     -1.15      0.00
    4   11    7     -1.16      0.00
    3   12    7      2.05      0.00
    2   13    7      1.95      0.00
    1   14    7      6.41      0.00
  -10   15    7     -0.68      0.00
    0   15    7      1.81      0.00
   -9   16    7      0.80      0.00
   -1   16    7      0.88      0.00
    1  -18    8     -0.72      0.00
    2  -18    8     -2.51      0.00
    1  -17    8     -0.74      0.00
    2  -17    8      0.45      0.00
   -3  -16    8     -1.31      0.00
    1  -16    8      0.70      0.00
   -4  -15    8     -0.23      0.00
   -2  -15    8     -3.43      0.00
   -5  -14    8     -0.78      0.00
   -4  -14    8     -1.31      0.00
   -2  -14    8     -1.41      0.00
   -6  -13    8     -1.48      0.00
    9  -13    8     -3.56      0.00
   -6  -12    8     -6.16      0.00
   -7  -11    8     -4.04      0.00
    5  -11    8      3.09      0.00
   -8  -10    8     -3.15      0.00
    4   -6    8      4.02      0.00
    9    0    8      0.43      0.00
    8    3    8     -3.37      0.00
    7    4    8     -0.25      0.00
    7    5    8      1.69      0.00
  -12    8    8      1.60      0.00
  -11    8    8      3.92      0.00
  -12    9    8     -0.60      0.00
  -11    9    8      2.02      0.00
  -12   10    8     -0.75      0.00
    4   11    8     -1.16      0.00
    3   12    8     -0.51      0.00
  -11   13    8      3.68      0.00
    2   13    8     -0.34      0.00
    1   14    8      1.20      0.00
    0   15    8      3.02      0.00
   -2   16    8     -2.50      0.00
   -6   17    8      0.47      0.00
   -5   17    8      0.00      0.00
    1  -18    9     -0.76      0.00
    2  -18    9     -1.34      0.00
    0  -17    9     -2.62      0.00
    1  -17    9     -2.77      0.00
    2  -17    9      0.27      0.00
    3  -17    9      2.45      0.00
    4  -17    9     -2.21      0.00
    5  -17    9      2.62      0.00
   -3  -16    9      0.47      0.00
   -4  -15    9     -3.58      0.00
    6  -15    9     -0.92      0.00
   -5  -14    9     -1.27      0.00
   -6  -13    9     -2.37      0.00
    6  -12    9      4.06      0.00
   -7  -11    9     -3.00      0.00
   -8  -10    9      0.06      0.00
   -6  -10    9      0.25      0.00
    5  -10    9      5.36      0.00
   -9   -8    9      2.26      0.00
    4   -6    9     -5.80      0.00
    6    3    9      3.68      0.00
    7    3    9      3.97      0.00
    6    4    9      5.39      0.00
    7    4    9      1.90      0.00
  -12    7    9     -2.39      0.00
  -11    7    9      4.88      0.00
    6    7    9      0.00      0.00
  -12    8    9      0.47      0.00
  -11    8    9      4.10      0.00
  -12    9    9      0.36      0.00
    4   10    9     -1.43      0.00
    3   11    9     -1.67      0.00
    2   12    9     -0.67      0.00
    1   13    9     -1.47      0.00
    0   14    9      0.48      0.00
   -1   15    9     -2.43      0.00
    0  -17   10      0.65      0.00
    1  -17   10     -2.04      0.00
   -4  -15   10     -0.25      0.00
   -5  -14   10     -1.19      0.00
    6  -14   10      4.42      0.00
   -6  -12   10      2.71      0.00
    6  -12   10     -1.84      0.00
   -7  -11   10      0.50      0.00
    7  -11   10      2.31      0.00
   -8  -10   10     -0.25      0.00
    5  -10   10      2.60      0.00
    9   -9   10     -0.72      0.00
   -9   -8   10     -0.51      0.00
    4   -6   10    -10.57      0.00
    9   -5   10     -2.51      0.00
    4   -4   10     11.40      0.00
  -11   -3   10      0.81      0.00
  -12    1   10      0.07      0.00
    7    2   10      3.97      0.00
    6    3   10      2.22      0.00
    7    3   10      0.22      0.00
    6    4   10      1.06      0.00
    6    5   10      1.94      0.00
    6    6   10     -0.46      0.00
  -12    7   10     -2.90      0.00
  -11    7   10      2.38      0.00
  -12    8   10      2.26      0.00
  -11    8   10     -0.01      0.00
    4    9   10     -0.57      0.00
  -11   12   10      4.27      0.00
    2   12   10     -0.10      0.00
    1   13   10     -1.59      0.00
   -1   14   10      2.61      0.00
   -2   15   10      3.19      0.00
    4  -17   11      3.92      0.00
    6  -14   11      1.42      0.00
   -5  -13   11      0.72      0.00
   -6  -12   11     -0.66      0.00
    6  -12   11     -5.23      0.00
   -7  -11   11      1.48      0.00
    5  -10   11     -1.78      0.00
   -8   -9   11     -3.75      0.00
   -9   -8   11     -2.98      0.00
    4   -6   11     -3.46      0.00
  -11   -3   11      0.06      0.00
    8   -1   11     -1.42      0.00
    5    2   11     -3.13      0.00
    6    2   11     -0.64      0.00
    7    2   11     -0.53      0.00
    6    3   11      0.69      0.00
    6    4   11     -1.09      0.00
    6    5   11      0.74      0.00
  -12    6   11     -0.18      0.00
  -11    6   11      1.47      0.00
  -10    6   11      1.07      0.00
   -1    6   11      2.20      0.00
  -12    7   11      1.36      0.00
  -11    7   11     -2.31      0.00
    5    7   11     -1.10      0.00
  -11    8   11      0.00      0.00
    3   10   11     -0.06      0.00
    2   11   11      1.93      0.00
    1   12   11      1.31      0.00
    0   13   11      0.50      0.00
   -2   14   11     -0.51      0.00
   -1   14   11      1.52      0.00
    1  -17   12     -0.53      0.00
    2  -17   12     -1.47      0.00
   -2  -16   12     -1.13      0.00
   -3  -15   12      0.80      0.00
   -4  -14   12     -2.32      0.00
    6  -14   12     -2.87      0.00
   -5  -13   12      0.31      0.00
    7  -13   12     -1.30      0.00
   -6  -12   12      0.36      0.00
    6  -12   12     -0.36      0.00
   -7  -11   12      0.61      0.00
   -8   -9   12      0.44      0.00
    8   -9   12      1.49      0.00
    4   -6   12      0.50      0.00
    8   -4   12     -0.49      0.00
    6    1   12     -5.39      0.00
    7    1   12      0.67      0.00
    5    2   12     -4.28      0.00
    6    2   12      1.74      0.00
  -12    3   12      0.07      0.00
    5    3   12      0.08      0.00
    6    3   12      0.74      0.00
  -12    4   12      1.00      0.00
    5    4   12      2.41      0.00
  -12    5   12      0.50      0.00
  -11    5   12      1.74      0.00
  -10    5   12      0.07      0.00
  -12    6   12      1.98      0.00
  -11    6   12     -1.38      0.00
  -10    6   12     -0.19      0.00
  -11    7   12     -2.00      0.00
  -11    8   12      0.17      0.00
    3    9   12      0.65      0.00
    2   10   12      2.06      0.00
    1   11   12      1.44      0.00
    0   12   12     -1.40      0.00
   -1   13   12      0.40      0.00
   -1  -16   13     -0.73      0.00
   -3  -15   13      0.01      0.00
    5  -15   13      2.59      0.00
   -4  -14   13      2.09      0.00
   -5  -13   13      0.28      0.00
   -6  -12   13      2.58      0.00
    5  -11   13      1.51      0.00
   -7  -10   13      2.84      0.00
    5  -10   13      2.90      0.00
   -8   -9   13      0.61      0.00
    5   -9   13      0.87      0.00
   -9   -7   13      2.73      0.00
    4   -7   13      3.35      0.00
  -10   -5   13      1.65      0.00
  -11   -2   13      0.18      0.00
    7   -1   13      0.64      0.00
    5    1   13      2.39      0.00
    6    1   13     -2.95      0.00
    5    2   13     -4.56      0.00
    6    2   13      0.63      0.00
    5    3   13      1.03      0.00
    5    4   13      0.18      0.00
  -11    5   13     -0.52      0.00
  -10    5   13     -1.91      0.00
   -9    5   13      0.84      0.00
  -11    6   13     -0.21      0.00
  -10    6   13     -1.02      0.00
  -11    7   13      0.58      0.00
  -11    8   13     -0.63      0.00
    3    8   13     -0.42      0.00
    2    9   13     -3.38      0.00
    1   10   13     -3.43      0.00
    0   11   13     -5.24      0.00
   -1   12   13     -0.48      0.00
   -2   13   13      0.08      0.00
   -7   14   13     -0.18      0.00
   -4   14   13     -0.27      0.00
    1  -16   14      1.99      0.00
   -5  -12   14     -1.68      0.00
   -6  -11   14     -2.60      0.00
    5  -11   14      1.05      0.00
   -7  -10   14      1.56      0.00
    5   -9   14     -0.82      0.00
   -8   -8   14      1.55      0.00
    5   -8   14     -1.77      0.00
    7   -8   14     -0.06      0.00
   -9   -7   14      0.15      0.00
    4   -7   14      0.04      0.00
    7   -5   14      1.67      0.00
    3   -4   14      5.94      0.00
  -11   -1   14     -2.30      0.00
  -11    0   14     -1.44      0.00
    5    0   14      0.25      0.00
    6    0   14     -0.04      0.00
  -11    1   14      0.09      0.00
    4    1   14      2.55      0.00
    5    1   14     -1.11      0.00
  -11    2   14      1.64      0.00
  -10    2   14     -0.86      0.00
    4    2   14     -3.28      0.00
    5    2   14     -4.03      0.00
  -10    3   14      0.74      0.00
    5    3   14     -1.14      0.00
  -11    4   14      0.08      0.00
  -10    4   14      1.59      0.00
  -11    5   14      1.90      0.00
  -10    5   14      1.44      0.00
  -11    6   14      2.00      0.00
  -10    6   14      1.85      0.00
  -11    7   14      1.30      0.00
    3    7   14     -1.06      0.00
  -11    8   14      0.53      0.00
    2    8   14     -1.47      0.00
    1    9   14      1.17      0.00
    0   10   14     -1.57      0.00
   -1   11   14      1.84      0.00
   -9   12   14      0.39      0.00
   -2   12   14      1.53      0.00
   -4   13   14     -1.66      0.00
   -1  -15   15      0.06      0.00
   -3  -14   15      0.35      0.00
   -4  -13   15     -1.90      0.00
   -5  -12   15     -2.26      0.00
   -6  -11   15     -0.79      0.00
    6  -10   15      1.67      0.00
   -7   -9   15     -0.31      0.00
   -8   -8   15      1.86      0.00
    4   -7   15      0.32      0.00
   -9   -6   15      0.13      0.00
    6   -2   15     -2.01      0.00
    4    0   15     -1.98      0.00
    5    0   15     -1.61      0.00
  -11    1   15     -1.15      0.00
    4    1   15     -3.14      0.00
    5    1   15     -0.70      0.00
  -11    2   15     -1.24      0.00
  -10    2   15      0.80      0.00
    4    2   15     -2.80      0.00
  -11    3   15     -0.70      0.00
  -10    3   15      1.66      0.00
    4    3   15     -2.42      0.00
  -11    4   15      1.66      0.00
  -10    4   15      4.79      0.00
    4    4   15      0.87      0.00
  -11    5   15      1.96      0.00
  -10    5   15      3.73      0.00
  -11    6   15      0.93      0.00
  -10    6   15      0.33      0.00
    3    6   15      1.06      0.00
    2    7   15     -1.36      0.00
    1    8   15      0.03      0.00
    0    9   15     -3.35      0.00
   -1   10   15     -1.22      0.00
   -2   11   15     -1.67      0.00
   -4   12   15     -1.01      0.00
   -3   12   15     -0.35      0.00
   -2  -14   16      2.06      0.00
   -4  -12   16      0.15      0.00
   -5  -11   16      1.25      0.00
   -6  -10   16      0.68      0.00
   -7   -9   16      1.79      0.00
    5   -9   16      2.86      0.00
   -7   -8   16      3.50      0.00
   -8   -7   16      1.10      0.00
   -9   -5   16     -0.32      0.00
    3   -5   16      0.43      0.00
    3   -3   16      0.80      0.00
    3   -1   16      3.19      0.00
    4   -1   16     -0.61      0.00
    5   -1   16     -2.38      0.00
    3    0   16      3.66      0.00
    4    0   16     -2.14      0.00
    4    1   16     -1.33      0.00
    4    2   16      1.45      0.00
  -10    3   16     -0.27      0.00
  -10    4   16      2.93      0.00
  -10    5   16      0.20      0.00
  -10    6   16     -2.14      0.00
    2    6   16     -1.42      0.00
    1    7   16      0.00      0.00
    0    8   16     -2.52      0.00
   -1    9   16     -1.85      0.00
   -9   10   16      1.85      0.00
   -2   10   16     -2.42      0.00
   -4   11   16      1.41      0.00
   -3   11   16     -1.44      0.00
   -4  -12   17     -1.93      0.00
   -5  -11   17     -0.34      0.00
   -6  -10   17     -0.92      0.00
   -5  -10   17     -3.87      0.00
   -6   -9   17     -1.41      0.00
   -7   -8   17     -1.26      0.00
    4   -8   17      2.93      0.00
   -8   -6   17     -0.48      0.00
    4   -6   17     -3.83      0.00
   -9   -4   17      2.06      0.00
   -7   -4   17      1.36      0.00
    3   -4   17     -0.25      0.00
    4   -2   17      2.83      0.00
  -10   -1   17     -0.93      0.00
    3   -1   17      6.21      0.00
    4   -1   17     -1.74      0.00
    3    0   17      1.22      0.00
    4    0   17      0.32      0.00
    3    1   17     -0.23      0.00
  -10    4   17      0.08      0.00
  -10    5   17     -0.54      0.00
  -10    6   17     -0.02      0.00
    1    6   17      0.03      0.00
   -9    7   17      0.53      0.00
    0    7   17     -2.51      0.00
   -9    8   17      2.20      0.00
   -1    8   17     -2.65      0.00
   -3    9   17      1.70      0.00
   -2    9   17     -0.67      0.00
   -5   10   17      2.01      0.00
   -4   10   17     -1.18      0.00
   -3   10   17      0.63      0.00
   -4  -11   18      0.46      0.00
   -5  -10   18     -0.87      0.00
   -6   -9   18      0.14      0.00
   -5   -9   18      1.24      0.00
   -6   -8   18     -0.77      0.00
   -7   -7   18      0.98      0.00
    4   -7   18     -0.05      0.00
   -7   -6   18      2.69      0.00
    3   -6   18      1.57      0.00
   -8   -5   18      1.49      0.00
   -8   -4   18      4.51      0.00
    4   -4   18      2.35      0.00
   -9   -3   18      0.86      0.00
   -9   -2   18     -0.94      0.00
    2   -2   18     -0.10      0.00
    3   -2   18      0.00      0.00
    3   -1   18      2.08      0.00
    3    0   18     -2.83      0.00
    2    3   18     -3.14      0.00
   -1    6   18      3.50      0.00
    0    6   18     -0.01      0.00
   -2    7   18      2.49      0.00
   -1    7   18     -0.62      0.00
   -4    8   18     -1.89      0.00
   -3    8   18      3.88      0.00
   -2    8   18      0.28      0.00
   -7    9   18      0.40      0.00
   -6    9   18     -1.25      0.00
   -5    9   18      0.30      0.00
   -4    9   18      2.29      0.00
   -4  -10   19     -1.45      0.00
   -5   -9   19      0.66      0.00
   -6   -8   19      0.57      0.00
   -5   -8   19     -2.49      0.00
   -6   -7   19      0.24      0.00
    3   -7   19      0.63      0.00
   -7   -6   19     -0.90      0.00
    3   -6   19     -0.19      0.00
   -7   -5   19     -0.99      0.00
   -8   -4   19      0.78      0.00
    2   -4   19     -3.07      0.00
   -8   -3   19     -2.63      0.00
   -8   -2   19     -4.09      0.00
    2   -2   19     -3.18      0.00
   -9   -1   19     -3.13      0.00
    2   -1   19     -0.78      0.00
   -9    0   19      0.34      0.00
    2    0   19      1.52      0.00
   -9    1   19      2.34      0.00
   -9    2   19      2.77      0.00
   -9    3   19      0.00      0.00
    1    3   19      1.03      0.00
   -9    4   19     -1.09      0.00
    0    4   19     -1.03      0.00
   -1    5   19      1.51      0.00
   -8    6   19     -1.26      0.00
   -3    6   19      1.42      0.00
   -2    6   19     -0.05      0.00
   -7    7   19      0.13      0.00
   -6    7   19      1.88      0.00
   -5    7   19     -0.51      0.00
   -4    7   19     -3.09      0.00
   -3    7   19     -0.02      0.00
   -6    8   19     -0.45      0.00
   -5    8   19     -1.54      0.00
   -3   -9   20      0.67      0.00
   -4   -8   20     -1.55      0.00
   -5   -7   20     -0.03      0.00
   -6   -6   20     -1.94      0.00
   -5   -6   20     -1.31      0.00
   -6   -5   20      0.01      0.00
   -7   -4   20      1.44      0.00
   -6   -4   20      2.31      0.00
   -7   -3   20      0.02      0.00
    1   -3   20     -1.93      0.00
   -8   -2   20      1.00      0.00
   -7   -2   20      1.42      0.00
   -8   -1   20      1.97      0.00
   -7   -1   20      2.02      0.00
   -8    0   20      0.66      0.00
   -8    1   20      2.12      0.00
   -8    2   20      0.01      0.00
    0    2   20     -1.01      0.00
   -8    3   20     -0.49      0.00
   -7    3   20      2.13      0.00
   -1    3   20     -0.22      0.00
   -7    4   20      1.60      0.00
   -6    4   20     -1.79      0.00
   -4    4   20     -2.40      0.00
   -3    4   20     -2.81      0.00
   -2    4   20     -4.13      0.00
   -7    5   20     -1.93      0.00
   -6    5   20      2.15      0.00
   -5    5   20      0.23      0.00
   -4    5   20     -4.32      0.00
   -3    5   20     -1.17      0.00
   -2    5   20     -0.39      0.00
   -6    6   20      2.77      0.00
   -5    6   20      0.03      0.00
   -4    6   20     -2.03      0.00
   -4   -7   21     -1.98      0.00
   -5   -6   21     -3.47      0.00
   -4   -6   21      2.19      0.00
    0   -6   21      1.53      0.00
   -5   -5   21      0.21      0.00
   -4   -5   21      3.46      0.00
   -6   -4   21      0.36      0.00
   -5   -4   21      3.36      0.00
   -6   -3   21     -0.76      0.00
   -5   -3   21      2.93      0.00
   -6   -2   21      0.32      0.00
   -5   -2   21     -0.73      0.00
   -7   -1   21     -0.15      0.00
   -6   -1   21      3.59      0.00
   -5   -1   21      0.27      0.00
    0   -1   21      2.60      0.00
   -7    0   21      2.04      0.00
   -6    0   21      1.63      0.00
   -5    0   21     -1.55      0.00
   -1    0   21     -1.77      0.00
   -7    1   21      0.45      0.00
   -6    1   21     -4.66      0.00
   -5    1   21      2.61      0.00
   -4    1   21      0.46      0.00
   -3    1   21     -4.93      0.00
   -2    1   21     -1.27      0.00
   -1    1   21     -2.65      0.00
   -7    2   21     -1.87      0.00
   -6    2   21     -0.69      0.00
   -5    2   21      0.15      0.00
   -4    2   21      2.74      0.00
   -3    2   21     -4.32      0.00
   -2    2   21     -2.03      0.00
   -6    3   21      1.48      0.00
   -5    3   21      0.81      0.00
   -4    3   21     -0.21      0.00
   -3    3   21      0.63      0.00
   -5    4   21      2.66      0.00
   -4    4   21     -1.50      0.00
   -3   -4   22     -3.41      0.00
   -4   -3   22     -2.38      0.00
   -3   -3   22      0.25      0.00
   -4   -2   22     -1.11      0.00
   -3   -2   22      2.86      0.00
   -5   -1   22      0.66      0.00
   -4   -1   22     -0.27      0.00
   -3   -1   22      1.22      0.00
   -4    0   22      2.38      0.00
    0    0    0      0.00      0.00
# SQUEEZE RESULTS (Version = 290617)
# Note: Data are Listed for all Voids in the P1 Unit Cell
# i.e. Centre of Gravity, Solvent Accessible Volume,
# Recovered number of Electrons in the Void and
# Details about the Squeezed Material
loop_
  _platon_squeeze_void_nr
  _platon_squeeze_void_average_x
  _platon_squeeze_void_average_y
  _platon_squeeze_void_average_z
  _platon_squeeze_void_volume
  _platon_squeeze_void_count_electrons
  _platon_squeeze_void_content
   1 -0.009 -0.009  0.000       570       264 ' '
# Missing Reflections Below sin(th)/lambda = 0.25
loop_
  _platon_missing_refln_index_h
  _platon_missing_refln_index_k
  _platon_missing_refln_index_l
  _platon_missing_refln_theta
   -1    1    0     2.307
    2   -2    1     5.042
   -1    0    1     2.282
    0    1    1     2.160
    3   -5    2     8.941
    0    0    2     2.561
    1   -6    4     9.320
   -2   -4    6     9.724
_platon_squeeze_void_probe_radius                  1.20
_platon_squeeze_details
)
TITL ljj1_a.res in P-1
CELL    9.6088   14.6537   16.9619     95.85    106.51    107.94
SPGR P-1
# Solvent Accessible Volume =       570
# Electrons Found in S.A.V. =       263
# Note: Atoms in Void are Labelled as Cxxx and Qxxx for all Others
Q101 0.471 0.724 0.266 !      15.79 eA-3
Q102 0.680 0.236 0.296 !      15.41 eA-3
Q103 0.997 0.074 0.313 !      13.38 eA-3
C104 0.346 0.205 0.246 !      12.61 eA-3
C105 0.814 0.944 0.154 !      10.10 eA-3
C106 0.877 0.936 0.015 !       8.94 eA-3
Q107 0.873 0.765 0.156 !       7.54 eA-3
C108 0.240 0.240 0.096 !       7.53 eA-3
C109 0.636 0.549 0.124 !       7.38 eA-3
C110 0.715 0.614 0.128 !       7.09 eA-3
C111 0.361 0.361 0.016 !       7.00 eA-3
Q112 0.945 0.700 0.439 !       4.93 eA-3
Q113 0.905 0.753 0.412 !       4.54 eA-3
C114 0.535 0.420 0.154 !       4.27 eA-3
C115 0.405 0.406 0.064 !       3.64 eA-3
Q116 0.475 0.353 0.203 !       2.24 eA-3
C117 0.151 0.120 0.043 !       1.94 eA-3
C118 0.683 0.607 0.067 !       1.89 eA-3
Q119 0.427 0.845 0.018 !       1.73 eA-3
Q120 0.795 0.420 0.017 !       1.52 eA-3
C121 0.305 0.188 0.130 !       1.41 eA-3
C122 0.889 0.020 0.250 !       1.40 eA-3
C123 0.350 0.325 0.074 !       1.39 eA-3
Q124 0.132 0.153 0.249 !       1.34 eA-3
Q125 0.136 0.383 0.187 !       1.32 eA-3
Q126 0.787 0.088 0.051 !       1.32 eA-3
Q127 0.744 0.365 0.033 !       1.32 eA-3
C128 0.832 0.845 0.048 !       1.31 eA-3
Q129 0.254 0.239 0.374 !       1.29 eA-3
Q130 0.779 0.138 0.124 !       1.26 eA-3
Q131 0.513 0.358 0.378 !       1.25 eA-3
Q132 0.718 0.312 0.288 !       1.25 eA-3
Q133 0.343 0.672 0.046 !       1.25 eA-3
Q134 0.224 0.298 0.377 !       1.22 eA-3
Q135 0.573 0.184 0.064 !       1.22 eA-3
Q136 0.212 0.420 0.265 !       1.21 eA-3
Q137 0.685 0.227 0.232 !       1.20 eA-3
Q138 0.460 0.147 0.076 !       1.18 eA-3
Q139 0.230 0.389 0.139 !       1.18 eA-3
Q140 0.028 0.796 0.451 !       1.17 eA-3
Q141 0.620 0.487 0.079 !       1.14 eA-3
Q142 0.221 0.905 0.146 !       1.13 eA-3
Q143 0.280 0.488 0.249 !       1.11 eA-3
Q144 0.664 0.591 0.329 !       1.11 eA-3
Q145 0.390 0.702 0.217 !       1.10 eA-3
Q146 0.105 0.921 0.091 !       1.09 eA-3
Q147 0.834 0.176 0.030 !       1.09 eA-3
C148 0.804 0.707 0.077 !       1.07 eA-3
Q149 0.168 0.936 0.363 !       1.06 eA-3
Q150 0.339 0.231 0.313 !       1.06 eA-3
Q151 0.089 0.380 0.000 !       1.04 eA-3
Q152 0.315 0.862 0.031 !       1.04 eA-3
C153 0.872 0.931 0.078 !       1.03 eA-3
Q154 0.601 0.967 0.183 !       1.03 eA-3
Q155 0.283 0.611 0.057 !       1.02 eA-3
Q156 0.873 0.234 0.393 !       1.00 eA-3
Q157 0.410 0.612 0.063 !       1.00 eA-3
Q158 0.210 0.453 0.174 !       0.99 eA-3
Q159 0.543 0.883 0.044 !       0.98 eA-3
Q160 0.897 0.109 0.036 !       0.98 eA-3
Q161 0.055 0.692 0.124 !       0.98 eA-3
Q162 0.306 0.734 0.372 !       0.98 eA-3
C163 0.400 0.316 0.068 !       0.97 eA-3
Q164 1.016 0.766 0.293 !       0.97 eA-3
C165 0.809 0.798 0.116 !       0.97 eA-3
Q166 0.369 0.472 0.278 !       0.96 eA-3
Q167 0.968 0.328-0.002 !       0.96 eA-3
Q168 0.064 0.132 0.359 !       0.95 eA-3
C169 0.806 0.757 0.080 !       0.95 eA-3
Q170 0.692 0.796 0.317 !       0.94 eA-3
Q171 0.259 0.163 0.283 !       0.93 eA-3
Q172 0.982 0.686 0.298 !       0.93 eA-3
Q173 0.722 0.406 0.059 !       0.93 eA-3
Q174 0.604 0.135 0.407 !       0.91 eA-3
Q175 0.096 0.464 0.450 !       0.91 eA-3
Q176 0.069 0.645 0.076 !       0.91 eA-3
Q177 0.146 0.985 0.232 !       0.90 eA-3
Q178 0.344 0.435 0.298 !       0.90 eA-3
C179 0.324 0.253 0.200 !       0.88 eA-3
Q180 0.866 0.482 0.191 !       0.87 eA-3
Q181 0.736 0.185 0.141 !       0.87 eA-3
Q182 0.712 0.434 0.316 !       0.87 eA-3
Q183 0.021 0.610 0.016 !       0.86 eA-3
Q184 0.525 0.542 0.123 !       0.86 eA-3
Q185 0.261 0.344 0.029 !       0.86 eA-3
Q186 0.815 0.687 0.391 !       0.86 eA-3
Q187 0.918 0.923 0.171 !       0.86 eA-3
Q188 0.586 1.000 0.311 !       0.84 eA-3
Q189 0.506 0.205 0.184 !       0.83 eA-3
Q190 0.968 0.419 0.065 !       0.83 eA-3
Q191 0.564 0.602 0.031 !       0.82 eA-3
Q192 0.752 0.891 0.094 !       0.82 eA-3
Q193 0.231 0.272 0.131 !       0.81 eA-3
Q194 0.224 0.281 0.248 !       0.81 eA-3
Q195 0.781 0.872 0.362 !       0.81 eA-3
Q196 0.805 0.420 0.344 !       0.81 eA-3
Q197 0.494 0.183 0.099 !       0.81 eA-3
Q198 0.569 0.868 0.426 !       0.80 eA-3
Q199 0.470 0.535 0.011 !       0.80 eA-3
)
;
_shelx_fab_checksum              7058
loop_
_space_group_symop_operation_xyz
'x, y, z'
'-x, -y, -z'
loop_
_atom_site_label
_atom_site_type_symbol
_atom_site_fract_x
_atom_site_fract_y
_atom_site_fract_z
_atom_site_U_iso_or_equiv
_atom_site_adp_type
_atom_site_occupancy
_atom_site_site_symmetry_order
_atom_site_calc_flag
_atom_site_refinement_flags_posn
_atom_site_refinement_flags_adp
_atom_site_refinement_flags_occupancy
_atom_site_disorder_assembly
_atom_site_disorder_group
Eu1 Eu 0.07177(2) 0.26804(2) 0.57621(2) 0.00945(7) Uani 1 1 d . . . . .
O8 O 0.9090(3) 0.5690(2) 0.41652(17) 0.0131(6) Uani 1 1 d . . . . .
O2 O -0.1930(3) 0.0079(2) 0.40199(18) 0.0139(6) Uani 1 1 d . . . . .
O10 O 0.0010(3) 0.2731(3) 0.70046(19) 0.0206(7) Uani 1 1 d D . . . .
H10A H -0.085(3) 0.276(4) 0.698(3) 0.031 Uiso 1 1 d D U . . .
H10B H 0.041(5) 0.267(4) 0.7501(17) 0.031 Uiso 1 1 d D U . . .
O12 O 0.3200(3) 0.3790(2) 0.69178(18) 0.0158(6) Uani 1 1 d D . . . .
H12A H 0.400(4) 0.364(4) 0.706(3) 0.024 Uiso 1 1 d D U . . .
H12B H 0.316(5) 0.405(3) 0.7380(18) 0.024 Uiso 1 1 d D U . . .
O4 O -0.6991(3) -0.2413(2) 0.36324(18) 0.0161(6) Uani 1 1 d . . . . .
O5 O 0.2659(3) 0.2797(2) 0.51691(18) 0.0163(6) Uani 1 1 d . . . . .
O1 O -0.0452(3) 0.0999(2) 0.52881(18) 0.0146(6) Uani 1 1 d . . . . .
O9 O -0.0298(4) 0.2668(2) 0.42387(18) 0.0176(6) Uani 1 1 d D . . . .
H9A H -0.125(2) 0.251(4) 0.394(3) 0.026 Uiso 1 1 d D U . . .
H9B H 0.011(4) 0.248(4) 0.391(2) 0.026 Uiso 1 1 d D U . . .
O7 O 0.7529(3) 0.4308(2) 0.32289(18) 0.0177(6) Uani 1 1 d . . . . .
O3 O -0.7975(3) -0.2419(2) 0.46769(17) 0.0133(6) Uani 1 1 d . . . . .
O11 O 0.2105(3) 0.1757(2) 0.66256(18) 0.0162(6) Uani 1 1 d D . . . .
H11A H 0.309(2) 0.205(3) 0.679(3) 0.024 Uiso 1 1 d D U . . .
H11B H 0.201(5) 0.1177(16) 0.642(3) 0.024 Uiso 1 1 d D U . . .
O6 O 0.2449(3) 0.2663(2) 0.3815(2) 0.0249(7) Uani 1 1 d . . . . .
N2 N -0.3670(4) 0.0013(2) 0.7171(2) 0.0132(7) Uani 1 1 d . . . . .
N3 N 0.8029(4) 0.5036(2) 0.6852(2) 0.0122(7) Uani 1 1 d . . . . .
N1 N -0.3119(5) 0.1756(3) 1.1346(2) 0.0253(9) Uani 1 1 d . . . . .
N4 N 1.2566(5) 0.6689(3) 1.1146(2) 0.0241(8) Uani 1 1 d . . . . .
C20 C 0.4855(4) 0.3683(3) 0.4852(2) 0.0114(7) Uani 1 1 d . . . . .
C21 C 0.5621(4) 0.3919(3) 0.4275(2) 0.0107(7) Uani 1 1 d . . . . .
H21 H 0.5105 0.3628 0.3695 0.013 Uiso 1 1 calc R U . . .
C8 C -0.4827(5) 0.0454(3) 0.8145(3) 0.0182(9) Uani 1 1 d . . . . .
H8 H -0.5726 0.0495 0.8253 0.022 Uiso 1 1 calc R U . . .
C22 C 0.7137(4) 0.4580(3) 0.4545(3) 0.0114(7) Uani 1 1 d . . . . .
C3 C -0.3304(5) 0.1119(3) 0.9680(3) 0.0198(9) Uani 1 1 d . . . . .
C25 C 0.7163(5) 0.4699(3) 0.5961(2) 0.0116(7) Uani 1 1 d . . . . .
C24 C 0.7924(4) 0.4980(3) 0.5400(2) 0.0112(7) Uani 1 1 d . . . . .
H24 H 0.8959 0.5434 0.5591 0.013 Uiso 1 1 calc R U . . .
C23 C 0.7955(5) 0.4863(3) 0.3919(3) 0.0132(8) Uani 1 1 d . . . . .
C30 C 1.0313(5) 0.5256(3) 0.7976(3) 0.0207(9) Uani 1 1 d . . . . .
H30 H 1.1297 0.5186 0.8167 0.025 Uiso 1 1 calc R U . . .
C17 C -0.6876(4) -0.2157(3) 0.4387(2) 0.0112(7) Uani 1 1 d . . . . .
C7 C -0.3426(5) 0.0748(3) 0.8808(3) 0.0182(9) Uani 1 1 d . . . . .
C18 C -0.1643(4) 0.0317(3) 0.4793(3) 0.0114(7) Uani 1 1 d . . . . .
C31 C 0.9413(5) 0.4936(3) 0.7137(3) 0.0173(8) Uani 1 1 d . . . . .
H31 H 0.9783 0.4641 0.6755 0.021 Uiso 1 1 calc R U . . .
C26 C 0.5640(4) 0.4075(3) 0.5710(2) 0.0118(7) Uani 1 1 d . . . . .
H26 H 0.5135 0.3915 0.6111 0.014 Uiso 1 1 calc R U . . .
C15 C -0.2813(4) -0.0232(3) 0.5174(3) 0.0118(8) Uani 1 1 d . . . . .
C14 C -0.4166(4) -0.0990(3) 0.4663(2) 0.0105(7) Uani 1 1 d . . . . .
H14 H -0.4288 -0.1210 0.4092 0.013 Uiso 1 1 calc R U . . .
C13 C -0.5340(4) -0.1427(3) 0.4980(2) 0.0103(7) Uani 1 1 d . . . . .
C10 C -0.2294(5) 0.0288(3) 0.7800(3) 0.0170(8) Uani 1 1 d . . . . .
H10 H -0.1419 0.0218 0.7682 0.020 Uiso 1 1 calc R U . . .
C4 C -0.4558(6) 0.1235(4) 0.9876(3) 0.0290(11) Uani 1 1 d . . . . .
H4 H -0.5518 0.1097 0.9443 0.035 Uiso 1 1 calc R U . . .
C16 C -0.2642(4) 0.0083(3) 0.6009(3) 0.0130(8) Uani 1 1 d . . . . .
H16 H -0.1731 0.0599 0.6366 0.016 Uiso 1 1 calc R U . . .
C9 C -0.4930(5) 0.0105(3) 0.7339(3) 0.0175(8) Uani 1 1 d . . . . .
H9 H -0.5889 -0.0074 0.6895 0.021 Uiso 1 1 calc R U . . .
C12 C -0.5161(4) -0.1123(3) 0.5810(3) 0.0124(8) Uani 1 1 d . . . . .
H12 H -0.5946 -0.1426 0.6034 0.015 Uiso 1 1 calc R U . . .
C11 C -0.3813(5) -0.0364(3) 0.6315(2) 0.0129(8) Uani 1 1 d . . . . .
C33 C 1.0164(5) 0.6344(4) 1.0042(3) 0.0261(10) Uani 1 1 d . . . . .
H33 H 0.9132 0.6343 0.9882 0.031 Uiso 1 1 calc R U . . .
C32 C 1.0726(5) 0.6029(3) 0.9445(3) 0.0171(8) Uani 1 1 d . . . . .
C29 C 0.9775(5) 0.5678(3) 0.8538(2) 0.0151(8) Uani 1 1 d . . . . .
C6 C -0.2148(5) 0.0667(3) 0.8611(3) 0.0220(9) Uani 1 1 d . . . . .
H6 H -0.1164 0.0876 0.9040 0.026 Uiso 1 1 calc R U . . .
C19 C 0.3185(4) 0.2991(3) 0.4584(3) 0.0137(8) Uani 1 1 d . . . . .
C5 C -0.4406(6) 0.1550(4) 1.0703(3) 0.0315(12) Uani 1 1 d . . . . .
H5 H -0.5283 0.1624 1.0816 0.038 Uiso 1 1 calc R U . . .
C1 C -0.1909(6) 0.1651(4) 1.1159(3) 0.0331(12) Uani 1 1 d . . . . .
H1 H -0.0967 0.1793 1.1609 0.040 Uiso 1 1 calc R U . . .
C2 C -0.1940(6) 0.1350(4) 1.0353(3) 0.0335(12) Uani 1 1 d . . . . .
H2 H -0.1034 0.1300 1.0260 0.040 Uiso 1 1 calc R U . . .
C34 C 1.1114(5) 0.6664(4) 1.0880(3) 0.0252(10) Uani 1 1 d . . . . .
H34 H 1.0702 0.6876 1.1281 0.030 Uiso 1 1 calc R U . . .
C36 C 1.2255(6) 0.6062(4) 0.9727(3) 0.0367(13) Uani 1 1 d . . . . .
H36 H 1.2707 0.5861 0.9342 0.044 Uiso 1 1 calc R U . . .
C27 C 0.7459(6) 0.5417(4) 0.7388(3) 0.0266(11) Uani 1 1 d . . . . .
H27 H 0.6460 0.5463 0.7183 0.032 Uiso 1 1 calc R U . . .
C35 C 1.3109(7) 0.6392(5) 1.0577(3) 0.0401(14) Uani 1 1 d . . . . .
H35 H 1.4147 0.6406 1.0758 0.048 Uiso 1 1 calc R U . . .
C28 C 0.8306(6) 0.5740(4) 0.8227(3) 0.0299(11) Uani 1 1 d . . . . .
H28 H 0.7890 0.6008 0.8599 0.036 Uiso 1 1 calc R U . . .
Cl1 Cl -0.5270(4) -0.2792(2) 0.2727(2) 0.1119(9) Uani 1 1 d . . . . .
loop_
_atom_site_aniso_label
_atom_site_aniso_U_11
_atom_site_aniso_U_22
_atom_site_aniso_U_33
_atom_site_aniso_U_23
_atom_site_aniso_U_13
_atom_site_aniso_U_12
Eu1 0.00692(10) 0.01090(11) 0.00886(10) 0.00063(7) 0.00326(7) 0.00077(7)
O8 0.0105(13) 0.0123(13) 0.0156(14) 0.0012(11) 0.0057(11) 0.0021(11)
O2 0.0139(14) 0.0141(14) 0.0135(14) 0.0029(11) 0.0052(11) 0.0040(11)
O10 0.0112(14) 0.0380(19) 0.0148(15) 0.0045(14) 0.0069(12) 0.0097(13)
O12 0.0111(14) 0.0174(15) 0.0160(14) -0.0031(12) 0.0007(12) 0.0066(12)
O4 0.0096(13) 0.0227(15) 0.0128(14) -0.0031(12) 0.0043(11) 0.0030(11)
O5 0.0120(14) 0.0203(15) 0.0178(15) 0.0041(12) 0.0089(12) 0.0036(12)
O1 0.0097(13) 0.0127(14) 0.0154(14) -0.0008(11) 0.0009(11) 0.0002(11)
O9 0.0158(14) 0.0211(15) 0.0138(14) 0.0015(12) 0.0052(12) 0.0039(12)
O7 0.0219(15) 0.0138(14) 0.0151(15) -0.0003(11) 0.0107(13) 0.0003(12)
O3 0.0089(13) 0.0161(14) 0.0139(14) 0.0048(11) 0.0039(11) 0.0023(11)
O11 0.0142(14) 0.0137(14) 0.0160(15) -0.0021(12) 0.0016(12) 0.0030(11)
O6 0.0146(15) 0.0347(19) 0.0170(16) 0.0022(14) 0.0060(13) -0.0023(13)
N2 0.0110(16) 0.0163(17) 0.0091(16) -0.0011(13) 0.0017(13) 0.0031(13)
N3 0.0114(16) 0.0155(16) 0.0079(16) 0.0003(13) 0.0024(13) 0.0037(13)
N1 0.034(2) 0.027(2) 0.0161(19) 0.0004(16) 0.0099(17) 0.0116(18)
N4 0.026(2) 0.029(2) 0.0122(18) -0.0013(15) -0.0015(16) 0.0130(17)
C20 0.0103(18) 0.0109(18) 0.0144(19) 0.0043(15) 0.0046(15) 0.0045(15)
C21 0.0128(18) 0.0093(17) 0.0095(18) 0.0005(14) 0.0055(15) 0.0023(15)
C8 0.018(2) 0.022(2) 0.016(2) 0.0028(17) 0.0068(17) 0.0084(17)
C22 0.0130(18) 0.0086(17) 0.0160(19) 0.0036(15) 0.0062(16) 0.0067(15)
C3 0.023(2) 0.021(2) 0.014(2) -0.0011(17) 0.0053(18) 0.0089(18)
C25 0.0137(18) 0.0130(18) 0.0083(18) 0.0009(14) 0.0020(15) 0.0069(15)
C24 0.0100(18) 0.0095(17) 0.0123(19) -0.0004(14) 0.0035(15) 0.0019(14)
C23 0.0131(18) 0.0125(19) 0.0143(19) 0.0028(15) 0.0056(16) 0.0038(15)
C30 0.018(2) 0.031(2) 0.014(2) 0.0028(18) 0.0048(17) 0.0101(18)
C17 0.0082(17) 0.0111(18) 0.0153(19) 0.0029(15) 0.0029(15) 0.0056(14)
C7 0.020(2) 0.020(2) 0.014(2) 0.0023(17) 0.0058(17) 0.0063(17)
C18 0.0084(17) 0.0089(18) 0.018(2) 0.0049(15) 0.0040(16) 0.0044(14)
C31 0.0123(19) 0.026(2) 0.013(2) 0.0008(17) 0.0053(16) 0.0060(17)
C26 0.0121(18) 0.0141(18) 0.0124(19) 0.0046(15) 0.0076(15) 0.0055(15)
C15 0.0096(18) 0.0116(18) 0.0160(19) 0.0034(15) 0.0043(16) 0.0062(15)
C14 0.0107(18) 0.0094(17) 0.0113(18) 0.0012(14) 0.0029(15) 0.0043(14)
C13 0.0064(17) 0.0109(18) 0.0120(18) 0.0014(14) 0.0017(15) 0.0026(14)
C10 0.0111(19) 0.023(2) 0.015(2) 0.0010(17) 0.0037(16) 0.0047(16)
C4 0.026(2) 0.043(3) 0.017(2) -0.003(2) 0.005(2) 0.016(2)
C16 0.0092(18) 0.0104(18) 0.0135(19) -0.0023(15) -0.0010(15) 0.0016(15)
C9 0.0138(19) 0.024(2) 0.014(2) 0.0013(17) 0.0040(16) 0.0084(17)
C12 0.0100(18) 0.0139(19) 0.0153(19) 0.0043(15) 0.0058(16) 0.0049(15)
C11 0.0134(19) 0.0164(19) 0.0102(18) 0.0015(15) 0.0028(15) 0.0085(16)
C33 0.019(2) 0.040(3) 0.016(2) -0.001(2) 0.0036(18) 0.010(2)
C32 0.019(2) 0.019(2) 0.013(2) 0.0017(16) 0.0040(17) 0.0083(17)
C29 0.016(2) 0.017(2) 0.0098(19) 0.0001(15) 0.0026(16) 0.0057(16)
C6 0.015(2) 0.028(2) 0.017(2) -0.0009(18) 0.0018(17) 0.0062(18)
C19 0.0096(18) 0.017(2) 0.0144(19) 0.0029(15) 0.0049(16) 0.0037(15)
C5 0.031(3) 0.043(3) 0.021(2) -0.004(2) 0.010(2) 0.016(2)
C1 0.033(3) 0.045(3) 0.016(2) -0.005(2) 0.002(2) 0.015(2)
C2 0.030(3) 0.056(3) 0.017(2) 0.000(2) 0.007(2) 0.022(3)
C34 0.025(2) 0.035(3) 0.014(2) 0.0018(19) 0.0072(19) 0.010(2)
C36 0.028(3) 0.062(4) 0.019(2) -0.010(2) -0.002(2) 0.029(3)
C27 0.023(2) 0.043(3) 0.017(2) -0.002(2) 0.0006(19) 0.023(2)
C35 0.031(3) 0.062(4) 0.023(3) -0.008(3) -0.006(2) 0.029(3)
C28 0.032(3) 0.046(3) 0.015(2) -0.004(2) 0.004(2) 0.025(2)
Cl1 0.104(2) 0.126(2) 0.108(2) 0.0240(19) 0.0351(18) 0.0442(19)
loop_
_atom_type_symbol
_atom_type_description
_atom_type_scat_dispersion_real
_atom_type_scat_dispersion_imag
_atom_type_scat_source
C C 0.0033 0.0016 'International Tables Vol C Tables 4.2.6.8 and 6.1.1.4'
H H 0.0000 0.0000 'International Tables Vol C Tables 4.2.6.8 and 6.1.1.4'
O O 0.0106 0.0060 'International Tables Vol C Tables 4.2.6.8 and 6.1.1.4'
N N 0.0061 0.0033 'International Tables Vol C Tables 4.2.6.8 and 6.1.1.4'
Eu Eu -0.1578 3.6682 'International Tables Vol C Tables 4.2.6.8 and 6.1.1.4'
Cl Cl 0.1484 0.1585 'International Tables Vol C Tables 4.2.6.8 and 6.1.1.4'
loop_
_geom_angle_atom_site_label_1
_geom_angle_atom_site_label_2
_geom_angle_atom_site_label_3
_geom_angle
_geom_angle_site_symmetry_1
_geom_angle_site_symmetry_3
_geom_angle_publ_flag
O1 Eu1 O8 155.96(10) . 2_666 ?
O1 Eu1 O5 93.94(10) . . ?
O8 Eu1 O5 95.51(10) 2_666 . ?
O1 Eu1 O10 95.69(11) . . ?
O8 Eu1 O10 87.88(11) 2_666 . ?
O5 Eu1 O10 147.95(10) . . ?
O1 Eu1 O3 76.44(10) . 2_456 ?
O8 Eu1 O3 81.98(9) 2_666 2_456 ?
O5 Eu1 O3 139.09(10) . 2_456 ?
O10 Eu1 O3 72.95(10) . 2_456 ?
O1 Eu1 O11 67.14(10) . . ?
O8 Eu1 O11 136.29(10) 2_666 . ?
O5 Eu1 O11 80.76(10) . . ?
O10 Eu1 O11 75.06(10) . . ?
O3 Eu1 O11 127.97(10) 2_456 . ?
O1 Eu1 O9 82.27(10) . . ?
O8 Eu1 O9 80.28(10) 2_666 . ?
O5 Eu1 O9 70.08(10) . . ?
O10 Eu1 O9 141.56(10) . . ?
O3 Eu1 O9 69.26(10) 2_456 . ?
O11 Eu1 O9 135.90(10) . . ?
O1 Eu1 O12 134.01(10) . . ?
O8 Eu1 O12 69.90(9) 2_666 . ?
O5 Eu1 O12 75.63(10) . . ?
O10 Eu1 O12 75.72(10) . . ?
O3 Eu1 O12 138.25(9) 2_456 . ?
O11 Eu1 O12 66.99(9) . . ?
O9 Eu1 O12 131.52(10) . . ?
C23 O8 Eu1 134.6(3) . 2_666 ?
Eu1 O10 H10A 120(3) . . ?
Eu1 O10 H10B 135(3) . . ?
H10A O10 H10B 105(2) . . ?
Eu1 O12 H12A 122(3) . . ?
Eu1 O12 H12B 120(3) . . ?
H12A O12 H12B 104(2) . . ?
C19 O5 Eu1 149.4(3) . . ?
C18 O1 Eu1 144.8(3) . . ?
Eu1 O9 H9A 126(3) . . ?
Eu1 O9 H9B 120(3) . . ?
H9A O9 H9B 104(2) . . ?
C17 O3 Eu1 137.9(3) . 2_456 ?
Eu1 O11 H11A 111(3) . . ?
Eu1 O11 H11B 121(3) . . ?
H11A O11 H11B 102(2) . . ?
C10 N2 C9 119.7(4) . . ?
C10 N2 C11 120.8(3) . . ?
C9 N2 C11 119.5(3) . . ?
C31 N3 C27 120.3(4) . . ?
C31 N3 C25 118.1(3) . . ?
C27 N3 C25 121.6(3) . . ?
C5 N1 C1 116.0(4) . . ?
C35 N4 C34 117.1(4) . . ?
C21 C20 C26 119.9(4) . . ?
C21 C20 C19 122.1(4) . . ?
C26 C20 C19 118.0(3) . . ?
C22 C21 C20 120.2(4) . . ?
C22 C21 H21 119.9 . . ?
C20 C21 H21 119.9 . . ?
C9 C8 C7 121.2(4) . . ?
C9 C8 H8 119.4 . . ?
C7 C8 H8 119.4 . . ?
C21 C22 C24 120.2(4) . . ?
C21 C22 C23 120.4(4) . . ?
C24 C22 C23 119.4(3) . . ?
C4 C3 C2 116.0(4) . . ?
C4 C3 C7 122.0(4) . . ?
C2 C3 C7 122.0(4) . . ?
C24 C25 C26 122.7(4) . . ?
C24 C25 N3 118.3(3) . . ?
C26 C25 N3 118.9(3) . . ?
C25 C24 C22 118.4(4) . . ?
C25 C24 H24 120.8 . . ?
C22 C24 H24 120.8 . . ?
O7 C23 O8 124.6(4) . . ?
O7 C23 C22 120.0(3) . . ?
O8 C23 C22 115.4(3) . . ?
C31 C30 C29 119.8(4) . . ?
C31 C30 H30 120.1 . . ?
C29 C30 H30 120.1 . . ?
O4 C17 O3 124.7(4) . . ?
O4 C17 C13 118.0(3) . . ?
O3 C17 C13 117.1(3) . . ?
C8 C7 C6 116.7(4) . . ?
C8 C7 C3 121.6(4) . . ?
C6 C7 C3 121.7(4) . . ?
O2 C18 O1 125.0(4) . . ?
O2 C18 C15 118.3(3) . . ?
O1 C18 C15 116.7(4) . . ?
N3 C31 C30 121.2(4) . . ?
N3 C31 H31 119.4 . . ?
C30 C31 H31 119.4 . . ?
C25 C26 C20 118.5(4) . . ?
C25 C26 H26 120.7 . . ?
C20 C26 H26 120.7 . . ?
C16 C15 C14 119.2(4) . . ?
C16 C15 C18 120.5(3) . . ?
C14 C15 C18 119.9(4) . . ?
C13 C14 C15 120.8(4) . . ?
C13 C14 H14 119.6 . . ?
C15 C14 H14 119.6 . . ?
C12 C13 C14 119.9(3) . . ?
C12 C13 C17 120.1(3) . . ?
C14 C13 C17 119.6(3) . . ?
N2 C10 C6 120.8(4) . . ?
N2 C10 H10 119.6 . . ?
C6 C10 H10 119.6 . . ?
C5 C4 C3 120.0(5) . . ?
C5 C4 H4 120.0 . . ?
C3 C4 H4 120.0 . . ?
C11 C16 C15 119.2(4) . . ?
C11 C16 H16 120.4 . . ?
C15 C16 H16 120.4 . . ?
N2 C9 C8 120.6(4) . . ?
N2 C9 H9 119.7 . . ?
C8 C9 H9 119.7 . . ?
C13 C12 C11 119.0(4) . . ?
C13 C12 H12 120.5 . . ?
C11 C12 H12 120.5 . . ?
C16 C11 C12 121.8(4) . . ?
C16 C11 N2 118.8(3) . . ?
C12 C11 N2 119.3(3) . . ?
C32 C33 C34 119.7(4) . . ?
C32 C33 H33 120.1 . . ?
C34 C33 H33 120.1 . . ?
C33 C32 C36 116.8(4) . . ?
C33 C32 C29 122.6(4) . . ?
C36 C32 C29 120.6(4) . . ?
C30 C29 C28 117.6(4) . . ?
C30 C29 C32 120.7(4) . . ?
C28 C29 C32 121.7(4) . . ?
C10 C6 C7 120.9(4) . . ?
C10 C6 H6 119.6 . . ?
C7 C6 H6 119.6 . . ?
O6 C19 O5 125.5(4) . . ?
O6 C19 C20 118.7(4) . . ?
O5 C19 C20 115.7(3) . . ?
N1 C5 C4 124.2(5) . . ?
N1 C5 H5 117.9 . . ?
C4 C5 H5 117.9 . . ?
N1 C1 C2 124.1(5) . . ?
N1 C1 H1 117.9 . . ?
C2 C1 H1 117.9 . . ?
C1 C2 C3 119.7(5) . . ?
C1 C2 H2 120.2 . . ?
C3 C2 H2 120.2 . . ?
N4 C34 C33 123.3(4) . . ?
N4 C34 H34 118.3 . . ?
C33 C34 H34 118.3 . . ?
C35 C36 C32 119.1(5) . . ?
C35 C36 H36 120.4 . . ?
C32 C36 H36 120.4 . . ?
N3 C27 C28 120.6(4) . . ?
N3 C27 H27 119.7 . . ?
C28 C27 H27 119.7 . . ?
N4 C35 C36 123.9(5) . . ?
N4 C35 H35 118.0 . . ?
C36 C35 H35 118.0 . . ?
C27 C28 C29 120.5(4) . . ?
C27 C28 H28 119.8 . . ?
C29 C28 H28 119.8 . . ?
loop_
_geom_bond_atom_site_label_1
_geom_bond_atom_site_label_2
_geom_bond_distance
_geom_bond_site_symmetry_2
_geom_bond_publ_flag
Eu1 O1 2.315(3) . ?
Eu1 O8 2.325(3) 2_666 ?
Eu1 O5 2.329(3) . ?
Eu1 O10 2.392(3) . ?
Eu1 O3 2.419(3) 2_456 ?
Eu1 O11 2.482(3) . ?
Eu1 O9 2.485(3) . ?
Eu1 O12 2.545(3) . ?
O8 C23 1.287(5) . ?
O8 Eu1 2.325(3) 2_666 ?
O2 C18 1.249(5) . ?
O10 H10A 0.833(19) . ?
O10 H10B 0.847(19) . ?
O12 H12A 0.837(19) . ?
O12 H12B 0.851(18) . ?
O4 C17 1.260(5) . ?
O5 C19 1.255(5) . ?
O1 C18 1.261(5) . ?
O9 H9A 0.849(19) . ?
O9 H9B 0.834(19) . ?
O7 C23 1.236(5) . ?
O3 C17 1.260(5) . ?
O3 Eu1 2.419(3) 2_456 ?
O11 H11A 0.854(19) . ?
O11 H11B 0.850(19) . ?
O6 C19 1.253(5) . ?
N2 C10 1.353(5) . ?
N2 C9 1.361(5) . ?
N2 C11 1.453(5) . ?
N3 C31 1.338(5) . ?
N3 C27 1.343(5) . ?
N3 C25 1.449(5) . ?
N1 C5 1.322(6) . ?
N1 C1 1.337(7) . ?
N4 C35 1.317(7) . ?
N4 C34 1.327(6) . ?
C20 C21 1.393(5) . ?
C20 C26 1.399(5) . ?
C20 C19 1.516(5) . ?
C21 C22 1.390(5) . ?
C21 H21 0.9500 . ?
C8 C9 1.376(6) . ?
C8 C7 1.395(6) . ?
C8 H8 0.9500 . ?
C22 C24 1.396(5) . ?
C22 C23 1.510(5) . ?
C3 C4 1.391(6) . ?
C3 C2 1.391(7) . ?
C3 C7 1.480(6) . ?
C25 C24 1.378(5) . ?
C25 C26 1.379(5) . ?
C24 H24 0.9500 . ?
C30 C31 1.381(6) . ?
C30 C29 1.384(6) . ?
C30 H30 0.9500 . ?
C17 C13 1.516(5) . ?
C7 C6 1.397(6) . ?
C18 C15 1.513(5) . ?
C31 H31 0.9500 . ?
C26 H26 0.9500 . ?
C15 C16 1.392(5) . ?
C15 C14 1.396(5) . ?
C14 C13 1.394(5) . ?
C14 H14 0.9500 . ?
C13 C12 1.378(5) . ?
C10 C6 1.380(6) . ?
C10 H10 0.9500 . ?
C4 C5 1.383(6) . ?
C4 H4 0.9500 . ?
C16 C11 1.382(6) . ?
C16 H16 0.9500 . ?
C9 H9 0.9500 . ?
C12 C11 1.391(5) . ?
C12 H12 0.9500 . ?
C33 C32 1.378(6) . ?
C33 C34 1.391(6) . ?
C33 H33 0.9500 . ?
C32 C36 1.394(6) . ?
C32 C29 1.489(5) . ?
C29 C28 1.394(6) . ?
C6 H6 0.9500 . ?
C5 H5 0.9500 . ?
C1 C2 1.382(7) . ?
C1 H1 0.9500 . ?
C2 H2 0.9500 . ?
C34 H34 0.9500 . ?
C36 C35 1.388(7) . ?
C36 H36 0.9500 . ?
C27 C28 1.371(6) . ?
C27 H27 0.9500 . ?
C35 H35 0.9500 . ?
C28 H28 0.9500 . ?
