#------------------------------------------------------------------------------
#$Date: 2020-07-21 04:38:04 +0300 (Tue, 21 Jul 2020) $
#$Revision: 254420 $
#$URL: file:///home/coder/svn-repositories/cod/cif/7/24/08/7240898.cif $
#------------------------------------------------------------------------------
#
# This file is available in the Crystallography Open Database (COD),
# http://www.crystallography.net/
#
# All data on this site have been placed in the public domain by the
# contributors.
#
data_7240898
loop_
_publ_author_name
'Wei, Xiao-Qin'
'Shao, Dong'
'Xue, Cai-Long'
'Qu, Xingyu'
'Chai, Jie'
'Li, Jianqing'
'Du, Yi-En'
'chen, yongqiang'
_publ_section_title
;
 Field-induced slow magnetic relaxation in two interpenetrated cobalt(II)
 metal-organic framework isomers
;
_journal_name_full               CrystEngComm
_journal_paper_doi               10.1039/D0CE00979B
_journal_year                    2020
_chemical_formula_sum            'C16 H10 Co N4 O4'
_chemical_formula_weight         381.21
_space_group_crystal_system      orthorhombic
_space_group_IT_number           33
_space_group_name_Hall           'P 2c -2n'
_space_group_name_H-M_alt        'P n a 21'
_atom_sites_solution_hydrogens   geom
_audit_creation_method           SHELXL-2018/3
_audit_update_record
;
2020-07-05 deposited with the CCDC.	2020-07-20 downloaded from the CCDC.
;
_cell_angle_alpha                90
_cell_angle_beta                 90
_cell_angle_gamma                90
_cell_formula_units_Z            4
_cell_length_a                   14.8116(8)
_cell_length_b                   8.7686(4)
_cell_length_c                   14.8164(7)
_cell_measurement_reflns_used    7769
_cell_measurement_temperature    296(2)
_cell_measurement_theta_max      36.14
_cell_measurement_theta_min      2.70
_cell_volume                     1924.31(16)
_computing_structure_refinement  'SHELXL-2018/3 (Sheldrick, 2018)'
_computing_structure_solution    'SHELXT 2014/5 (Sheldrick, 2014)'
_diffrn_ambient_temperature      296(2)
_diffrn_measured_fraction_theta_full 0.998
_diffrn_measured_fraction_theta_max 0.996
_diffrn_measurement_device_type  'bruker D8 VENTURE PHOTONII'
_diffrn_radiation_type           MoK\a
_diffrn_radiation_wavelength     0.71073
_diffrn_reflns_av_R_equivalents  0.0632
_diffrn_reflns_av_unetI/netI     0.0783
_diffrn_reflns_Laue_measured_fraction_full 0.998
_diffrn_reflns_Laue_measured_fraction_max 0.996
_diffrn_reflns_limit_h_max       24
_diffrn_reflns_limit_h_min       -20
_diffrn_reflns_limit_k_max       13
_diffrn_reflns_limit_k_min       -14
_diffrn_reflns_limit_l_max       24
_diffrn_reflns_limit_l_min       -24
_diffrn_reflns_number            32689
_diffrn_reflns_point_group_measured_fraction_full 0.998
_diffrn_reflns_point_group_measured_fraction_max 0.996
_diffrn_reflns_theta_full        25.242
_diffrn_reflns_theta_max         36.591
_diffrn_reflns_theta_min         2.323
_exptl_absorpt_coefficient_mu    0.916
_exptl_crystal_density_diffrn    1.316
_exptl_crystal_description       BLOCK
_exptl_crystal_F_000             772
_refine_diff_density_max         0.806
_refine_diff_density_min         -0.602
_refine_diff_density_rms         0.080
_refine_ls_abs_structure_details
;
 Twinning involves inversion, so Flack parameter cannot be determined
;
_refine_ls_extinction_method     none
_refine_ls_goodness_of_fit_ref   0.845
_refine_ls_hydrogen_treatment    constr
_refine_ls_matrix_type           full
_refine_ls_number_parameters     229
_refine_ls_number_reflns         9809
_refine_ls_number_restraints     1
_refine_ls_restrained_S_all      0.845
_refine_ls_R_factor_all          0.0829
_refine_ls_R_factor_gt           0.0477
_refine_ls_shift/su_max          0.010
_refine_ls_shift/su_mean         0.000
_refine_ls_structure_factor_coef Fsqd
_refine_ls_weighting_details
'w=1/[\s^2^(Fo^2^)+(0.1000P)^2^] where P=(Fo^2^+2Fc^2^)/3'
_refine_ls_weighting_scheme      calc
_refine_ls_wR_factor_gt          0.1149
_refine_ls_wR_factor_ref         0.1428
_reflns_Friedel_coverage         0.942
_reflns_Friedel_fraction_full    0.999
_reflns_Friedel_fraction_max     0.996
_reflns_number_gt                7270
_reflns_number_total             9809
_reflns_threshold_expression     'I > 2\s(I)'
_cod_data_source_file            d0ce00979b2.cif
_cod_data_source_block           2
_cod_database_code               7240898
_shelx_shelxl_version_number     2018/3
_shelx_space_group_comment
;
The symmetry employed for this shelxl refinement is uniquely defined
by the following loop, which should always be used as a source of
symmetry information in preference to the above space-group names.
They are only intended as comments.
;
_shelx_res_file
;
TITL P221_h.res in Pna2(1)
    p221_h_sq.res
    created by SHELXL-2018/3 at 21:27:28 on 20-Jul-2019
REM Old TITL P221 in P222(1)
REM SHELXT solution in Pna2(1)
REM R1 0.277,  Rweak 0.049,  Alpha 0.176,  Orientation a'=-a, b'=c, c'=b
REM Flack x =  0.472 ( 0.006 ) from Parsons' quotients
REM Formula found by SHELXT:  C28 Co O4
CELL  0.71073  14.8116   8.7686  14.8164   90.000   90.000   90.000
ZERR   4   0.0008   0.0004   0.0007    0.000    0.000    0.000
LATT -1
SYMM -X, -Y, 1/2+Z
SYMM 1/2+X, 1/2-Y, Z
SYMM 1/2-X, 1/2+Y, 1/2+Z
SFAC C H CO O N
UNIT 64 40 4 16 16
LIST 6 ! automatically inserted. Change 6 to 4 for CHECKCIF!!
TEMP 23.000
L.S. 5 0   44
BOND $H
ACTA
TWIN 0 0 -1 0 -1 0 -1 0 0 -4
FMAP 2
PLAN 20
ABIN
WGHT    0.100000
BASF   0.23542   0.16666   0.22863
FVAR       0.33621
CO1   3    0.490159    0.875156    0.338012    11.00000    0.01858    0.01078 =
         0.02212   -0.00097   -0.00071    0.00114
N1    5    0.500061    0.183551    0.704582    11.00000    0.02897    0.01068 =
         0.01735   -0.00054   -0.00176   -0.00011
C1    1    0.630917    1.051464    0.345483    11.00000    0.02225    0.01898 =
         0.02969    0.00064    0.00325   -0.00104
O1    4    0.545788    1.080135    0.354266    11.00000    0.01684    0.02002 =
         0.03842   -0.00355   -0.00076   -0.00183
O2    4    0.506376    0.671970    0.396484    11.00000    0.03541    0.02170 =
         0.01792    0.00350    0.00117    0.00341
N2    5    0.707867    1.606060    0.350604    11.00000    0.01979    0.01516 =
         0.07090   -0.00552    0.00141    0.00392
AFIX  43
H2    2    0.657092    1.653467    0.352961    11.00000   -1.20000
AFIX   0
C2    1    0.694570    1.183910    0.345371    11.00000    0.01633    0.01552 =
         0.02896    0.00132    0.00358   -0.00096
O4    4    0.489572    0.831526    0.506797    11.00000    0.06833    0.01581 =
         0.02670    0.00182   -0.00706   -0.00196
C4    1    0.720174    1.449645    0.348237    11.00000    0.01935    0.01690 =
         0.02929   -0.00081    0.00152    0.00264
N4    5    0.493536    0.146238    0.556953    11.00000    0.05930    0.01347 =
         0.01737   -0.00357   -0.00379    0.00194
AFIX  43
H4    2    0.491120    0.098871    0.506184    11.00000   -1.20000
AFIX   0
C3    1    0.659231    1.330409    0.347131    11.00000    0.01780    0.01665 =
         0.03118    0.00022    0.00128    0.00285
AFIX  43
H3    2    0.597271    1.347573    0.347547    11.00000   -1.20000
AFIX   0
O3    4    0.658634    0.918079    0.338680    11.00000    0.02474    0.01344 =
         0.08411    0.00187    0.00178    0.00363
N3    5    0.855920    1.570301    0.344835    11.00000    0.02340    0.01549 =
         0.03282    0.00056    0.00084   -0.00140
C8    1    0.790755    1.670047    0.348507    11.00000    0.02373    0.01505 =
         0.06339   -0.00145    0.00071    0.00255
AFIX  43
H8    2    0.800399    1.774833    0.349576    11.00000   -1.20000
AFIX   0
C7    1    0.787639    1.160222    0.343830    11.00000    0.02331    0.01226 =
         0.04476    0.00009   -0.00105    0.00231
AFIX  43
H7    2    0.809597    1.060864    0.344439    11.00000   -1.20000
AFIX   0
C6    1    0.848227    1.280006    0.341426    11.00000    0.01471    0.01666 =
         0.04491    0.00007   -0.00250   -0.00103
AFIX  43
H6    2    0.910053    1.262874    0.337294    11.00000   -1.20000
AFIX   0
C5    1    0.813149    1.427966    0.345435    11.00000    0.01830    0.01259 =
         0.02519    0.00086    0.00238    0.00129
C9    1    0.497842    0.699053    0.480067    11.00000    0.03051    0.01421 =
         0.01779    0.00045   -0.00288    0.00039
C10   1    0.498511    0.567989    0.542920    11.00000    0.03156    0.01504 =
         0.01999    0.00004    0.00088    0.00107
C11   1    0.503668    0.591877    0.637456    11.00000    0.04844    0.01333 =
         0.01501   -0.00193   -0.00395   -0.00201
AFIX  43
H11   2    0.506230    0.690910    0.659777    11.00000   -1.20000
AFIX   0
C12   1    0.504946    0.470917    0.696801    11.00000    0.04933    0.01347 =
         0.01835   -0.00536    0.00078   -0.00070
AFIX  43
H12   2    0.509204    0.487246    0.758675    11.00000   -1.20000
AFIX   0
C13   1    0.499734    0.324160    0.662123    11.00000    0.02668    0.01833 =
         0.01413   -0.00153   -0.00057   -0.00039
C14   1    0.495129    0.301086    0.568880    11.00000    0.03229    0.01157 =
         0.01878   -0.00215   -0.00006    0.00054
C15   1    0.492983    0.421798    0.507778    11.00000    0.03580    0.01990 =
         0.01214   -0.00121    0.00183    0.00262
AFIX  43
H15   2    0.488048    0.404990    0.446000    11.00000   -1.20000
AFIX   0
C16   1    0.496435    0.082247    0.638909    11.00000    0.05310    0.01271 =
         0.02399    0.00175   -0.00080   -0.00002
AFIX  43
H16   2    0.495945   -0.022558    0.648522    11.00000   -1.20000
REM #####
REM #####
AFIX   0
HKLF 4




REM  P221_h.res in Pna2(1)
REM wR2 = 0.142848, GooF = S = 0.84492, Restrained GooF = 0.84487 for all data
REM R1 = 0.047701 for 7270 Fo > 4sig(Fo) and 0.082871 for all 9809 data
REM 229 parameters refined using 1 restraints

END

WGHT      0.0492      0.0000

REM Highest difference peak  0.806,  deepest hole -0.602,  1-sigma level  0.080
Q1    1   0.5151  0.8736  0.3445  11.00000  0.05    0.81
Q2    1   0.4857  0.8147  0.3407  11.00000  0.05    0.58
Q3    1   0.5149  0.8836  0.4007  11.00000  0.05    0.50
Q4    1   0.6597  1.1365  0.3384  11.00000  0.05    0.47
Q5    1   0.5503  0.8213  0.3320  11.00000  0.05    0.47
Q6    1   0.5469  0.9320  0.3475  11.00000  0.05    0.45
Q7    1   0.4855  0.9371  0.3359  11.00000  0.05    0.43
Q8    1   0.5038  0.2437  0.6926  11.00000  0.05    0.43
Q9    1   0.4992  0.6174  0.5019  11.00000  0.05    0.42
Q10   1   0.4959  0.4961  0.5192  11.00000  0.05    0.41
Q11   1   0.4872  1.0801  0.3501  11.00000  0.05    0.41
Q12   1   0.5022  0.3957  0.6685  11.00000  0.05    0.40
Q13   1   0.5058  0.5214  0.6574  11.00000  0.05    0.39
Q14   1   0.4698  0.8519  0.3389  11.00000  0.05    0.39
Q15   1   0.5001  0.5693  0.6978  11.00000  0.05    0.38
Q16   1   0.7966  1.8887  0.3404  11.00000  0.05    0.38
Q17   1   0.8241  1.3438  0.3392  11.00000  0.05    0.38
Q18   1   0.5141  0.8866  0.2776  11.00000  0.05    0.37
Q19   1   0.5073  0.1406  0.6819  11.00000  0.05    0.37
Q20   1   0.6368  0.9703  0.3453  11.00000  0.05    0.37
;
_shelx_res_checksum              35070
_shelx_fab_file
;
    0    0   24      0.91      1.71
    2    0   24     -0.60     -1.05
    4    0   24     -0.02      0.14
    6    0   24      0.28      0.08
    1    1   24      0.16      0.50
    2    1   24     -0.01      0.14
    3    1   24     -0.54     -1.45
    4    1   24      0.15     -0.11
    5    1   24      0.70      1.67
    6    1   24     -0.14     -0.01
    0    2   24      1.82      1.20
    1    2   24     -0.52     -0.64
    2    2   24     -1.78     -1.16
    3    2   24      0.42      0.51
    4    2   24      1.47      0.90
    5    2   24     -0.38     -0.34
    1    3   24     -0.11      0.08
    2    3   24      0.30     -0.26
    3    3   24      0.19     -0.02
    4    3   24     -0.22      0.25
    2    0   23      0.84      0.50
    4    0   23     -0.09     -0.90
    6    0   23     -1.64      0.88
    8    0   23      2.12     -0.46
    0    1   23      0.90     -0.28
    1    1   23     -0.13     -0.22
    2    1   23     -0.43      0.22
    3    1   23      0.19      0.20
    4    1   23     -0.36      0.04
    5    1   23     -0.13     -0.02
    6    1   23      0.25     -0.30
    7    1   23      0.05     -0.09
    8    1   23      0.42      0.01
    9    1   23     -0.02     -0.01
    1    2   23      0.08     -0.13
    2    2   23      0.02      0.07
    3    2   23      0.15      0.10
    4    2   23     -0.08     -0.18
    5    2   23     -0.51      0.13
    6    2   23      0.26      0.08
    7    2   23      0.40     -0.04
    8    2   23     -0.16      0.09
    0    3   23      0.58      0.10
    1    3   23     -0.01     -0.27
    2    3   23     -0.81      0.29
    3    3   23     -0.06      0.17
    4    3   23      1.11     -0.90
    5    3   23     -0.18     -0.12
    6    3   23     -0.99      0.79
    7    3   23      0.43      0.17
    1    4   23      0.43      0.18
    2    4   23      0.19      1.60
    3    4   23     -0.91     -0.16
    4    4   23     -0.14     -2.14
    5    4   23      0.56     -0.24
    6    4   23     -0.26      1.73
    0    5   23     -1.09      1.34
    1    5   23      0.25     -0.20
    2    5   23      0.80     -1.00
    3    5   23     -0.28      0.01
    4    5   23     -0.33      0.31
    2    0   22     -1.50     -0.93
    4    0   22      0.59      0.71
    6    0   22     -0.47     -0.22
    8    0   22      0.35     -0.15
   10    0   22     -0.11      0.18
    1    1   22      0.36      0.02
    2    1   22      0.00      0.24
    3    1   22     -1.11     -0.25
    4    1   22     -0.16     -0.18
    5    1   22      1.13      0.68
    6    1   22      0.25     -0.19
    7    1   22     -0.06     -1.30
    8    1   22     -0.41      0.36
    9    1   22     -0.58      1.65
   10    1   22      0.38     -0.16
   11    1   22      0.00     -1.30
    0    2   22      2.13     -1.42
    1    2   22     -0.48      0.28
    2    2   22     -1.87      1.66
    3    2   22      0.33     -0.32
    4    2   22      1.28     -1.59
    5    2   22     -0.03      0.40
    6    2   22     -0.72      0.52
    7    2   22     -0.15     -0.38
    8    2   22      0.09      0.57
    9    2   22      0.21      0.22
   10    2   22      0.45     -0.64
   11    2   22     -0.23     -0.09
    1    3   22      0.13     -0.33
    2    3   22      0.04     -0.11
    3    3   22     -0.13      0.53
    4    3   22      0.03      0.13
    5    3   22      0.07     -0.06
    6    3   22      0.05     -0.11
    7    3   22     -0.15     -0.14
    8    3   22     -0.18      0.21
    9    3   22     -0.01     -0.15
   10    3   22      0.22     -0.26
    0    4   22      0.21      0.93
    1    4   22     -0.26     -0.12
    2    4   22     -0.43     -0.73
    3    4   22     -0.06      0.13
    4    4   22      0.51      0.43
    5    4   22      0.16     -0.06
    6    4   22      0.00     -0.55
    7    4   22     -0.12     -0.10
    8    4   22     -0.27      0.83
    9    4   22      0.07      0.17
    1    5   22      0.03     -0.36
    2    5   22     -0.11     -0.12
    4    5   22      0.20      0.09
    5    5   22     -0.21     -1.01
    6    5   22     -0.51     -0.01
    7    5   22      0.28      0.70
    0    6   22      0.03      0.38
    1    6   22     -0.01     -0.06
    2    6   22     -0.05     -0.28
    3    6   22     -0.04     -0.22
    4    6   22     -0.13      0.04
    5    6   22      0.40      0.40
    2    0   21      0.58     -0.32
    4    0   21     -0.53     -0.11
    6    0   21      0.20      1.20
    8    0   21     -0.05     -1.81
   10    0   21     -0.01      1.55
   12    0   21      0.22     -1.01
    0    1   21     -0.66     -1.95
    1    1   21     -0.16     -0.02
    2    1   21      0.53      1.02
    3    1   21     -0.42     -0.16
    4    1   21     -0.07      0.40
    5    1   21      0.85      0.38
    6    1   21     -0.31     -0.36
    7    1   21     -0.70     -0.46
    8    1   21     -0.06     -0.37
    9    1   21      0.40      0.34
   10    1   21      0.63      0.10
   11    1   21     -0.32     -0.18
   12    1   21     -0.68      0.30
   13    1   21      0.23      0.16
    1    2   21     -0.05     -0.10
    2    2   21      0.00     -0.06
    3    2   21      0.03      0.06
    4    2   21     -0.10      0.06
    5    2   21     -0.09      0.09
    6    2   21     -0.08     -0.24
    7    2   21      0.30     -0.16
    8    2   21      0.25      0.16
    9    2   21     -0.11      0.40
   10    2   21     -0.12      0.31
   11    2   21     -0.36     -0.47
   12    2   21      0.08     -0.43
    0    3   21     -0.07     -0.68
    1    3   21     -0.38     -0.18
    2    3   21      0.24      0.88
    3    3   21      0.23      0.32
    4    3   21     -0.48     -1.11
    5    3   21     -0.16      0.00
    6    3   21      0.29      0.89
    7    3   21      0.39     -0.32
    8    3   21      0.17     -0.54
    9    3   21     -0.47      0.05
   10    3   21     -0.37      0.41
   11    3   21      0.24      0.27
   12    3   21      0.34     -0.15
    1    4   21      0.77     -0.15
    2    4   21      1.23      0.76
    3    4   21     -1.41      0.47
    4    4   21     -1.86     -1.44
    5    4   21      0.65     -0.54
    6    4   21      1.70      2.02
    7    4   21      0.59      0.22
    8    4   21     -0.92     -1.84
    9    4   21     -1.47      0.15
   10    4   21      0.03      0.89
   11    4   21      1.46     -0.43
    0    5   21      0.86      1.95
    1    5   21     -0.48     -0.40
    2    5   21     -0.59     -1.58
    3    5   21     -0.17      0.47
    4    5   21     -0.06      0.86
    5    5   21      0.37     -0.20
    6    5   21      0.67     -0.57
    7    5   21      0.00     -0.57
    8    5   21     -0.59      0.81
    9    5   21     -0.24      0.86
   10    5   21     -0.10     -0.78
    1    6   21     -0.47      0.35
    2    6   21      0.21     -0.17
    3    6   21      0.70     -0.60
    4    6   21     -0.33      0.23
    5    6   21     -0.12      0.25
    6    6   21      0.26     -0.12
    7    6   21     -0.23      0.00
    8    6   21     -0.10     -0.02
    0    7   21     -0.45      0.14
    1    7   21     -0.62     -0.21
    2    7   21      0.32     -0.18
    3    7   21      0.45      0.36
    4    7   21     -0.23      0.22
    5    7   21     -0.15     -0.20
    0    0   20      3.26     -0.07
    2    0   20     -2.73      0.04
    4    0   20      1.54     -0.32
    6    0   20     -0.35      0.87
    8    0   20     -0.38     -0.95
   10    0   20      0.78      0.51
   12    0   20     -1.18      0.43
   14    0   20      1.16     -1.00
    1    1   20     -0.08     -0.10
    2    1   20      0.15      0.43
    3    1   20     -0.11      0.15
    4    1   20     -0.19     -0.05
    5    1   20      0.69      0.24
    6    1   20      0.06     -0.45
    7    1   20     -1.25     -0.77
    8    1   20     -0.01      0.58
    9    1   20      1.68      0.57
   10    1   20      0.14     -0.23
   11    1   20     -1.95      0.13
   12    1   20     -0.24     -0.47
   13    1   20      1.63     -0.53
   14    1   20      0.37      0.66
    0    2   20     -0.10     -1.35
    1    2   20     -0.61     -0.51
    2    2   20      0.44      1.23
    3    2   20      0.05      0.20
    4    2   20     -0.66     -0.86
    5    2   20      0.50     -0.10
    6    2   20      0.02      0.30
    7    2   20     -0.51      0.16
    8    2   20      0.65      0.46
    9    2   20      0.00     -0.26
   10    2   20     -0.84     -0.86
   11    2   20      0.41      0.49
   12    2   20      1.22      0.06
   13    2   20     -0.40     -0.56
   14    2   20     -1.39      0.96
    1    3   20     -0.29     -0.45
    2    3   20      0.35      0.21
    3    3   20      0.27      0.77
    4    3   20     -0.33     -0.36
    5    3   20      0.37     -0.49
    6    3   20     -0.01      0.17
    7    3   20     -0.40      0.31
    8    3   20      0.30      0.13
    9    3   20     -0.09     -0.01
   10    3   20     -0.19     -0.45
   11    3   20     -0.08     -0.37
   12    3   20     -0.18      0.84
   13    3   20      0.57      0.47
    0    4   20      1.38      0.48
    1    4   20      0.12     -0.59
    2    4   20     -1.37     -0.17
    3    4   20     -0.12      0.60
    4    4   20      1.17     -0.11
    5    4   20      0.04     -0.31
    6    4   20     -0.90     -0.36
    7    4   20      0.17      0.17
    8    4   20      0.83      0.76
    9    4   20     -0.33     -0.13
   10    4   20     -0.73     -0.43
   11    4   20      0.24     -0.15
   12    4   20      0.42      0.11
   13    4   20     -0.03      0.22
    1    5   20     -0.75     -0.49
    2    5   20     -0.01     -0.12
    3    5   20      1.80      1.07
    4    5   20      0.13      0.18
    5    5   20     -1.85     -0.82
    6    5   20     -0.24      0.15
    7    5   20      1.33      0.37
    8    5   20     -0.05     -0.48
    9    5   20     -0.86     -0.27
   10    5   20      0.51      0.11
   11    5   20      0.36      0.20
   12    5   20     -0.57      0.54
    0    6   20      0.01      0.46
    1    6   20     -0.02     -0.05
    2    6   20     -0.03     -0.19
    3    6   20     -0.41      0.12
    4    6   20     -0.21     -0.14
    5    6   20      1.02     -0.39
    6    6   20      0.70      0.20
    7    6   20     -1.18      0.58
    8    6   20     -0.91     -0.22
    9    6   20      0.72     -0.64
   10    6   20      0.53      0.19
    1    7   20     -0.52     -0.56
    2    7   20      0.58     -0.16
    3    7   20      0.82      0.61
    4    7   20     -0.79      0.53
    5    7   20     -0.02      0.46
    6    7   20      0.53     -0.82
    7    7   20     -0.60     -1.03
    8    7   20     -0.20      0.68
    0    8   20     -0.15      0.29
    1    8   20      0.37     -0.06
    2    8   20      0.25     -0.21
    3    8   20     -0.11     -0.19
    4    8   20     -0.39      0.10
    5    8   20     -0.09      0.30
    2    0   19      0.25      0.22
    4    0   19      0.16     -0.21
    6    0   19     -0.37     -0.16
    8    0   19     -0.18      0.14
   10    0   19      0.69      0.71
   12    0   19     -0.45     -1.31
   14    0   19     -0.23      0.83
    0    1   19     -2.30      1.02
    1    1   19     -0.13      0.18
    2    1   19      1.29     -0.66
    3    1   19     -0.23      0.56
    4    1   19      0.25     -0.14
    5    1   19      0.55     -0.86
    6    1   19     -0.36      0.55
    7    1   19     -0.52      0.61
    8    1   19     -0.14     -0.11
    9    1   19      0.40     -0.55
   10    1   19     -0.16     -0.37
   11    1   19     -0.28      0.60
   12    1   19      0.29      0.46
   13    1   19     -0.02     -0.26
   14    1   19      0.12     -0.53
   15    1   19      0.28     -0.02
    1    2   19      0.10     -0.05
    2    2   19     -0.17      0.00
    3    2   19     -0.12      0.19
    4    2   19      0.12      0.04
    5    2   19     -0.21     -0.18
    6    2   19     -0.16      0.18
    7    2   19      0.34     -0.09
    8    2   19     -0.04     -0.34
    9    2   19      0.20      0.07
   10    2   19      0.43      0.22
   11    2   19     -0.80      0.28
   12    2   19     -0.33     -0.16
   13    2   19      0.87     -0.54
   14    2   19      0.11      0.06
   15    2   19     -0.47      0.55
    0    3   19     -0.97      0.08
    1    3   19     -0.44     -0.38
    2    3   19      0.88     -0.01
    3    3   19      0.35      0.19
    4    3   19     -0.69     -0.11
    5    3   19      0.07      0.09
    6    3   19      0.38      0.25
    7    3   19     -0.15     -0.41
    8    3   19     -0.06     -0.36
    9    3   19     -0.41      0.29
   10    3   19     -0.07      0.43
   11    3   19      0.72      0.09
   12    3   19      0.00     -0.64
   13    3   19     -0.44      0.20
   14    3   19      0.19      0.84
   15    3   19      0.04     -0.81
    1    4   19      0.43     -0.57
    2    4   19      0.77     -0.02
    3    4   19     -0.71      1.25
    4    4   19     -1.32      0.23
    5    4   19      0.16     -1.08
    6    4   19      1.70     -0.36
    7    4   19      0.45      0.22
    8    4   19     -1.59      0.00
    9    4   19     -0.59      0.78
   10    4   19      0.92      0.74
   11    4   19      0.20     -0.96
   12    4   19     -0.33     -1.14
   13    4   19      0.30      0.21
   14    4   19      0.09      0.98
    0    5   19      0.99     -0.08
    1    5   19     -0.50      0.54
    2    5   19     -0.84     -0.05
    3    5   19      0.35      0.21
    4    5   19      0.42      0.45
    5    5   19      0.15     -0.39
    6    5   19     -0.08     -0.98
    7    5   19     -0.70     -0.21
    8    5   19      0.31      1.13
    9    5   19      0.39      0.66
   10    5   19     -0.75     -0.62
   11    5   19      0.62     -0.51
   12    5   19      0.62      0.08
   13    5   19     -0.93      0.03
    1    6   19      0.42      0.55
    2    6   19      0.15     -0.33
    3    6   19     -0.89     -0.82
    4    6   19     -0.02      0.62
    5    6   19      0.67      0.27
    6    6   19     -0.32     -0.56
    7    6   19     -0.38     -0.06
    8    6   19      0.54      0.23
    9    6   19      0.44      0.19
   10    6   19     -0.47     -0.14
   11    6   19     -0.47     -0.17
   12    6   19      0.24      0.23
    0    7   19     -1.03      0.48
    1    7   19     -0.20      0.40
    2    7   19      0.81     -0.43
    3    7   19      0.23     -0.23
    4    7   19     -0.33      0.40
    5    7   19     -0.16      0.02
    6    7   19     -0.13     -0.31
    7    7   19      0.14     -0.04
    8    7   19      0.35     -0.15
    9    7   19     -0.17      0.18
   10    7   19     -0.24      0.64
    1    8   19      0.23      0.01
    2    8   19      0.13     -0.98
    3    8   19      0.01      0.05
    4    8   19      0.12      0.13
    5    8   19     -0.77     -0.37
    6    8   19     -0.42      1.21
    7    8   19      0.76      0.71
    8    8   19      0.42     -1.14
    0    9   19      0.61     -0.17
    1    9   19     -0.43      0.41
    2    9   19     -0.61      0.00
    3    9   19      0.19      0.02
    4    9   19      0.45      0.25
    0    0   18      1.41     -3.93
    2    0   18     -1.08      3.34
    4    0   18      0.33     -2.05
    6    0   18      0.42      0.82
    8    0   18     -0.92     -0.12
   10    0   18      0.90     -0.32
   12    0   18      0.16      1.22
   14    0   18     -0.85     -1.98
   16    0   18     -0.06      1.62
    1    1   18     -0.05      0.30
    2    1   18      0.35      0.16
    3    1   18     -0.06     -0.41
    4    1   18     -0.19     -0.04
    5    1   18      0.28     -0.14
    6    1   18      0.06     -0.22
    7    1   18     -0.13      0.80
    8    1   18     -0.04      0.37
    9    1   18      0.02     -1.29
   10    1   18      0.07     -0.42
   11    1   18     -0.57      1.60
   12    1   18     -0.39      0.47
   13    1   18      0.82     -1.53
   14    1   18      0.48     -0.58
   15    1   18     -0.13      0.85
   16    1   18      0.13      0.52
   17    1   18     -0.27     -0.08
    0    2   18     -0.47     -0.60
    1    2   18     -1.47      0.50
    2    2   18      0.28      0.42
    3    2   18      0.48     -0.15
    4    2   18      0.03     -0.12
    5    2   18      0.31     -0.18
    6    2   18     -0.10     -0.05
    7    2   18     -0.34      0.17
    8    2   18      0.14      0.06
    9    2   18     -0.26      0.25
   10    2   18     -0.29      0.43
   11    2   18      1.05     -0.66
   12    2   18     -0.04     -1.28
   13    2   18     -1.07      0.67
   14    2   18      0.78      1.33
   15    2   18     -0.09     -0.48
   16    2   18     -0.90     -0.31
    1    3   18     -0.43     -0.21
    2    3   18      0.51     -0.18
    3    3   18      0.72      0.71
    4    3   18     -0.79      0.13
    5    3   18     -0.45     -1.02
    6    3   18      0.54      0.12
    7    3   18      0.42      0.69
    8    3   18     -0.15     -0.19
    9    3   18     -0.20     -0.19
   10    3   18     -0.26     -0.25
   11    3   18     -0.50      0.12
   12    3   18      0.65      0.74
   13    3   18      0.72     -0.30
   14    3   18     -0.25     -0.59
   15    3   18     -0.10      0.32
   16    3   18     -0.35      0.20
    0    4   18      0.33     -0.52
    1    4   18     -0.45      0.06
    2    4   18     -0.36      0.75
    3    4   18      0.52      0.03
    4    4   18      0.39     -0.88
    5    4   18     -0.25     -0.09
    6    4   18     -0.50      0.42
    7    4   18      0.16     -0.08
    8    4   18      0.55      0.10
    9    4   18     -0.31      0.41
   10    4   18     -0.51     -0.19
   11    4   18      0.10     -0.52
   12    4   18      0.78      0.18
   13    4   18      0.11      0.22
   14    4   18     -0.96     -0.30
   15    4   18     -0.07      0.18
    1    5   18     -0.81      0.46
    2    5   18     -0.07     -0.07
    3    5   18      1.98     -1.19
    4    5   18      0.37      0.08
    5    5   18     -1.94      1.49
    6    5   18     -0.40     -0.15
    7    5   18      1.21     -1.45
    8    5   18      0.01      0.41
    9    5   18     -0.73      0.95
   10    5   18      0.03     -0.71
   11    5   18      0.29     -0.02
   12    5   18      0.53      0.84
   13    5   18      0.37     -0.54
   14    5   18     -0.91     -0.75
    0    6   18     -0.22      1.05
    1    6   18      0.02     -0.21
    2    6   18      0.36     -0.64
    3    6   18     -0.05      0.49
    4    6   18     -0.68      0.20
    5    6   18      0.30     -1.11
    6    6   18      0.98     -0.42
    7    6   18     -0.48      1.72
    8    6   18     -0.92      0.75
    9    6   18      0.09     -1.69
   10    6   18      0.54     -0.58
   11    6   18      0.41      0.85
   12    6   18     -0.27      0.25
   13    6   18     -0.13      0.07
    1    7   18     -0.71      0.46
    2    7   18      0.08     -0.12
    3    7   18      1.08     -0.94
    4    7   18     -0.20      0.55
    5    7   18     -0.18      0.40
    6    7   18      0.01     -0.89
    7    7   18     -0.51      0.47
    8    7   18      0.21      0.68
    9    7   18      0.45     -0.74
   10    7   18      0.00     -0.24
   11    7   18     -0.15      0.40
   12    7   18     -0.33      0.00
    0    8   18      0.80      0.72
    1    8   18     -0.05     -0.02
    2    8   18     -0.65     -0.59
    3    8   18     -0.17     -0.01
    4    8   18      0.48      0.50
    5    8   18      0.48     -0.03
    6    8   18     -0.41     -0.49
    7    8   18     -0.42      0.09
    8    8   18      0.32      0.36
    9    8   18      0.06     -0.06
   10    8   18     -0.36     -0.28
    1    9   18     -0.29      0.15
    2    9   18      0.00     -0.09
    3    9   18      0.80     -0.10
    4    9   18     -0.11      0.05
    5    9   18     -1.08     -0.39
    6    9   18      0.09     -0.14
    7    9   18      0.96      0.54
    0   10   18     -0.03     -0.98
    1   10   18      0.81     -0.15
    2   10   18      0.13      0.45
    2    0   17      0.63     -0.23
    4    0   17     -0.51     -0.28
    6    0   17     -0.19      0.67
    8    0   17      0.12     -0.44
   10    0   17      0.67      0.58
   12    0   17     -0.58     -1.25
   14    0   17     -0.17      1.35
   16    0   17     -0.02     -0.78
   18    0   17      0.69      0.16
    0    1   17      0.23      1.88
    1    1   17     -0.18     -0.04
    2    1   17      0.17     -1.01
    3    1   17      0.37     -0.04
    4    1   17     -0.68     -0.39
    5    1   17     -0.11      0.19
    6    1   17      0.58      0.60
    7    1   17     -0.06     -0.20
    8    1   17     -0.24     -0.17
    9    1   17     -0.35     -0.17
   10    1   17      0.27      0.24
   11    1   17      0.66      0.23
   12    1   17     -0.25     -0.19
   13    1   17     -0.38      0.61
   14    1   17     -0.35     -0.11
   15    1   17     -0.11     -1.28
   16    1   17      1.04     -0.05
   17    1   17      0.48      1.14
   18    1   17     -1.17      0.11
    1    2   17     -0.07     -0.24
    2    2   17      0.00      0.35
    3    2   17      0.19      0.44
    4    2   17      0.13     -0.19
    5    2   17     -0.33     -0.18
    6    2   17      0.00     -0.11
    7    2   17      0.30     -0.12
    8    2   17     -0.32      0.38
    9    2   17     -0.12     -0.02
   10    2   17      0.27     -0.39
   11    2   17      0.06      0.56
   12    2   17      0.09      0.02
   13    2   17     -0.29     -1.18
   14    2   17     -0.33     -0.03
   15    2   17      0.44      1.11
   16    2   17      0.26      0.22
   17    2   17     -0.02     -0.13
    0    3   17     -0.04      1.50
    1    3   17     -0.35      0.04
    2    3   17      0.16     -1.25
    3    3   17      0.29      0.02
    4    3   17     -0.38      0.80
    5    3   17     -0.19     -0.21
    6    3   17      0.55     -0.38
    7    3   17      0.04      0.05
    8    3   17     -0.42     -0.08
    9    3   17     -0.05      0.43
   10    3   17      0.13      0.34
   11    3   17      0.17     -0.63
   12    3   17     -0.44     -0.15
   13    3   17      0.04      0.62
   14    3   17      1.21     -0.09
   15    3   17     -0.42     -0.56
   16    3   17     -1.31      0.05
   17    3   17      0.29      0.27
    1    4   17     -0.03     -0.18
    2    4   17      0.51     -0.19
    3    4   17      0.23      0.33
    4    4   17     -0.39      0.16
    5    4   17     -0.63     -0.06
    6    4   17     -0.12     -0.08
    7    4   17      0.72     -0.31
    8    4   17      0.06      0.04
    9    4   17     -0.42      0.36
   10    4   17      0.75      0.04
   11    4   17      0.42      0.15
   12    4   17     -1.40     -0.20
   13    4   17     -0.54     -1.08
   14    4   17      1.46      0.34
   15    4   17      0.00      1.49
   16    4   17     -1.01     -0.11
    0    5   17      0.03      0.67
    1    5   17     -0.04     -0.05
    2    5   17     -0.09     -0.53
    3    5   17      0.43      0.10
    4    5   17      0.23      0.30
    5    5   17     -0.23     -0.37
    6    5   17     -0.44     -0.36
    7    5   17     -0.31      0.44
    8    5   17      0.58      0.24
    9    5   17      0.33      0.14
   10    5   17     -0.51      0.41
   11    5   17      0.05     -0.82
   12    5   17      0.22     -0.62
   13    5   17     -0.29      0.74
   14    5   17      0.26      0.13
   15    5   17      0.16     -0.33
    1    6   17      0.43     -0.17
    2    6   17      0.00     -0.37
    3    6   17     -0.75      0.63
    4    6   17      0.36      0.36
    5    6   17      0.57     -0.73
    6    6   17     -0.56      0.15
    7    6   17     -0.68      0.45
    8    6   17      0.38     -0.65
    9    6   17      0.85     -0.56
   10    6   17     -0.23      0.64
   11    6   17     -0.53      0.89
   12    6   17      0.14     -0.29
   13    6   17     -0.02     -0.79
   14    6   17      0.10     -0.02
    0    7   17     -0.86      1.42
    1    7   17      0.12     -0.45
    2    7   17      0.53     -1.32
    3    7   17     -0.21      0.40
    4    7   17      0.12      0.82
    5    7   17      0.16     -0.10
    6    7   17     -0.40     -0.06
    7    7   17     -0.10     -0.42
    8    7   17     -0.07     -0.47
    9    7   17      0.02      0.76
   10    7   17      0.61      0.72
   11    7   17      0.32     -0.51
   12    7   17     -0.39     -0.75
   13    7   17     -0.54      0.11
    1    8   17      0.32     -0.47
    2    8   17     -0.56     -0.64
    3    8   17     -0.21      0.69
    4    8   17      0.07      0.12
    5    8   17     -0.69     -0.12
    6    8   17      0.53      0.56
    7    8   17      0.97     -0.24
    8    8   17     -0.29     -0.56
    9    8   17     -0.47      0.24
   10    8   17     -0.12      0.31
   11    8   17      0.19     -0.36
   12    8   17      0.00     -0.19
    0    9   17      0.36     -1.57
    1    9   17      0.39      0.22
    2    9   17     -0.48      1.27
    3    9   17      0.03     -0.02
    4    9   17      0.52     -0.58
    5    9   17     -0.23      0.03
    6    9   17     -0.21      0.25
    7    9   17      0.15      0.05
    8    9   17     -0.07     -0.34
    9    9   17     -0.11     -0.13
    1   10   17     -0.04     -0.03
    2   10   17     -0.02     -0.25
    3   10   17      0.00     -0.17
    4   10   17      0.10      0.04
    5   10   17      0.16      0.32
    6   10   17     -0.20      0.07
    0    0   16     -4.79      0.12
    2    0   16      4.14     -0.03
    4    0   16     -2.91     -0.41
    6    0   16      1.81      0.65
    8    0   16     -1.12     -0.12
   10    0   16      0.92     -0.34
   12    0   16     -0.33     -0.05
   14    0   16     -0.88     -0.03
   16    0   16      1.53      0.95
   18    0   16     -1.18     -0.78
    1    1   16      0.29      0.26
    2    1   16     -0.02     -0.03
    3    1   16     -0.40     -0.27
    4    1   16      0.08      0.02
    5    1   16     -0.06      0.07
    6    1   16     -0.11     -0.18
    7    1   16      0.48     -0.25
    8    1   16      0.08      0.23
    9    1   16     -0.57     -0.03
   10    1   16     -0.17     -0.06
   11    1   16      0.38      1.09
   12    1   16      0.42      0.23
   13    1   16     -0.20     -1.40
   14    1   16     -0.64     -0.39
   15    1   16     -0.07      0.52
   16    1   16      0.82     -0.29
   17    1   16      0.61      0.14
   18    1   16     -0.91      0.99
    0    2   16     -0.23      0.21
    1    2   16     -0.08      0.42
    2    2   16      0.12      0.11
    3    2   16     -0.01      0.06
    4    2   16      0.12     -0.39
    5    2   16      0.13     -0.37
    6    2   16     -0.27     -0.20
    7    2   16     -0.23      0.30
    8    2   16     -0.02      0.86
    9    2   16      0.50      0.16
   10    2   16      0.72     -0.74
   11    2   16     -0.79     -0.93
   12    2   16     -0.93      0.84
   13    2   16      0.84      1.07
   14    2   16      0.34     -1.73
   15    2   16     -0.91      0.11
   16    2   16      0.21      1.97
   17    2   16      0.83     -1.07
   18    2   16     -0.17     -0.93
    1    3   16     -0.27      0.19
    2    3   16      0.14     -0.31
    3    3   16      0.69     -0.29
    4    3   16     -0.08      0.51
    5    3   16     -0.80      0.20
    6    3   16      0.02     -0.42
    7    3   16      0.67     -0.32
    8    3   16     -0.08      0.26
    9    3   16     -0.44      0.17
   10    3   16     -0.15     -0.12
   11    3   16      0.16      0.34
   12    3   16      0.40      0.02
   13    3   16     -0.24     -0.27
   14    3   16     -0.11     -0.30
   15    3   16      0.67     -0.54
   16    3   16      0.00      0.29
   17    3   16     -0.52      0.93
   18    3   16     -0.38      0.29
    0    4   16     -0.32      0.20
    1    4   16      0.13      0.26
    2    4   16      0.31      0.06
    3    4   16     -0.03     -0.41
    4    4   16     -0.22     -0.20
    5    4   16     -0.14      0.00
    6    4   16     -0.06     -0.14
    7    4   16      0.23      0.43
    8    4   16      0.33      0.46
    9    4   16     -0.05     -0.17
   10    4   16     -0.49     -0.23
   11    4   16     -0.19     -0.18
   12    4   16      0.82     -0.50
   13    4   16      0.11      0.08
   14    4   16     -1.02      0.96
   15    4   16      0.07      0.19
   16    4   16      0.36     -0.55
   17    4   16     -0.14     -0.20
    1    5   16      0.13      0.40
    2    5   16     -0.05     -0.19
    3    5   16     -0.20     -1.21
    4    5   16      0.14      0.08
    5    5   16      0.31      1.52
    6    5   16     -0.35     -0.01
    7    5   16     -0.75     -1.21
    8    5   16      0.39      0.17
    9    5   16      0.72      0.77
   10    5   16     -0.22     -0.19
   11    5   16      0.04     -0.06
   12    5   16      0.32     -0.18
   13    5   16     -0.35     -1.12
   14    5   16     -0.44      0.68
   15    5   16     -0.09      1.83
   16    5   16      0.10     -0.63
    0    6   16     -0.09      0.80
    1    6   16     -0.71     -0.36
    2    6   16      0.31     -0.53
    3    6   16      0.65      0.43
    4    6   16     -0.40      0.32
    5    6   16     -0.43     -0.83
    6    6   16     -0.05     -0.59
    7    6   16      0.63      1.19
    8    6   16      0.37      0.67
    9    6   16     -1.11     -0.84
   10    6   16     -0.10     -0.50
   11    6   16      0.94      0.08
   12    6   16     -0.13      0.99
   13    6   16     -0.17     -0.01
   14    6   16     -0.40     -1.53
   15    6   16     -0.44      0.46
   16    6   16      1.04      1.10
    1    7   16      0.33      0.53
    2    7   16      0.11     -0.25
    3    7   16     -0.77     -1.06
    4    7   16      0.12      0.85
    5    7   16      0.37      0.85
    6    7   16     -0.64     -1.11
    7    7   16      0.64     -0.34
    8    7   16      0.80      0.85
    9    7   16     -0.96     -0.13
   10    7   16     -0.43     -0.50
   11    7   16      0.49      0.38
   12    7   16      0.10      0.21
   13    7   16     -0.28     -0.55
   14    7   16      0.03     -0.03
    0    8   16      1.12     -0.79
    1    8   16      0.17      0.19
    2    8   16     -0.64      0.68
    3    8   16      0.00      0.03
    4    8   16      0.13     -0.58
    5    8   16     -0.09     -0.46
    6    8   16     -0.24      0.44
    7    8   16      0.01      0.44
    8    8   16      0.41     -0.21
    9    8   16      0.08     -0.07
   10    8   16     -0.64      0.27
   11    8   16     -0.15      0.11
   12    8   16      0.93     -0.49
   13    8   16      0.12     -0.25
    1    9   16      0.13      0.40
    2    9   16      0.09      0.03
    3    9   16     -0.10     -0.83
    4    9   16     -0.10      0.15
    5    9   16     -0.35      0.93
    6    9   16     -0.12     -0.20
    7    9   16      0.50     -0.98
    8    9   16      0.53     -0.19
    9    9   16      0.11      0.56
   10    9   16     -0.46      0.50
   11    9   16     -0.59      0.13
    0   10   16     -0.78      0.67
    1   10   16      0.52     -1.38
    2   10   16      0.39     -0.76
    3   10   16      0.27      0.80
    4   10   16      0.00      0.81
    5   10   16     -0.46      0.01
    6   10   16      0.31     -0.65
    7   10   16     -0.49     -0.05
    8   10   16     -0.68      0.44
    1   11   16      0.33      0.12
    2   11   16      0.22      0.44
    3   11   16     -0.55     -0.26
    2    0   15     -0.32      0.09
    4    0   15      0.15     -0.03
    6    0   15      0.00     -0.11
    8    0   15      0.04      0.38
   10    0   15      0.39      0.01
   12    0   15     -1.03     -1.42
   14    0   15      1.10      1.96
   16    0   15     -0.89     -0.47
   18    0   15      0.51     -0.95
    0    1   15      1.18      0.34
    1    1   15     -0.81      0.27
    2    1   15     -0.45     -0.65
    3    1   15      0.29     -0.41
    4    1   15     -0.77      0.73
    5    1   15      0.41      0.20
    6    1   15      1.00     -0.28
    7    1   15     -0.74     -0.05
    8    1   15     -0.42      0.37
    9    1   15      0.44      0.22
   10    1   15      0.02     -0.91
   11    1   15     -0.28     -0.45
   12    1   15      0.25      0.73
   13    1   15      0.84      0.63
   14    1   15     -0.52      0.19
   15    1   15     -1.51     -0.45
   16    1   15      0.55     -0.92
   17    1   15      1.97     -0.27
   18    1   15     -0.58      1.01
   19    1   15     -2.00      0.85
    1    2   15     -0.30      0.29
    2    2   15      0.47     -0.14
    3    2   15      0.67     -0.50
    4    2   15     -0.22      0.03
    5    2   15     -0.67      0.48
    6    2   15     -0.33      0.02
    7    2   15      0.41     -0.56
    8    2   15      0.53      0.16
    9    2   15     -0.14      0.36
   10    2   15     -0.26     -0.07
   11    2   15      0.20     -0.05
   12    2   15      0.01     -0.32
   13    2   15     -0.65      0.14
   14    2   15     -0.21      0.29
   15    2   15      0.75     -0.23
   16    2   15      0.30      0.07
   17    2   15     -0.11     -0.24
   18    2   15     -0.07     -0.19
   19    2   15     -0.24      0.62
    0    3   15      1.11      0.49
    1    3   15      0.23     -0.67
    2    3   15     -0.91     -0.63
    3    3   15      0.11      0.22
    4    3   15      0.63      0.83
    5    3   15     -0.42      0.22
    6    3   15     -0.42     -0.92
    7    3   15      0.40     -0.24
    8    3   15      0.13      0.61
    9    3   15     -0.13     -0.12
   10    3   15      0.14      0.03
   11    3   15     -0.14      0.27
   12    3   15     -0.37     -0.08
   13    3   15      0.30      0.04
   14    3   15      0.79     -0.51
   15    3   15     -0.31     -0.22
   16    3   15     -1.08      0.69
   17    3   15      0.02      0.18
   18    3   15      0.67     -0.30
   19    3   15      0.28     -0.33
    1    4   15      0.08      0.13
    2    4   15     -0.02     -0.35
    3    4   15     -0.06     -0.32
    4    4   15     -0.15      0.28
    5    4   15     -0.04      0.49
    6    4   15      0.49      0.26
    7    4   15     -0.10     -0.57
    8    4   15     -0.75     -0.45
    9    4   15      0.09      0.53
   10    4   15      0.59     -0.06
   11    4   15      0.61     -0.49
   12    4   15     -0.21      0.65
   13    4   15     -1.53     -0.04
   14    4   15      0.08     -1.03
   15    4   15      1.27      1.20
   16    4   15      0.20      0.78
   17    4   15      0.23     -1.74
   18    4   15     -0.62      0.29
    0    5   15      1.33      0.55
    1    5   15     -0.76      0.24
    2    5   15     -1.03     -0.44
    3    5   15      0.62     -0.58
    4    5   15      0.41      0.15
    5    5   15     -0.46      0.29
    6    5   15     -0.15      0.04
    7    5   15      0.09      0.22
    8    5   15     -0.04      0.10
    9    5   15      0.41     -0.01
   10    5   15      0.71     -0.20
   11    5   15     -0.55     -0.50
   12    5   15     -0.98      0.18
   13    5   15      0.26      0.69
   14    5   15      0.45     -0.52
   15    5   15     -0.19     -0.45
   16    5   15     -0.05      0.82
   17    5   15      0.24      0.00
    1    6   15      0.11      0.08
    2    6   15      0.02      0.07
    3    6   15      0.17      0.03
    4    6   15      0.06     -0.31
    5    6   15     -0.44     -0.52
    6    6   15     -0.02      0.35
    7    6   15      0.17      1.00
    8    6   15     -0.14     -0.22
    9    6   15     -0.26     -1.15
   10    6   15      0.20      0.16
   11    6   15      0.89      0.81
   12    6   15     -0.14     -0.13
   13    6   15     -1.08     -0.27
   14    6   15      0.06      0.09
   15    6   15      0.74      0.26
   16    6   15     -0.06     -0.05
    0    7   15      0.86      1.78
    1    7   15     -0.75      0.01
    2    7   15     -0.99     -1.31
    3    7   15      0.65      0.26
    4    7   15      0.85      0.34
    5    7   15     -0.18     -0.19
    6    7   15     -0.28      0.19
    7    7   15     -0.50     -0.02
    8    7   15     -0.09      0.10
    9    7   15      0.89      0.17
   10    7   15      0.35     -0.34
   11    7   15     -0.55     -0.54
   12    7   15     -0.68     -0.06
   13    7   15     -0.10      0.79
   14    7   15      0.51      0.45
   15    7   15      0.28     -0.61
    1    8   15     -0.37     -0.43
    2    8   15     -0.14     -0.38
    3    8   15      0.83      0.52
    4    8   15      0.03     -0.02
    5    8   15     -0.74      0.07
    6    8   15     -0.34      0.71
    7    8   15      0.16     -0.04
    8    8   15      0.52     -0.67
    9    8   15      0.65     -0.20
   10    8   15      0.03     -0.11
   11    8   15     -1.41     -0.30
   12    8   15     -0.53      0.66
   13    8   15      1.69      0.69
   14    8   15      0.42     -0.35
    0    9   15     -0.94     -0.94
    1    9   15     -0.24     -0.13
    2    9   15      0.76      0.78
    3    9   15      0.21     -0.14
    4    9   15     -0.31     -0.35
    5    9   15      0.08      0.27
    6    9   15      0.14      0.07
    7    9   15      0.05     -0.29
    8    9   15     -0.31     -0.14
    9    9   15     -0.35      0.27
   10    9   15      0.09      0.12
   11    9   15      0.11     -0.14
   12    9   15      0.39      0.10
    1   10   15     -0.26      0.07
    2   10   15     -0.19     -0.08
    3   10   15      0.38     -0.06
    4   10   15     -0.08      0.04
    5   10   15     -0.41     -0.07
    6   10   15      0.26      0.21
    7   10   15      0.69     -0.05
    8   10   15     -0.13     -0.25
    9   10   15     -0.51      0.36
   10   10   15      0.07     -0.02
    0   11   15     -0.12     -0.73
    1   11   15      0.10      0.13
    2   11   15      0.47      0.46
    3   11   15     -0.03      0.02
    4   11   15     -0.66     -0.08
    5   11   15     -0.30     -0.18
    6   11   15      0.29      0.10
    0    0   14      1.13      6.87
    2    0   14     -0.47     -6.11
    4    0   14     -1.35      4.83
    6    0   14      2.52     -3.72
    8    0   14     -1.80      2.41
   10    0   14      0.80     -1.71
   12    0   14     -0.65      1.86
   14    0   14      0.10     -1.35
   16    0   14      0.80     -0.18
   18    0   14     -0.62      1.02
    1    1   14      0.33      0.15
    2    1   14     -0.27     -0.08
    3    1   14     -0.32     -0.43
    4    1   14      0.20     -0.04
    5    1   14      0.01      0.43
    6    1   14      0.10      0.10
    7    1   14     -0.04     -0.06
    8    1   14     -0.37      0.11
    9    1   14     -0.42     -0.13
   10    1   14      0.31     -0.29
   11    1   14      1.19      0.02
   12    1   14      0.23      0.23
   13    1   14     -0.95     -0.17
   14    1   14     -0.60     -0.01
   15    1   14      0.00      0.91
   16    1   14     -0.04     -0.49
   17    1   14      0.40     -1.54
   18    1   14      0.88      1.08
   19    1   14     -0.21      1.16
   20    1   14     -0.67     -1.07
    0    2   14      0.17     -0.33
    1    2   14     -0.35     -0.92
    2    2   14      0.06      0.34
    3    2   14      0.16      0.75
    4    2   14     -0.18     -0.34
    5    2   14      0.05     -0.38
    6    2   14     -0.42     -0.01
    7    2   14     -0.09      0.19
    8    2   14      0.77      0.79
    9    2   14      0.16     -0.60
   10    2   14     -0.38     -1.35
   11    2   14     -0.55      1.12
   12    2   14      0.80      1.16
   13    2   14      0.83     -1.04
   14    2   14     -2.22     -0.70
   15    2   14     -0.25      0.61
   16    2   14      2.31      0.46
   17    2   14     -0.36     -0.14
   18    2   14     -0.56     -0.28
   19    2   14      0.07     -0.18
   20    2   14     -0.82      0.16
    1    3   14      0.09      0.02
    2    3   14      0.15     -0.32
    3    3   14     -0.03     -0.09
    4    3   14      0.00      0.03
    5    3   14     -0.16      0.28
    6    3   14     -0.24      0.17
    7    3   14      0.10     -0.41
    8    3   14      0.25      0.26
    9    3   14      0.01      0.21
   10    3   14     -0.09     -0.62
   11    3   14      0.08     -0.08
   12    3   14     -0.01      0.45
   13    3   14     -0.01      0.57
   14    3   14     -0.09     -0.09
   15    3   14     -0.27     -0.95
   16    3   14     -0.16     -0.62
   17    3   14      0.28      0.27
   18    3   14      0.71      1.12
   19    3   14      0.14      0.57
    0    4   14      0.03      0.07
    1    4   14      0.28      0.25
    2    4   14      0.03      0.08
    3    4   14     -0.32     -0.11
    4    4   14      0.17     -0.14
    5    4   14     -0.27      0.09
    6    4   14     -0.58     -0.17
    7    4   14      1.01     -0.27
    8    4   14      0.66      0.51
    9    4   14     -0.73      0.28
   10    4   14     -0.33     -0.33
   11    4   14     -0.08     -0.11
   12    4   14     -0.02     -0.30
   13    4   14      0.26     -0.04
   14    4   14      0.16      0.65
   15    4   14      0.03      0.30
   16    4   14     -0.21     -0.23
   17    4   14     -0.12     -0.38
   18    4   14      0.17     -0.26
   19    4   14      0.10      0.06
    1    5   14      0.20     -0.22
    2    5   14      0.06      0.05
    3    5   14     -0.52      0.18
    4    5   14      0.08      0.13
    5    5   14      0.52      0.12
    6    5   14     -0.42     -0.12
    7    5   14     -0.42      0.18
    8    5   14      0.46      0.11
    9    5   14      0.43     -0.50
   10    5   14     -0.13     -0.30
   11    5   14     -0.16      0.22
   12    5   14     -0.23      0.26
   13    5   14     -0.79     -0.24
   14    5   14      0.74     -0.10
   15    5   14      1.59      0.60
   16    5   14     -0.97      0.19
   17    5   14     -1.09     -0.35
   18    5   14      0.50     -0.25
    0    6   14     -0.69      1.46
    1    6   14     -0.67      0.90
    2    6   14      0.94     -1.28
    3    6   14      0.68     -0.63
    4    6   14     -0.84      0.61
    5    6   14     -0.55     -0.28
    6    6   14     -0.02      0.28
    7    6   14      0.46      0.78
    8    6   14      0.44     -0.56
    9    6   14     -0.52     -0.26
   10    6   14     -0.45     -0.10
   11    6   14      0.48     -0.28
   12    6   14      1.54      0.85
   13    6   14     -0.55      0.02
   14    6   14     -2.77     -0.31
   15    6   14      0.68      0.78
   16    6   14      2.08     -1.20
   17    6   14     -0.40     -1.38
    1    7   14      0.45     -0.02
    2    7   14     -0.78     -0.27
    3    7   14     -0.99      0.12
    4    7   14      1.29      0.22
    5    7   14      0.91      0.18
    6    7   14     -1.43      0.22
    7    7   14     -0.36     -0.75
    8    7   14      1.39     -0.52
    9    7   14     -0.18      0.62
   10    7   14     -0.95      0.42
   11    7   14      0.47     -0.23
   12    7   14      0.10     -0.26
   13    7   14     -0.84      0.39
   14    7   14      0.40      0.06
   15    7   14      0.95     -0.48
   16    7   14     -0.46      0.21
    0    8   14      0.31     -0.82
    1    8   14     -0.27     -0.08
    2    8   14     -0.01      0.24
    3    8   14      0.08      0.08
    4    8   14     -0.52      0.27
    5    8   14     -0.04     -0.04
    6    8   14      0.44      0.02
    7    8   14     -0.06      0.04
    8    8   14      0.13     -0.29
    9    8   14      0.13     -0.15
   10    8   14     -0.24      0.60
   11    8   14      0.11      0.38
   12    8   14     -0.06     -0.99
   13    8   14     -0.16     -0.52
   14    8   14      0.13      0.69
   15    8   14     -0.08      0.30
    1    9   14      0.20     -0.05
    2    9   14      0.21     -0.34
    3    9   14     -0.45      0.15
    4    9   14     -0.17      0.32
    5    9   14      0.74     -0.02
    6    9   14      0.18     -0.10
    7    9   14     -1.09     -0.21
    8    9   14     -0.52     -0.26
    9    9   14      0.66      0.09
   10    9   14      0.70      0.42
   11    9   14      0.27     -0.07
   12    9   14     -0.40     -0.21
   13    9   14     -0.59      0.36
    0   10   14      0.96      1.38
    1   10   14     -1.17     -1.43
    2   10   14     -0.70     -1.03
    3   10   14      0.92      0.44
    4   10   14      0.37      0.57
    5   10   14     -0.16      0.22
    6   10   14     -0.60     -0.65
    7   10   14     -0.24      0.38
    8   10   14      0.96      0.87
    9   10   14      0.03     -1.04
   10   10   14     -0.45     -0.51
   11   10   14      0.02      0.78
    1   11   14      0.49      0.24
    2   11   14      0.15      0.31
    3   11   14     -0.90     -0.44
    4   11   14     -0.46      0.15
    5   11   14      0.19     -0.11
    6   11   14      0.16     -0.86
    7   11   14      0.74      1.00
    8   11   14      0.32      0.70
    0   12   14      0.60      0.41
    1   12   14      0.28     -0.17
    2   12   14     -0.55     -0.06
    2    0   13      0.43      0.35
    4    0   13     -0.43     -0.32
    6    0   13     -0.05      0.29
    8    0   13      0.34     -0.47
   10    0   13      0.24      0.56
   12    0   13     -1.25     -0.39
   14    0   13      1.51     -0.03
   16    0   13     -0.56      0.61
   18    0   13     -0.50     -0.58
   20    0   13      0.41     -0.30
    0    1   13     -0.02     -2.34
    1    1   13     -0.31     -0.24
    2    1   13     -0.20      1.59
    3    1   13     -0.06      0.09
    4    1   13      0.13     -0.08
    5    1   13      0.48     -0.11
    6    1   13      0.19     -0.85
    7    1   13     -0.76      0.42
    8    1   13      0.35      0.64
    9    1   13      0.88     -0.83
   10    1   13     -1.06      0.05
   11    1   13     -0.91      0.94
   12    1   13      0.83     -0.58
   13    1   13      0.88     -0.63
   14    1   13     -0.37      0.81
   15    1   13     -0.84      0.50
   16    1   13      0.36     -0.78
   17    1   13      0.71     -1.32
   18    1   13     -0.27      0.62
   19    1   13     -0.27      2.22
   20    1   13     -0.03     -0.30
   21    1   13     -0.20     -1.68
    1    2   13      0.34      0.47
    2    2   13     -0.26     -0.76
    3    2   13     -0.47     -1.04
    4    2   13      0.36      0.86
    5    2   13      0.33      1.00
    6    2   13     -0.33     -0.24
    7    2   13     -0.66     -0.54
    8    2   13      0.16     -0.28
    9    2   13      0.68      0.04
   10    2   13      0.16      0.27
   11    2   13     -0.24      0.16
   12    2   13     -0.30     -0.14
   13    2   13      0.23     -0.03
   14    2   13      0.02      0.09
   15    2   13     -0.38     -0.23
   16    2   13      0.20     -0.01
   17    2   13     -0.05      0.51
   18    2   13     -0.23      0.19
   19    2   13      0.52     -0.83
   20    2   13      0.23     -0.68
    0    3   13      0.58     -0.02
    1    3   13     -0.51     -0.49
    2    3   13     -0.56     -0.25
    3    3   13      0.35      0.10
    4    3   13      0.48      0.51
    5    3   13     -0.24      0.21
    6    3   13     -0.50     -0.36
    7    3   13      0.32     -0.50
    8    3   13      0.53      0.01
    9    3   13     -0.55      0.66
   10    3   13     -0.14      0.08
   11    3   13      0.49     -0.38
   12    3   13     -0.49      0.39
   13    3   13     -0.04     -0.02
   14    3   13      0.86     -1.00
   15    3   13      0.05      0.20
   16    3   13     -0.69      0.99
   17    3   13     -0.34     -0.06
   18    3   13      0.08     -0.39
   19    3   13      0.07     -0.21
   20    3   13      0.28      0.12
    1    4   13      0.31      0.04
    2    4   13     -0.15      0.21
    3    4   13     -0.54     -0.30
    4    4   13      0.28     -0.11
    5    4   13      0.26      0.53
    6    4   13     -0.02     -0.38
    7    4   13     -0.12     -0.18
    8    4   13     -0.31      0.83
    9    4   13      0.16     -0.24
   10    4   13      0.18     -0.45
   11    4   13      0.10     -0.11
   12    4   13      0.25     -0.41
   13    4   13     -0.57      0.76
   14    4   13     -0.82      0.51
   15    4   13      0.64     -0.26
   16    4   13      0.87     -0.22
   17    4   13     -0.36     -1.16
   18    4   13     -0.04      0.36
   19    4   13      0.31      1.42
   20    4   13     -0.35     -0.23
    0    5   13      1.72     -0.68
    1    5   13     -0.04      0.34
    2    5   13     -1.38      0.47
    3    5   13     -0.36     -0.45
    4    5   13      0.62     -0.14
    5    5   13      0.22      0.38
    6    5   13     -0.09      0.06
    7    5   13      0.23      0.08
    8    5   13      0.25      0.31
    9    5   13     -0.07     -0.56
   10    5   13     -0.49     -1.14
   11    5   13     -0.46      0.52
   12    5   13      0.24      1.29
   13    5   13      0.76     -0.04
   14    5   13     -0.29     -0.64
   15    5   13     -0.67     -0.08
   16    5   13      0.94      0.19
   17    5   13      0.11     -0.06
   18    5   13     -1.10      0.05
   19    5   13      0.35     -0.19
    1    6   13      0.39      0.03
    2    6   13      0.06     -0.02
    3    6   13     -0.50     -0.31
    4    6   13     -0.21      0.13
    5    6   13     -0.18      0.38
    6    6   13      0.21     -0.11
    7    6   13      0.64     -0.07
    8    6   13     -0.16     -0.09
    9    6   13     -0.77      0.14
   10    6   13      0.10      0.20
   11    6   13      0.81     -0.61
   12    6   13      0.01     -0.10
   13    6   13     -0.64      0.70
   14    6   13      0.13     -0.03
   15    6   13      0.61     -0.38
   16    6   13     -0.21      0.06
   17    6   13     -0.70      0.20
   18    6   13     -0.06      0.00
    0    7   13      2.08     -0.64
    1    7   13     -0.27      0.41
    2    7   13     -1.63      0.81
    3    7   13      0.19     -0.54
    4    7   13      0.72     -0.70
    5    7   13      0.21      0.36
    6    7   13     -0.32      0.18
    7    7   13     -0.38      0.10
    8    7   13      0.64     -0.03
    9    7   13      0.20     -0.54
   10    7   13     -0.62      0.26
   11    7   13     -0.29      0.51
   12    7   13      0.00     -0.18
   13    7   13      0.49     -0.05
   14    7   13      0.23     -0.20
   15    7   13     -0.47     -0.11
   16    7   13      0.06      0.53
   17    7   13      0.35     -0.05
    1    8   13     -0.40      0.18
    2    8   13     -0.15     -0.70
    3    8   13      0.72     -0.39
    4    8   13     -0.50      0.32
    5    8   13     -0.66      0.20
    6    8   13      1.07      0.82
    7    8   13      0.88      0.41
    8    8   13     -0.49     -0.81
    9    8   13     -0.65     -1.19
   10    8   13     -0.58     -0.41
   11    8   13     -0.47      1.88
   12    8   13      0.85      0.92
   13    8   13      1.28     -2.24
   14    8   13     -0.12     -0.40
   15    8   13     -1.04      1.78
   16    8   13     -0.65     -0.11
    0    9   13     -0.26     -0.01
    1    9   13      0.19      0.23
    2    9   13      0.14     -0.09
    3    9   13     -0.21     -0.27
    4    9   13      0.22      0.08
    5    9   13      0.06      0.07
    6    9   13     -0.39     -0.06
    7    9   13      0.10     -0.15
    8    9   13      0.19      0.21
    9    9   13     -0.21      0.35
   10    9   13     -0.12     -0.10
   11    9   13      0.21     -0.33
   12    9   13      0.10     -0.28
   13    9   13      0.11      0.58
   14    9   13      0.25      0.41
    1   10   13     -0.26      0.42
    2   10   13     -0.24     -0.14
    3   10   13      0.65     -0.85
    4   10   13      0.26      0.30
    5   10   13     -0.81      1.03
    6   10   13      0.10     -0.20
    7   10   13      0.45     -1.21
    8   10   13     -0.21     -0.01
    9   10   13      0.30      0.82
   10   10   13     -0.23      0.22
   11   10   13     -0.64     -0.28
   12   10   13      0.43     -0.50
    0   11   13     -0.80      0.15
    1   11   13      0.10      0.17
    2   11   13      0.78     -0.50
    3   11   13      0.33      0.04
    4   11   13     -0.77      0.68
    5   11   13     -0.59      0.05
    6   11   13      0.86     -0.37
    7   11   13      0.39     -0.31
    8   11   13     -0.77      0.48
    9   11   13     -0.12      0.35
   10   11   13      0.29     -0.68
    1   12   13     -0.03      0.66
    2   12   13     -2.31      0.52
    3   12   13      0.54     -1.33
    4   12   13      2.05     -0.95
    5   12   13     -1.02      0.88
    0    0   12      7.11      1.71
    2    0   12     -6.27     -2.48
    4    0   12      5.12      4.29
    6    0   12     -4.61     -5.26
    8    0   12      3.47      4.17
   10    0   12     -2.19     -2.54
   12    0   12      2.33      1.84
   14    0   12     -2.51     -1.24
   16    0   12      1.12      0.20
   18    0   12      0.07      0.25
   20    0   12      0.28     -0.05
    1    1   12      0.37     -0.06
    2    1   12     -0.69      0.20
    3    1   12     -0.92     -0.15
    4    1   12      0.57     -0.16
    5    1   12      0.95      0.43
    6    1   12     -0.23     -0.28
    7    1   12     -0.33     -0.41
    8    1   12      0.33      0.52
    9    1   12     -0.20      0.78
   10    1   12     -0.60     -0.19
   11    1   12      0.10     -1.38
   12    1   12      0.67     -0.13
   13    1   12     -0.20      0.90
   14    1   12     -0.48      0.04
   15    1   12      0.87      0.45
   16    1   12      0.05      0.52
   17    1   12     -1.12     -0.85
   18    1   12      0.40     -1.07
   19    1   12      0.63      0.05
   20    1   12     -0.40      0.80
   21    1   12     -0.15      0.51
    0    2   12      0.06     -0.08
    1    2   12     -0.59     -0.41
    2    2   12     -0.08     -0.13
    3    2   12      0.72      0.90
    4    2   12     -0.02      0.30
    5    2   12     -0.48     -0.82
    6    2   12     -0.10     -0.03
    7    2   12      0.16      0.31
    8    2   12      0.62     -0.02
    9    2   12     -0.36     -0.14
   10    2   12     -0.95     -0.40
   11    2   12      0.90      0.39
   12    2   12      1.03      0.25
   13    2   12     -1.00     -0.69
   14    2   12     -1.23      0.71
   15    2   12      0.32      0.38
   16    2   12      1.00     -1.05
   17    2   12      0.57      0.15
   18    2   12     -0.24     -0.06
   19    2   12     -0.78      0.13
   20    2   12     -0.21      1.31
   21    2   12      0.24     -0.43
    1    3   12     -0.07     -0.04
    2    3   12     -0.12     -0.44
    3    3   12      0.18     -0.23
    4    3   12     -0.08      0.20
    5    3   12     -0.03      0.85
    6    3   12     -0.21      0.16
    7    3   12     -0.17     -0.93
    8    3   12      1.08     -0.06
    9    3   12     -0.09      0.37
   10    3   12     -1.38     -0.24
   11    3   12      0.03     -0.03
   12    3   12      0.65      0.41
   13    3   12      0.67      0.07
   14    3   12      0.42     -0.25
   15    3   12     -0.41     -0.04
   16    3   12     -1.15      0.22
   17    3   12     -1.19      0.22
   18    3   12      0.95     -0.76
   19    3   12      2.16     -0.66
   20    3   12     -0.03      0.94
   21    3   12     -1.53      0.67
    0    4   12     -0.28     -0.75
    1    4   12      0.08     -0.55
    2    4   12      0.29      0.71
    3    4   12      0.21      0.43
    4    4   12     -0.13     -0.69
    5    4   12     -0.13      0.26
    6    4   12     -0.42      0.50
    7    4   12     -0.29     -0.97
    8    4   12      1.01     -0.07
    9    4   12      0.39      0.64
   10    4   12     -0.90     -0.19
   11    4   12     -0.16      0.16
   12    4   12      0.40      0.11
   13    4   12     -0.05     -0.32
   14    4   12     -0.24      0.13
   15    4   12      0.26      0.18
   16    4   12      0.13     -0.25
   17    4   12     -0.37     -0.15
   18    4   12      0.34      0.23
   19    4   12      0.20      0.08
   20    4   12     -0.78     -0.21
    1    5   12     -0.02     -0.16
    2    5   12      0.17     -0.42
    3    5   12     -0.07      0.28
    4    5   12      0.21      0.29
    5    5   12      0.08     -0.06
    6    5   12     -0.37      0.20
    7    5   12      0.26      0.01
    8    5   12      0.01     -0.17
    9    5   12     -0.42     -0.21
   10    5   12      0.30     -0.37
   11    5   12      0.15      0.38
   12    5   12     -0.24      0.72
   13    5   12     -0.20     -0.29
   14    5   12      0.04     -0.90
   15    5   12      0.37     -0.12
   16    5   12     -0.15      0.85
   17    5   12      0.21      0.38
   18    5   12      0.54     -0.46
   19    5   12     -0.69     -0.39
   20    5   12     -0.59      0.29
    0    6   12      0.23      1.09
    1    6   12      0.58      0.62
    2    6   12     -0.15     -1.24
    3    6   12     -0.38     -0.47
    4    6   12     -0.06      0.96
    5    6   12     -0.25     -0.06
    6    6   12      0.19      0.09
    7    6   12      0.73      0.44
    8    6   12     -0.12     -0.70
    9    6   12     -0.64     -0.01
   10    6   12     -0.34      0.72
   11    6   12      0.43     -0.65
   12    6   12      1.17     -1.63
   13    6   12     -0.69      0.92
   14    6   12     -1.14      2.84
   15    6   12      1.38     -0.81
   16    6   12     -0.46     -2.34
   17    6   12     -1.76      0.39
   18    6   12      1.86      0.95
   19    6   12      1.15      0.02
    1    7   12      0.33     -0.29
    2    7   12     -0.61      0.36
    3    7   12     -0.52      0.52
    4    7   12      0.47     -0.61
    5    7   12      0.42     -0.25
    6    7   12     -0.09      0.89
    7    7   12     -0.38      0.05
    8    7   12      0.11     -1.31
    9    7   12      0.13     -0.07
   10    7   12     -0.10      1.13
   11    7   12     -0.11     -0.22
   12    7   12     -0.23     -0.23
   13    7   12      0.51      1.00
   14    7   12      0.35     -0.38
   15    7   12     -0.47     -1.23
   16    7   12     -0.01      0.56
   17    7   12      0.05      0.45
   18    7   12     -0.28     -0.68
    0    8   12      0.21     -1.27
    1    8   12     -0.22      0.71
    2    8   12     -0.37      0.63
    3    8   12      0.33     -0.10
    4    8   12      0.14      0.38
    5    8   12     -0.17     -0.24
    6    8   12      0.40     -0.36
    7    8   12      0.05      0.21
    8    8   12     -0.39     -0.31
    9    8   12     -0.26     -0.04
   10    8   12      0.37      0.41
   11    8   12      0.47     -0.10
   12    8   12     -0.64     -0.09
   13    8   12     -0.40     -0.14
   14    8   12      0.56      0.07
   15    8   12      0.10      0.44
   16    8   12     -0.38     -0.28
   17    8   12      0.10     -0.27
    1    9   12     -0.09      0.08
    2    9   12     -0.31     -0.38
    3    9   12      0.35      0.01
    4    9   12      0.19      0.44
    5    9   12     -0.30     -0.69
    6    9   12     -0.07     -0.58
    7    9   12     -0.04      1.23
    8    9   12     -0.01      1.02
    9    9   12      0.20     -0.54
   10    9   12      0.15     -1.18
   11    9   12     -0.39     -0.81
   12    9   12     -0.21      0.67
   13    9   12      0.59      1.43
   14    9   12      0.29      0.03
   15    9   12     -0.25     -1.11
    0   10   12      1.76      0.13
    1   10   12     -1.56      0.85
    2   10   12     -1.09     -0.48
    3   10   12      0.96     -0.61
    4   10   12     -0.03      0.70
    5   10   12     -0.19     -0.02
    6   10   12      0.15      0.09
    7   10   12     -0.02      0.40
    8   10   12      0.49     -0.92
    9   10   12     -0.20     -0.39
   10   10   12     -0.45      0.44
   11   10   12      0.47      0.50
   12   10   12     -0.24      0.43
   13   10   12     -0.67     -0.54
    1   11   12      0.81     -0.48
    2   11   12      0.62      0.73
    3   11   12     -1.47      0.80
    4   11   12     -0.23     -0.46
    5   11   12      0.34     -0.11
    6   11   12     -0.46      0.05
    7   11   12      1.44     -0.54
    8   11   12      0.27      0.00
    9   11   12     -2.30      0.36
   10   11   12      0.20     -0.09
   11   11   12      1.70      0.14
    0   12   12      0.60     -0.79
    1   12   12      0.27     -0.89
    2   12   12     -0.29      0.61
    3   12   12     -0.44      0.48
    4   12   12     -0.13     -0.31
    5   12   12      0.44     -0.19
    6   12   12      0.22      0.24
    7   12   12     -0.07      0.23
    2    0   11     -0.40      0.03
    4    0   11      0.52      0.16
    6    0   11     -0.27      0.06
    8    0   11     -0.43     -0.09
   10    0   11      0.97     -0.17
   12    0   11     -0.50     -0.14
   14    0   11     -0.24      0.28
   16    0   11      0.43      0.11
   18    0   11     -0.42     -0.06
   20    0   11      0.09     -0.11
   22    0   11      0.52      0.08
    0    1   11     -2.92     -0.64
    1    1   11     -2.08      0.03
    2    1   11      2.67      0.69
    3    1   11      1.69      0.55
    4    1   11     -1.70     -0.43
    5    1   11     -0.86     -1.33
    6    1   11      0.31     -0.05
    7    1   11      0.15      1.42
    8    1   11      0.31     -0.09
    9    1   11     -0.02     -1.23
   10    1   11     -0.06      0.48
   11    1   11      0.08      1.30
   12    1   11     -0.24     -0.47
   13    1   11     -0.05     -0.85
   14    1   11      0.35      0.66
   15    1   11     -0.06      0.32
   16    1   11     -0.31     -1.09
   17    1   11     -0.03     -0.72
   18    1   11      0.00      0.85
   19    1   11      0.63      1.06
   20    1   11      0.23     -0.12
   21    1   11     -0.97     -0.65
   22    1   11     -0.07     -0.22
    1    2   11      0.38     -0.01
    2    2   11     -0.76     -0.07
    3    2   11     -0.71     -0.31
    4    2   11      1.34     -0.10
    5    2   11      0.38      0.53
    6    2   11     -1.16      0.43
    7    2   11      0.20      0.27
    8    2   11      0.35     -0.27
    9    2   11     -0.33     -1.07
   10    2   11      0.28     -0.34
   11    2   11      0.08      0.90
   12    2   11     -0.28      0.52
   13    2   11      0.03     -0.52
   14    2   11     -0.10     -0.31
   15    2   11     -0.32      0.24
   16    2   11      0.25      0.15
   17    2   11      0.98      0.41
   18    2   11      0.05      0.18
   19    2   11     -1.32     -0.87
   20    2   11     -0.53     -0.46
   21    2   11      0.97      0.49
    0    3   11      0.47      0.17
    1    3   11      0.12     -0.24
    2    3   11     -0.57     -0.39
    3    3   11     -0.05      0.03
    4    3   11      0.68      0.79
    5    3   11     -0.07      0.27
    6    3   11     -0.67     -0.81
    7    3   11     -0.33     -0.55
    8    3   11      0.41      0.24
    9    3   11      0.98      0.74
   10    3   11     -0.25      0.18
   11    3   11     -0.81     -0.57
   12    3   11      0.30      0.35
   13    3   11     -0.04      0.27
   14    3   11     -0.07     -1.28
   15    3   11      0.58     -0.46
   16    3   11     -0.21      1.10
   17    3   11     -0.37      0.69
   18    3   11     -0.01      0.14
   19    3   11     -0.12     -0.20
   20    3   11      0.43     -0.80
   21    3   11      0.09     -0.23
    1    4   11     -0.10     -0.37
    2    4   11      0.14      0.24
    3    4   11      0.12      0.60
    4    4   11     -0.29     -0.30
    5    4   11     -0.01     -0.12
    6    4   11      0.11     -0.07
    7    4   11      0.12     -0.15
    8    4   11      0.31      0.41
    9    4   11     -0.29     -0.06
   10    4   11     -0.22     -0.21
   11    4   11      0.18     -0.03
   12    4   11     -0.38     -0.31
   13    4   11      0.29      0.01
   14    4   11      0.29      0.76
   15    4   11     -0.56      0.96
   16    4   11      0.43     -0.80
   17    4   11     -0.05     -1.39
   18    4   11     -0.56      0.31
   19    4   11      0.91      0.11
   20    4   11      0.35     -0.01
   21    4   11     -1.03      1.07
    0    5   11      0.57     -2.16
    1    5   11     -0.02     -0.11
    2    5   11     -0.56      1.74
    3    5   11     -0.15      0.17
    4    5   11      0.39     -0.94
    5    5   11      0.14      0.10
    6    5   11     -0.10      0.38
    7    5   11      0.16     -0.60
    8    5   11      0.42     -0.18
    9    5   11     -0.39      0.58
   10    5   11     -1.03      0.05
   11    5   11      0.29     -0.08
   12    5   11      0.70      0.33
   13    5   11      0.09     -0.28
   14    5   11     -0.03     -0.27
   15    5   11     -0.22      0.33
   16    5   11      0.35     -0.76
   17    5   11      0.01      0.06
   18    5   11     -0.77      1.44
   19    5   11     -0.19     -0.54
   20    5   11      0.30     -0.91
    1    6   11      0.00     -0.20
    2    6   11      0.00      0.63
    3    6   11     -0.11      0.26
    4    6   11      0.25     -0.42
    5    6   11      0.21      0.01
    6    6   11     -0.21     -0.08
    7    6   11     -0.28     -0.06
    8    6   11     -0.14      0.33
    9    6   11      0.35      0.14
   10    6   11      0.24     -0.11
   11    6   11     -0.25     -0.46
   12    6   11     -0.13     -0.32
   13    6   11      0.07      0.59
   14    6   11      0.00      0.27
   15    6   11      0.00     -0.59
   16    6   11      0.18     -0.10
   17    6   11     -0.02      0.72
   18    6   11     -0.31      0.28
   19    6   11      0.06     -0.53
    0    7   11      0.13     -1.80
    1    7   11     -0.12      0.57
    2    7   11      0.17      1.36
    3    7   11     -0.47     -0.21
    4    7   11     -0.36     -0.53
    5    7   11      0.62     -0.35
    6    7   11      0.01      0.21
    7    7   11     -0.26      0.43
    8    7   11      0.19     -0.42
    9    7   11     -0.12     -0.23
   10    7   11      0.20      0.35
   11    7   11      0.19      0.41
   12    7   11     -0.48      0.01
   13    7   11     -0.06     -0.66
   14    7   11     -0.14      0.05
   15    7   11      0.27      0.58
   16    7   11      1.15     -0.36
   17    7   11     -0.61     -0.36
   18    7   11     -1.38      0.27
    1    8   11     -0.06      0.25
    2    8   11     -0.16     -0.54
    3    8   11      0.30     -0.50
    4    8   11     -0.10      0.85
    5    8   11     -0.71      0.67
    6    8   11      0.52     -0.82
    7    8   11      1.07     -1.02
    8    8   11     -0.06      0.42
    9    8   11     -1.34      0.81
   10    8   11     -0.80      0.10
   11    8   11      1.65      0.11
   12    8   11      0.77     -0.32
   13    8   11     -1.74     -0.80
   14    8   11     -0.15      0.07
   15    8   11      1.19      0.79
   16    8   11     -0.21      0.32
   17    8   11     -0.32     -0.46
    0    9   11      0.27     -0.07
    1    9   11     -0.02     -0.57
    2    9   11     -0.25      0.09
    3    9   11     -0.17      0.25
    4    9   11      0.11     -0.32
    5    9   11      0.21      0.19
    6    9   11     -0.18      0.54
    7    9   11     -0.16     -0.29
    8    9   11      0.55     -0.39
    9    9   11      0.04      0.14
   10    9   11     -0.61      0.11
   11    9   11     -0.28     -0.19
   12    9   11      0.18      0.20
   13    9   11      1.21      0.18
   14    9   11      0.21     -0.58
   15    9   11     -1.55      0.07
   16    9   11     -0.18      0.49
    1   10   11      0.12      0.43
    2   10   11     -0.23      0.15
    3   10   11     -0.33     -1.06
    4   10   11      0.16     -0.16
    5   10   11      0.71      1.30
    6   10   11      0.14     -0.03
    7   10   11     -1.01     -0.93
    8   10   11     -0.30     -0.06
    9   10   11      0.66     -0.03
   10   10   11      0.38      0.52
   11   10   11     -0.18      0.79
   12   10   11     -0.49     -0.57
   13   10   11      0.17     -0.72
   14   10   11      0.22      0.08
    0   11   11      0.19      0.03
    1   11   11      0.31     -0.09
    2   11   11     -0.25     -0.24
    3   11   11      0.09     -0.22
    4   11   11      0.12      0.72
    5   11   11     -0.10      0.30
    6   11   11      0.01     -1.30
    7   11   11     -0.40     -0.21
    8   11   11      0.53      1.50
    9   11   11      0.70      0.31
   10   11   11     -1.04     -0.91
   11   11   11     -0.45     -0.33
   12   11   11      0.70      0.14
    1   12   11      0.49      0.57
    2   12   11     -0.31      1.98
    3   12   11     -0.91     -1.69
    4   12   11     -0.18     -1.85
    5   12   11      0.49      1.89
    6   12   11      1.27      0.58
    7   12   11     -0.29     -1.12
    8   12   11     -1.88      0.05
    9   12   11      0.26     -0.04
    0   13   11     -0.03      0.32
    1   13   11     -0.24     -0.12
    2   13   11     -0.48     -0.30
    3   13   11      0.18      0.13
    0    0   10      7.94     -2.94
    2    0   10     -7.79      2.54
    4    0   10      7.26     -2.43
    6    0   10     -6.80      3.11
    8    0   10      6.62     -2.73
   10    0   10     -5.79      1.40
   12    0   10      4.17     -1.13
   14    0   10     -2.33      1.41
   16    0   10      0.64     -1.08
   18    0   10      0.10      0.90
   20    0   10      0.01     -0.82
    1    1   10     -0.10     -0.09
    2    1   10     -0.22      0.31
    3    1   10      0.05      0.24
    4    1   10      0.19     -0.17
    5    1   10      0.56     -0.26
    6    1   10     -0.47      0.26
    7    1   10     -1.15     -0.01
    8    1   10      0.41     -0.85
    9    1   10      1.04      0.33
   10    1   10      0.17      1.08
   11    1   10     -0.79     -0.47
   12    1   10      0.08     -0.36
   13    1   10      0.52      0.60
   14    1   10     -0.94     -0.51
   15    1   10      0.27     -0.47
   16    1   10      1.36      0.72
   17    1   10     -0.58      0.02
   18    1   10     -1.44     -0.58
   19    1   10      0.07     -0.01
   20    1   10      1.07      0.42
   21    1   10      0.09      0.30
   22    1   10     -0.43      0.00
    0    2   10      0.33     -0.34
    1    2   10      0.82     -1.76
    2    2   10     -0.56      0.28
    3    2   10      0.20      1.32
    4    2   10      0.71      0.07
    5    2   10     -0.27     -0.77
    6    2   10     -0.43     -0.33
    7    2   10     -0.11      0.30
    8    2   10      0.24      0.09
    9    2   10     -0.01      0.02
   10    2   10     -0.33      0.20
   11    2   10      0.23     -0.39
   12    2   10      0.67     -0.17
   13    2   10     -0.51      0.62
   14    2   10     -0.74      0.18
   15    2   10      0.38     -0.17
   16    2   10      0.21     -0.30
   17    2   10      0.29     -0.64
   18    2   10     -0.37      0.21
   19    2   10     -0.17      0.97
   20    2   10      1.48      0.04
   21    2   10     -0.31     -0.76
   22    2   10     -1.49     -0.19
    1    3   10     -0.02     -0.07
    2    3   10     -0.18     -0.24
    3    3   10     -0.23      0.06
    4    3   10     -0.21      0.34
    5    3   10      1.06      0.02
    6    3   10      0.20      0.26
    7    3   10     -1.56     -0.03
    8    3   10      0.25     -1.22
    9    3   10      1.00      0.27
   10    3   10     -0.35      1.54
   11    3   10     -0.35     -0.17
   12    3   10      0.29     -0.74
   13    3   10      0.06     -0.50
   14    3   10     -0.10     -0.47
   15    3   10      0.30      0.10
   16    3   10     -0.06      0.97
   17    3   10     -0.26      1.77
   18    3   10     -0.51     -0.61
   19    3   10     -0.05     -2.95
   20    3   10      0.98      0.18
   21    3   10     -0.19      2.22
   22    3   10     -0.60     -0.08
    0    4   10     -1.29     -1.07
    1    4   10     -0.59     -0.23
    2    4   10      1.00      1.03
    3    4   10      0.50     -0.14
    4    4   10     -0.50     -0.87
    5    4   10      0.09      0.20
    6    4   10     -0.06      0.73
    7    4   10     -0.56      0.20
    8    4   10      0.54     -0.93
    9    4   10      0.25     -0.42
   10    4   10     -0.54      0.75
   11    4   10      0.08      0.22
   12    4   10      0.29     -0.18
   13    4   10      0.11     -0.12
   14    4   10      0.06      0.18
   15    4   10     -0.22      0.23
   16    4   10     -0.60     -0.39
   17    4   10     -0.07     -0.22
   18    4   10      0.90      0.01
   19    4   10      0.54      0.17
   20    4   10     -0.77      0.55
   21    4   10     -0.76     -0.20
    1    5   10      0.55     -0.09
    2    5   10     -0.10      0.10
    3    5   10     -1.20      0.11
    4    5   10      0.04     -0.38
    5    5   10      1.00      0.17
    6    5   10      0.00      0.07
    7    5   10     -0.32     -0.40
    8    5   10      0.14      0.79
    9    5   10      0.01      0.42
   10    5   10     -0.40     -1.34
   11    5   10      0.06     -0.21
   12    5   10      0.63      1.07
   13    5   10     -0.54      0.04
   14    5   10     -0.67     -0.33
   15    5   10      0.71      0.03
   16    5   10      0.41      0.18
   17    5   10      0.12     -0.28
   18    5   10     -0.08     -0.78
   19    5   10     -1.01      0.33
   20    5   10      0.09      0.95
   21    5   10      0.96      0.07
    0    6   10     -0.72      0.49
    1    6   10      0.30     -0.19
    2    6   10      0.44     -0.56
    3    6   10      0.00      0.17
    4    6   10     -0.10      0.49
    5    6   10     -0.26     -0.14
    6    6   10      0.19     -0.05
    7    6   10      0.35      0.16
    8    6   10     -0.35     -0.38
    9    6   10     -0.04     -0.02
   10    6   10      0.43      0.60
   11    6   10     -0.41     -0.33
   12    6   10     -0.94     -1.04
   13    6   10      0.63      0.82
   14    6   10      1.55      1.37
   15    6   10     -0.84     -1.42
   16    6   10     -1.29     -0.58
   17    6   10      0.93      1.70
   18    6   10      0.72     -0.78
   19    6   10     -0.61     -1.16
   20    6   10     -0.65      1.18
    1    7   10      0.00     -0.19
    2    7   10     -0.68     -0.06
    3    7   10     -0.22      0.08
    4    7   10      0.58      0.30
    5    7   10      0.41      0.23
    6    7   10     -0.04      0.03
    7    7   10     -0.03      0.00
    8    7   10     -0.57     -0.74
    9    7   10     -0.45     -0.23
   10    7   10      0.72      0.66
   11    7   10      0.02      0.05
   12    7   10     -0.25      0.08
   13    7   10      1.03      0.21
   14    7   10     -0.10     -0.45
   15    7   10     -1.17     -0.31
   16    7   10      0.22      0.27
   17    7   10      0.26      0.12
   18    7   10     -0.33     -0.08
   19    7   10      0.24      0.18
    0    8   10     -0.91     -0.88
    1    8   10      0.35      0.08
    2    8   10      0.45      0.66
    3    8   10     -0.05     -0.31
    4    8   10      0.17      0.11
    5    8   10      0.03      0.24
    6    8   10      0.02     -0.63
    7    8   10     -0.11     -0.17
    8    8   10     -0.45      0.30
    9    8   10     -0.01      0.31
   10    8   10      0.29     -0.04
   11    8   10      0.13     -0.22
   12    8   10      0.07      0.25
   13    8   10     -0.22     -0.08
   14    8   10     -0.07     -0.38
   15    8   10      0.19      0.23
   16    8   10     -0.20      0.43
   17    8   10     -0.03     -0.21
   18    8   10      0.33     -0.41
    1    9   10      0.21      0.21
    2    9   10     -0.15     -0.04
    3    9   10     -0.16     -0.56
    4    9   10      0.32      0.11
    5    9   10     -0.66      0.41
    6    9   10     -0.65      0.02
    7    9   10      1.15     -0.06
    8    9   10      1.17     -0.09
    9    9   10     -0.49      0.05
   10    9   10     -1.43     -0.19
   11    9   10     -0.55     -0.14
   12    9   10      0.98      0.50
   13    9   10      1.07      0.13
   14    9   10     -0.04     -0.59
   15    9   10     -0.94     -0.23
   16    9   10     -0.56      0.59
    0   10   10      0.71     -0.71
    1   10   10      0.99      1.18
    2   10   10     -0.81      0.06
    3   10   10     -0.45     -0.75
    4   10   10      0.61      0.98
    5   10   10     -0.17      0.25
    6   10   10      0.19     -0.87
    7   10   10      0.19      0.08
    8   10   10     -0.62     -0.25
    9   10   10      0.04     -0.23
   10   10   10      0.22      0.79
   11   10   10      0.23      0.04
   12   10   10     -0.07     -0.32
   13   10   10     -0.57      0.30
   14   10   10      0.68     -0.15
   15   10   10      0.37     -0.21
    1   11   10     -0.48     -0.76
    2   11   10      1.06     -0.41
    3   11   10      0.82      1.44
    4   11   10     -1.08      0.16
    5   11   10     -0.30     -0.67
    6   11   10      0.56      0.04
    7   11   10     -0.08     -0.66
    8   11   10     -0.22      0.40
    9   11   10     -0.37      1.45
   10   11   10      0.11     -0.73
   11   11   10      0.90     -1.27
   12   11   10     -0.08      0.48
   13   11   10     -0.70      0.54
    0   12   10     -0.30     -0.71
    1   12   10     -0.52     -1.00
    2   12   10      0.12      0.36
    3   12   10      0.13      0.96
    4   12   10     -0.04      0.15
    5   12   10      0.01     -0.67
    6   12   10      0.43     -0.25
    7   12   10      0.34      0.16
    8   12   10     -0.66      0.01
    9   12   10     -0.73      0.20
   10   12   10      0.32      0.09
    1   13   10      0.09      0.30
    2   13   10      0.46      0.35
    3   13   10     -0.17     -0.31
    4   13   10     -0.10     -0.55
    5   13   10      0.04     -0.18
    2    0    9      0.45      0.40
    4    0    9     -0.25     -0.31
    6    0    9      0.41      0.46
    8    0    9     -0.40     -0.05
   10    0    9      0.00     -0.65
   12    0    9     -0.26     -0.27
   14    0    9      0.42      1.19
   16    0    9      0.14     -0.43
   18    0    9     -0.25      0.16
   20    0    9     -0.11     -0.62
   22    0    9      0.34      0.25
    0    1    9     -0.94     -0.46
    1    1    9     -0.16      1.05
    2    1    9      0.92     -0.19
    3    1    9      1.49     -1.13
    4    1    9     -0.87      0.85
    5    1    9     -2.65      0.47
    6    1    9      0.61     -0.45
    7    1    9      1.73      0.16
    8    1    9     -0.23      0.16
    9    1    9     -0.10     -0.54
   10    1    9      0.01     -0.30
   11    1    9     -0.07      1.00
   12    1    9     -0.04      0.06
   13    1    9     -0.13     -0.50
   14    1    9      0.40      0.13
   15    1    9     -0.20     -0.26
   16    1    9     -0.69      0.02
   17    1    9      0.15     -0.33
   18    1    9      0.34      0.20
   19    1    9      0.29      0.86
   20    1    9      0.07     -0.53
   21    1    9     -0.59     -0.36
   22    1    9      0.00      0.28
   23    1    9      0.51      0.08
    1    2    9     -0.03     -0.08
    2    2    9     -0.25      0.22
    3    2    9     -0.11      0.00
    4    2    9      0.12     -0.54
    5    2    9      0.31      0.50
    6    2    9      0.27      0.79
    7    2    9      0.20     -0.97
    8    2    9     -0.14     -0.40
    9    2    9     -0.95      0.44
   10    2    9     -0.43     -0.38
   11    2    9      0.90      0.48
   12    2    9      0.60      0.46
   13    2    9     -0.30     -0.50
   14    2    9     -0.48      0.02
   15    2    9     -0.40      0.26
   16    2    9      0.36     -0.30
   17    2    9      1.10     -0.35
   18    2    9     -0.08      0.29
   19    2    9     -1.25      0.26
   20    2    9     -0.09      0.07
   21    2    9      0.69     -0.17
   22    2    9      0.12     -0.43
    0    3    9      1.74     -0.96
    1    3    9     -0.27     -0.19
    2    3    9     -1.41      0.63
    3    3    9      0.33      0.08
    4    3    9      0.93     -0.22
    5    3    9     -0.11     -0.07
    6    3    9     -0.90      0.23
    7    3    9     -0.33      0.41
    8    3    9      0.83     -0.27
    9    3    9      0.71     -0.84
   10    3    9     -0.34      0.49
   11    3    9     -0.69      0.61
   12    3    9      0.21     -0.47
   13    3    9      0.48      0.19
   14    3    9     -0.71     -0.36
   15    3    9     -0.60     -0.45
   16    3    9      0.89      0.57
   17    3    9      0.68      0.05
   18    3    9     -0.37      0.56
   19    3    9      0.00      0.13
   20    3    9     -0.21     -1.39
   21    3    9     -0.68      0.09
   22    3    9      0.44      0.98
    1    4    9     -0.25      0.14
    2    4    9      0.28      0.24
    3    4    9      0.53     -0.34
    4    4    9     -0.33      0.15
    5    4    9     -0.46      0.50
    6    4    9     -0.11     -0.51
    7    4    9      0.26     -0.51
    8    4    9      0.56      0.42
    9    4    9     -0.21      0.07
   10    4    9     -0.56     -0.17
   11    4    9      0.11      0.22
   12    4    9      0.31      0.14
   13    4    9     -0.39     -0.51
   14    4    9     -0.08      0.00
   15    4    9      1.24      1.25
   16    4    9     -0.08     -0.55
   17    4    9     -1.12     -1.09
   18    4    9      0.05      0.63
   19    4    9     -0.39     -0.38
   20    4    9     -0.06      0.14
   21    4    9      1.32      1.37
   22    4    9      0.13     -0.62
    0    5    9     -0.72     -1.26
    1    5    9     -0.25     -0.13
    2    5    9      0.53      1.05
    3    5    9     -0.02      0.04
    4    5    9     -0.43     -0.62
    5    5    9      0.32      0.13
    6    5    9      0.56      0.24
    7    5    9     -0.71     -0.32
    8    5    9     -0.28     -0.25
    9    5    9      0.86      0.21
   10    5    9     -0.22      0.42
   11    5    9     -0.58      0.02
   12    5    9      0.49      0.05
   13    5    9      0.31     -0.10
   14    5    9     -0.36     -0.34
   15    5    9     -0.32      0.01
   16    5    9     -0.21     -0.61
   17    5    9      0.56      0.37
   18    5    9      0.59      1.31
   19    5    9     -0.76     -0.58
   20    5    9     -0.44     -0.64
   21    5    9      0.54      0.13
    1    6    9     -0.20      0.31
    2    6    9      0.32      0.27
    3    6    9      0.39     -0.56
    4    6    9     -0.21     -0.46
    5    6    9     -0.37      0.30
    6    6    9      0.06      0.23
    7    6    9      0.36      0.22
    8    6    9      0.12      0.14
    9    6    9     -0.37     -0.45
   10    6    9     -0.17     -0.17
   11    6    9      0.24      0.15
   12    6    9     -0.19      0.14
   13    6    9     -0.05      0.00
   14    6    9      0.27     -0.14
   15    6    9     -0.22      0.13
   16    6    9     -0.02     -0.16
   17    6    9      0.55      0.00
   18    6    9      0.01      0.48
   19    6    9     -0.43     -0.19
   20    6    9      0.02     -0.35
    0    7    9     -0.30     -1.04
    1    7    9      0.13      0.13
    2    7    9      0.10      0.51
    3    7    9     -0.07      0.48
    4    7    9      0.19      0.21
    5    7    9     -0.18     -0.43
    6    7    9     -0.13     -0.37
    7    7    9      0.25     -0.02
    8    7    9     -0.06      0.25
    9    7    9     -0.17     -0.02
   10    7    9     -0.02     -0.24
   11    7    9      0.32      0.35
   12    7    9      0.11      0.17
   13    7    9     -0.47     -0.30
   14    7    9      0.16      0.46
   15    7    9      0.45     -0.36
   16    7    9     -0.39     -1.24
   17    7    9     -0.42      0.99
   18    7    9      0.22      1.07
   19    7    9      0.28     -0.88
    1    8    9     -0.18     -0.07
    2    8    9     -0.10     -0.66
    3    8    9      0.32     -0.14
    4    8    9      0.05      0.53
    5    8    9      0.16      0.87
    6    8    9     -0.23     -0.18
    7    8    9     -0.95     -1.43
    8    8    9      0.57     -0.01
    9    8    9      0.99      1.45
   10    8    9     -0.46      0.07
   11    8    9     -0.22     -1.36
   12    8    9      0.01     -0.09
   13    8    9     -0.31      1.17
   14    8    9      0.28      0.20
   15    8    9      0.19     -0.55
   16    8    9     -0.34     -0.18
   17    8    9      0.07     -0.07
   18    8    9      0.36     -0.14
    0    9    9      0.34     -0.40
    1    9    9     -0.22      0.03
    2    9    9     -0.33      0.24
    3    9    9      0.09     -0.04
    4    9    9      0.17     -0.01
    5    9    9      0.18     -0.07
    6    9    9      0.00      0.21
    7    9    9     -0.15      0.23
    8    9    9      0.15     -0.69
    9    9    9     -0.08     -0.14
   10    9    9     -0.40      0.78
   11    9    9     -0.20      0.26
   12    9    9      0.51     -0.38
   13    9    9      0.64     -0.93
   14    9    9     -0.60      0.04
   15    9    9     -0.53      1.25
   17    9    9      0.16     -0.71
    1   10    9      0.13      0.15
    2   10    9      0.30     -0.01
    3   10    9     -0.46     -0.17
    4   10    9     -0.16      0.40
    5   10    9      0.92     -0.26
    6   10    9     -0.12     -0.69
    7   10    9     -0.99      0.56
    8   10    9     -0.01      0.49
    9   10    9      0.21     -0.40
   10   10    9      0.31     -0.32
   11   10    9      0.77      0.26
   12   10    9     -0.05      0.35
   13   10    9     -0.82     -0.29
   14   10    9     -0.48     -0.09
   15   10    9      0.10      0.24
    0   11    9     -1.06     -0.95
    1   11    9     -0.35     -0.31
    2   11    9      0.83      0.71
    3   11    9      0.22      0.02
    4   11    9     -0.12     -0.13
    5   11    9     -0.19     -0.05
    6   11    9     -1.04     -0.23
    7   11    9     -0.04      0.46
    8   11    9      1.85      0.05
    9   11    9      0.58     -0.60
   10   11    9     -1.46      0.19
   11   11    9     -0.74      0.26
   12   11    9      0.36     -0.09
   13   11    9      0.33      0.06
    1   12    9      0.77      0.05
    2   12    9      0.61      0.35
    3   12    9     -1.90     -0.16
    4   12    9     -0.62     -0.11
    5   12    9      1.85      0.06
    6   12    9      0.19     -0.82
    7   12    9     -0.88      0.47
    8   12    9      0.35      1.57
    9   12    9     -0.29     -0.79
   10   12    9     -0.58     -1.21
   11   12    9      0.67      0.36
    0   13    9      0.17      0.13
    1   13    9      0.12      0.29
    2   13    9     -0.36      0.32
    3   13    9      0.38     -0.60
    4   13    9      0.53     -0.78
    5   13    9     -0.79      0.76
    6   13    9     -0.21      0.28
    7   13    9      0.53     -0.40
    0    0    8      3.93    -14.32
    2    0    8     -2.76     13.66
    4    0    8      0.18    -11.08
    6    0    8      1.42      8.10
    8    0    8     -0.14     -7.31
   10    0    8     -1.89      7.27
   12    0    8      1.90     -5.54
   14    0    8     -0.77      2.71
   16    0    8     -0.21     -0.50
   18    0    8      0.97     -0.03
   20    0    8     -0.91     -0.38
   22    0    8      0.23      0.07
    1    1    8     -0.21      0.44
    2    1    8     -0.53      0.48
    3    1    8      0.12     -1.15
    4    1    8      0.86     -0.45
    5    1    8      0.69      0.63
    6    1    8     -0.47      0.87
    7    1    8     -1.46      0.82
    8    1    8     -0.57     -0.99
    9    1    8      1.06     -0.92
   10    1    8      0.99      0.26
   11    1    8     -0.26     -0.07
   12    1    8      0.21     -0.18
   13    1    8      0.15      0.31
   14    1    8     -1.64      0.73
   15    1    8     -0.01     -0.10
   16    1    8      1.79     -0.76
   17    1    8     -0.25      0.18
   18    1    8     -1.49      0.61
   19    1    8     -0.07     -0.50
   20    1    8      1.47     -0.27
   21    1    8      0.31      0.75
   22    1    8     -1.11     -0.40
   23    1    8     -0.03     -0.35
    0    2    8      0.88     -1.39
    1    2    8     -1.79     -3.31
    2    2    8     -0.80      1.32
    3    2    8      1.82      2.41
    4    2    8      0.60     -0.92
    5    2    8     -1.39     -2.25
    6    2    8     -0.56      0.35
    7    2    8      0.68      1.75
    8    2    8      0.65      0.00
    9    2    8     -0.22     -0.41
   10    2    8     -0.49     -0.24
   11    2    8     -0.22     -0.25
   12    2    8      0.72     -0.05
   13    2    8      0.42      0.34
   14    2    8     -1.28      0.65
   15    2    8      0.10     -0.19
   16    2    8      0.92     -0.60
   17    2    8     -0.73     -0.39
   18    2    8     -0.21      0.73
   19    2    8      0.93      0.31
   20    2    8      0.20     -1.56
   21    2    8     -0.82      0.11
   22    2    8     -0.16      1.44
   23    2    8      0.50      0.39
    1    3    8     -0.08     -0.27
    2    3    8     -0.21      0.44
    3    3    8      0.27      0.62
    4    3    8      0.20      0.10
    5    3    8     -0.19     -0.97
    6    3    8     -0.03     -0.34
    7    3    8     -0.11      1.34
    8    3    8     -0.35     -0.05
    9    3    8      0.27     -1.03
   10    3    8      0.99      0.15
   11    3    8     -0.18      0.44
   12    3    8     -1.04     -0.12
   13    3    8     -0.34     -0.06
   14    3    8      0.21     -0.10
   15    3    8      0.49     -0.23
   16    3    8      0.49      0.55
   17    3    8      0.54      0.19
   18    3    8     -0.72     -0.55
   19    3    8     -1.40     -0.36
   20    3    8      0.89      0.48
   21    3    8      0.99      0.95
   22    3    8     -0.76     -0.60
    0    4    8     -1.99      0.15
    1    4    8     -0.71      0.35
    2    4    8      1.78      0.36
    3    4    8      0.40     -0.37
    4    4    8     -1.19     -1.07
    5    4    8      0.12      0.15
    6    4    8      0.49      1.31
    7    4    8     -0.11      0.03
    8    4    8     -0.34     -1.23
    9    4    8     -0.27      0.00
   10    4    8      0.30      0.75
   11    4    8      0.23      0.21
   12    4    8      0.17     -0.16
   13    4    8     -0.13     -0.51
   14    4    8     -0.13     -0.27
   15    4    8      0.31      0.44
   16    4    8     -0.63      0.56
   17    4    8     -0.43      0.04
   18    4    8      0.77     -0.54
   19    4    8      0.54     -0.76
   20    4    8     -0.18      0.40
   21    4    8     -0.65      1.12
   22    4    8     -0.09     -0.31
    1    5    8      0.36     -0.98
    2    5    8      0.54      0.08
    3    5    8     -0.97      2.20
    4    5    8     -0.44     -0.14
    5    5    8      1.23     -1.96
    6    5    8     -0.60      0.24
    7    5    8     -1.03      0.93
    8    5    8      1.29     -0.13
    9    5    8      0.78     -0.33
   10    5    8     -1.06     -0.11
   11    5    8     -0.59      0.22
   12    5    8      0.58     -0.01
   13    5    8      0.19      0.17
   14    5    8      0.00      0.36
   15    5    8     -0.01     -0.37
   16    5    8     -0.23     -0.53
   17    5    8      0.37     -0.25
   18    5    8     -0.21      0.48
   19    5    8     -0.69      0.85
   20    5    8      0.31     -0.34
   21    5    8      0.46     -0.71
    0    6    8     -0.74      1.65
    1    6    8     -0.26      0.23
    2    6    8      0.38     -1.40
    3    6    8      0.19     -0.53
    4    6    8      0.20      0.86
    5    6    8     -0.20      0.34
    6    6    8     -0.36     -0.37
    7    6    8      0.53     -0.04
    8    6    8      0.09      0.03
    9    6    8     -0.56      0.01
   10    6    8      0.25      0.09
   11    6    8     -0.03      0.02
   12    6    8     -0.52      0.09
   13    6    8      0.71     -0.16
   14    6    8      0.68     -0.28
   15    6    8     -1.36      0.62
   16    6    8     -0.52      0.16
   17    6    8      1.75     -1.06
   18    6    8     -0.02     -0.15
   19    6    8     -1.37      0.88
   20    6    8      0.44      0.47
   21    6    8      0.68     -0.30
    1    7    8      0.07     -0.05
    2    7    8     -0.46      0.44
    3    7    8     -0.52      0.22
    4    7    8      0.75     -0.47
    5    7    8      0.73     -0.21
    6    7    8     -0.48      0.47
    7    7    8     -0.04     -0.09
    8    7    8     -0.12     -0.19
    9    7    8     -0.52      0.44
   10    7    8      0.29     -0.27
   11    7    8     -0.15     -0.29
   12    7    8     -0.12      0.19
   13    7    8      1.19     -0.25
   14    7    8      0.10      0.16
   15    7    8     -1.19      0.36
   16    7    8     -0.07     -0.12
   17    7    8      0.30      0.03
   18    7    8     -0.14     -0.31
   19    7    8      0.31     -0.16
   20    7    8      0.26      0.70
    0    8    8     -0.88      0.24
    1    8    8      0.07     -0.07
    2    8    8      0.74     -0.13
    3    8    8     -0.32      0.08
    4    8    8     -0.25      0.09
    5    8    8      0.35     -0.24
    6    8    8     -0.09     -0.34
    7    8    8     -0.22      0.23
    8    8    8     -0.05      0.36
    9    8    8      0.14      0.09
   10    8    8      0.07     -0.05
   11    8    8      0.06     -0.33
   12    8    8      0.25     -0.11
   13    8    8     -0.16      0.25
   14    8    8     -0.54      0.15
   15    8    8     -0.06      0.15
   16    8    8      0.53     -0.13
   17    8    8      0.10     -0.51
   18    8    8     -0.23     -0.07
   19    8    8      0.15      0.43
    1    9    8      0.46     -0.23
    2    9    8     -0.05     -0.31
    3    9    8     -0.86      0.16
    4    9    8      0.27      0.04
    5    9    8      0.35      0.54
    6    9    8     -0.33      0.40
    7    9    8      0.10     -0.79
    8    9    8      0.20     -0.69
    9    9    8      0.09      0.47
   10    9    8     -0.34      0.90
   11    9    8     -0.36     -0.33
   12    9    8      0.73     -0.66
   13    9    8      0.39      0.30
   14    9    8     -0.82     -0.22
   15    9    8     -0.31     -0.07
   16    9    8      0.59      0.92
   17    9    8      0.14     -0.08
    0   10    8      0.48      0.26
    1   10    8      1.18     -0.93
    2   10    8     -0.51     -0.06
    3   10    8     -0.59      0.58
    4   10    8      0.55     -0.07
    5   10    8      0.33      0.00
    6   10    8     -0.38     -0.12
    7   10    8     -0.43     -0.03
    8   10    8     -0.18     -0.03
    9   10    8      0.32     -0.47
   10   10    8      0.86      0.37
   11   10    8     -0.20      0.47
   12   10    8     -1.20      0.00
   13   10    8      0.18      0.05
   14   10    8      0.96     -0.86
   15   10    8     -0.05     -0.24
   16   10    8     -0.40      1.07
    1   11    8     -0.40      0.45
    2   11    8     -0.36     -0.59
    3   11    8      1.02     -0.80
    4   11    8      0.04      0.64
    5   11    8     -1.16      0.33
    6   11    8      0.21     -0.38
    7   11    8      0.74      0.09
    8   11    8      0.09      0.19
    9   11    8     -0.06      0.18
   10   11    8     -0.33     -0.27
   11   11    8     -0.29     -0.60
   12   11    8      0.30      0.48
   13   11    8      0.21      0.68
   14   11    8     -0.08     -0.30
    0   12    8     -0.25     -0.48
    1   12    8     -0.36     -0.40
    2   12    8      0.03      0.38
    3   12    8      0.14      0.53
    4   12    8      0.25     -0.04
    5   12    8      0.22     -0.21
    6   12    8     -0.11     -0.43
    7   12    8     -0.36     -0.38
    8   12    8     -0.28      0.55
    9   12    8      0.25      0.56
   10   12    8      0.42     -0.27
   11   12    8     -0.18     -0.25
    1   13    8      0.25      0.01
    2   13    8      0.60     -0.22
    3   13    8     -0.39      0.12
    4   13    8     -1.36     -0.56
    5   13    8      0.11     -0.27
    6   13    8      1.73      1.30
    7   13    8     -0.05      0.11
    8   13    8     -1.22     -0.95
    2    0    7     -0.29     -0.52
    4    0    7      0.97      0.58
    6    0    7     -0.34     -0.52
    8    0    7     -0.28      0.23
   10    0    7     -0.15      0.30
   12    0    7     -0.53     -0.71
   14    0    7      1.14      0.88
   16    0    7      0.01     -0.81
   18    0    7     -0.32      0.35
   20    0    7     -0.57      0.20
   22    0    7      0.65     -0.20
    0    1    7     -5.04     -2.18
    1    1    7     -0.93      0.03
    2    1    7      3.77      2.30
    3    1    7      0.79     -0.87
    4    1    7     -1.79     -1.82
    5    1    7     -1.21      1.43
    6    1    7      1.02      0.64
    7    1    7      0.89     -0.49
    8    1    7     -0.49      0.15
    9    1    7     -0.12     -1.08
   10    1    7     -0.41     -0.33
   11    1    7      0.40      1.45
   12    1    7      0.45      0.28
   13    1    7     -0.28     -0.70
   14    1    7      0.18     -0.21
   15    1    7     -0.38      0.22
   16    1    7     -0.32      0.08
   17    1    7     -0.23     -0.31
   18    1    7      0.28      0.16
   19    1    7      1.00      0.28
   20    1    7     -0.32     -0.14
   21    1    7     -0.69      0.01
   22    1    7      0.04     -0.25
   23    1    7      0.32     -0.19
    1    2    7      0.05      0.55
    2    2    7      0.25      0.59
    3    2    7     -0.08     -1.52
    4    2    7      0.15     -0.17
    5    2    7      0.21      1.74
    6    2    7     -0.42     -0.40
    7    2    7     -0.58     -1.22
    8    2    7      0.43      0.30
    9    2    7      0.51      0.53
   10    2    7     -0.43     -0.01
   11    2    7      0.01      0.03
   12    2    7      0.01      0.00
   13    2    7     -0.07     -0.43
   14    2    7      0.44     -0.01
   15    2    7     -0.24      0.76
   16    2    7     -0.34     -0.27
   17    2    7      0.49     -0.92
   18    2    7     -0.01      0.64
   19    2    7     -0.63      0.68
   20    2    7      0.39     -0.66
   21    2    7      0.22     -0.38
   22    2    7     -0.42      0.36
   23    2    7      0.40      0.43
    0    3    7     -1.01     -2.90
    1    3    7      0.94      0.31
    2    3    7      0.91      1.92
    3    3    7     -0.72     -0.93
    4    3    7     -0.93     -0.39
    5    3    7      0.22      0.72
    6    3    7      0.92      0.11
    7    3    7      0.16      0.01
    8    3    7     -0.37     -0.57
    9    3    7     -0.28     -0.37
   10    3    7      0.17      0.73
   11    3    7      0.07      0.28
   12    3    7     -0.32     -0.51
   13    3    7      0.29     -0.08
   14    3    7     -0.15      0.41
   15    3    7     -0.16      0.26
   16    3    7      0.25     -0.78
   17    3    7     -0.13     -0.32
   18    3    7      0.62      1.14
   19    3    7     -0.09     -0.64
   20    3    7     -1.20     -0.90
   21    3    7      0.19      1.46
   22    3    7      0.97      0.32
   23    3    7      0.09     -0.78
    1    4    7      0.06     -0.01
    2    4    7     -0.01     -0.22
    3    4    7      0.04     -0.09
    4    4    7      0.18      0.37
    5    4    7     -0.15      0.39
    6    4    7     -0.21      0.02
    7    4    7      0.14     -0.49
    8    4    7      0.40     -0.43
    9    4    7     -0.39      0.10
   10    4    7     -0.64      0.56
   11    4    7      0.40      0.17
   12    4    7      0.63     -0.78
   13    4    7     -0.45      0.19
   14    4    7     -0.53      0.80
   15    4    7      1.04     -0.58
   16    4    7      0.07     -0.55
   17    4    7     -0.75      0.16
   18    4    7      0.18      0.27
   19    4    7     -0.49      0.77
   20    4    7      0.65      0.36
   21    4    7      0.84     -1.09
   22    4    7     -1.27     -0.88
    0    5    7     -0.55     -0.78
    1    5    7      0.39      0.01
    2    5    7      0.30      0.58
    3    5    7     -0.36      0.25
    4    5    7     -0.09      0.16
    5    5    7      0.23     -0.25
    6    5    7      0.15     -1.09
    7    5    7     -0.19      0.14
    8    5    7     -0.19      1.12
    9    5    7     -0.03     -0.26
   10    5    7      0.21     -0.35
   11    5    7      0.19      0.34
   12    5    7     -0.02     -0.17
   13    5    7      0.13     -0.40
   14    5    7     -0.04      0.27
   15    5    7     -0.50      0.82
   16    5    7     -0.42     -0.24
   17    5    7      0.93     -1.08
   18    5    7      0.51      0.01
   19    5    7     -1.37      0.43
   20    5    7     -0.03      0.30
   21    5    7      1.01      0.38
   22    5    7     -0.09     -0.26
    1    6    7      0.37      0.42
    2    6    7     -0.13      0.54
    3    6    7     -0.72     -0.95
    4    6    7     -0.16     -0.36
    5    6    7      0.51      1.08
    6    6    7      0.31     -0.21
    7    6    7      0.08     -1.01
    8    6    7      0.09      0.13
    9    6    7     -0.59      0.79
   10    6    7     -0.47      0.34
   11    6    7      0.58     -0.52
   12    6    7      0.44     -0.26
   13    6    7     -0.45      0.36
   14    6    7     -0.26      0.10
   15    6    7      0.32     -0.24
   16    6    7      0.20     -0.31
   17    6    7      0.04      0.07
   18    6    7     -0.34      0.25
   19    6    7     -0.18      0.07
   20    6    7      0.49      0.22
   21    6    7     -0.03     -0.14
    0    7    7     -0.67     -0.82
    1    7    7     -0.28      0.09
    2    7    7      0.32      0.71
    3    7    7      0.55     -0.01
    4    7    7      0.16     -0.39
    5    7    7     -0.22      0.12
    6    7    7     -0.35     -0.18
    7    7    7     -0.19     -0.22
    8    7    7      0.33      0.61
    9    7    7      0.05      0.14
   10    7    7     -0.03     -0.43
   11    7    7      0.12      0.00
   12    7    7     -0.40      0.11
   13    7    7      0.13     -0.06
   14    7    7      0.85     -0.31
   15    7    7     -0.52     -0.03
   16    7    7     -1.04      0.51
   17    7    7      0.68      0.30
   18    7    7      0.69     -0.27
   19    7    7     -0.56     -0.53
   20    7    7     -0.32     -0.05
    1    8    7     -0.36      0.16
    2    8    7     -0.25     -0.47
    3    8    7      0.45     -0.28
    4    8    7     -0.16      0.70
    5    8    7      0.56     -0.03
    6    8    7      0.30     -0.33
    7    8    7     -1.49      0.61
    8    8    7      0.20     -0.18
    9    8    7      1.43     -0.75
   10    8    7     -0.51      0.06
   11    8    7     -0.89      0.11
   12    8    7      0.17      0.34
   13    8    7      0.41      0.54
   14    8    7      0.37     -0.50
   15    8    7      0.00     -0.46
   16    8    7     -0.56      0.55
   17    8    7     -0.22     -0.07
   18    8    7      0.33     -0.48
   19    8    7      0.22      0.46
    0    9    7      0.12     -0.55
    1    9    7      0.35     -0.79
    2    9    7     -0.20      0.55
    3    9    7     -0.53      0.22
    4    9    7      0.26     -0.54
    5    9    7      0.39      0.06
    6    9    7     -0.03      0.57
    7    9    7      0.04      0.03
    8    9    7     -0.19     -0.67
    9    9    7     -0.18     -0.20
   10    9    7      0.09      0.69
   11    9    7      0.07      0.57
   12    9    7      0.12     -0.45
   13    9    7     -0.17     -0.74
   14    9    7     -0.16      0.22
   15    9    7      0.37      0.31
   16    9    7      0.11     -0.21
   17    9    7     -0.32      0.12
   18    9    7     -0.07      0.09
    1   10    7      0.21      0.05
    2   10    7      0.11     -0.42
    3   10    7     -0.36      0.06
    4   10    7      0.38      0.30
    5   10    7      0.16     -0.48
    6   10    7     -0.75      0.13
    7   10    7     -0.05      0.69
    8   10    7      0.47     -0.27
    9   10    7     -0.13     -0.34
   10   10    7     -0.22      0.13
   11   10    7      0.54     -0.26
   12   10    7      0.23     -0.18
   13   10    7     -0.52      0.32
   14   10    7     -0.10      0.28
   15   10    7     -0.01      0.17
   16   10    7     -0.06     -0.09
    0   11    7     -2.04      1.21
    1   11    7     -0.62      0.56
    2   11    7      1.49     -1.12
    3   11    7      0.30     -0.51
    4   11    7     -0.36      0.54
    5   11    7     -0.08      0.57
    6   11    7     -0.45      0.64
    7   11    7      0.11     -0.38
    8   11    7      0.79     -1.41
    9   11    7     -0.16     -0.28
   10   11    7     -0.82      1.00
   11   11    7      0.01      0.77
   12   11    7      0.53      0.00
   13   11    7      0.21     -0.63
   14   11    7     -0.15     -0.40
    1   12    7      0.47     -0.51
    2   12    7      0.20      0.01
    3   12    7     -1.08      1.35
    4   12    7     -0.22      0.23
    5   12    7      0.84     -1.55
    6   12    7     -0.51      0.09
    7   12    7      0.07      0.86
    8   12    7      1.59     -1.37
    9   12    7     -0.87      0.19
   10   12    7     -1.59      2.13
   11   12    7      0.84     -0.60
   12   12    7      0.58     -1.30
    0   13    7      0.16      0.64
    1   13    7      0.36     -0.12
    2   13    7      0.09     -0.40
    3   13    7     -0.48     -0.57
    4   13    7     -0.41      0.02
    5   13    7      0.52      1.23
    6   13    7      0.11     -0.16
    7   13    7     -0.31     -0.88
    8   13    7      0.54      0.59
    9   13    7     -0.04     -0.01
    1   14    7     -0.11     -0.10
    2   14    7      0.27     -0.29
    2    0    6     24.09      9.40
    4    0    6    -19.72     -4.43
    6    0    6     12.79      1.86
    8    0    6     -6.99     -2.71
   10    0    6      4.50      4.08
   12    0    6     -3.81     -3.51
   14    0    6      2.86      1.72
   16    0    6     -1.37     -0.15
   18    0    6      0.29     -0.64
   20    0    6     -0.25      0.55
   22    0    6      0.51     -0.20
   24    0    6     -0.31      0.08
    1    1    6      1.26      0.93
    2    1    6      1.00      1.09
    3    1    6     -3.27     -1.80
    4    1    6     -1.11     -1.56
    5    1    6      3.28      0.73
    6    1    6      1.29      1.48
    7    1    6     -1.26      1.05
    8    1    6     -1.30     -0.75
    9    1    6     -0.37     -1.13
   10    1    6      0.51     -0.12
   11    1    6      0.13     -0.14
   12    1    6      0.16     -0.08
   13    1    6      0.36      0.78
   14    1    6     -0.34      0.85
   15    1    6     -0.10     -0.69
   16    1    6      0.54     -1.05
   17    1    6      0.17      0.46
   18    1    6     -0.57      1.17
   19    1    6     -0.65     -0.23
   20    1    6      0.80     -1.35
   21    1    6      0.54      0.15
   22    1    6     -1.65      1.03
   23    1    6     -0.01      0.03
   24    1    6      1.78     -0.41
    0    2    6     -2.07     -2.48
    1    2    6     -4.05     -1.97
    2    2    6      1.54      2.08
    3    2    6      3.01      1.02
    4    2    6     -0.64     -0.84
    5    2    6     -2.60     -0.31
    6    2    6      0.01      0.06
    7    2    6      2.02      0.00
    8    2    6      0.62     -0.58
    9    2    6     -0.53      0.29
   10    2    6     -1.15      0.78
   11    2    6     -0.48     -0.09
   12    2    6      0.95     -0.86
   13    2    6      0.52     -0.24
   14    2    6     -0.26      1.57
   15    2    6     -0.19     -0.06
   16    2    6     -0.08     -1.40
   17    2    6     -0.20      0.59
   18    2    6      0.13      0.67
   19    2    6      0.03     -0.87
   20    2    6     -0.41     -0.44
   21    2    6      0.30      0.73
   22    2    6      0.66     -0.10
   23    2    6      0.27     -0.23
    1    3    6     -0.76     -0.55
    2    3    6      1.09      0.25
    3    3    6      1.54      0.68
    4    3    6     -0.84      0.08
    5    3    6     -1.22     -0.20
    6    3    6      0.10     -0.20
    7    3    6      0.77      0.12
    8    3    6      0.10     -0.08
    9    3    6     -0.65      0.10
   10    3    6     -0.01     -0.26
   11    3    6      0.59     -0.12
   12    3    6     -0.10      0.83
   13    3    6     -0.45      0.09
   14    3    6      0.06     -0.57
   15    3    6      0.47     -0.59
   16    3    6      0.34      0.02
   17    3    6     -0.59      0.72
   18    3    6     -0.80      0.16
   19    3    6      0.16     -0.52
   20    3    6      1.17     -0.08
   21    3    6      0.55      0.51
   22    3    6     -1.32     -0.13
   23    3    6     -0.53      0.06
    0    4    6     -0.25      0.71
    1    4    6      0.41      0.74
    2    4    6      0.79     -0.33
    3    4    6     -0.26     -0.77
    4    4    6     -1.62     -0.32
    5    4    6      0.35      0.21
    6    4    6      1.75      0.79
    7    4    6     -0.36      0.15
    8    4    6     -1.38     -0.66
    9    4    6      0.03      0.17
   10    4    6      0.79      0.05
   11    4    6      0.29     -0.30
   12    4    6     -0.12      0.13
   13    4    6     -0.34      0.12
   14    4    6     -0.26     -0.14
   15    4    6      0.15      0.15
   16    4    6      0.11      0.51
   17    4    6      0.12     -0.45
   18    4    6      0.15     -0.45
   19    4    6     -0.51      0.30
   20    4    6      0.05     -0.07
   21    4    6      0.84      0.20
   22    4    6     -0.22      0.14
   23    4    6     -0.64     -0.27
    1    5    6     -0.59     -0.71
    2    5    6      0.53     -0.06
    3    5    6      1.34      1.78
    4    5    6     -0.65     -0.42
    5    5    6     -1.23     -2.16
    6    5    6      0.40      1.32
    7    5    6      0.62      1.80
    8    5    6     -0.13     -1.10
    9    5    6     -0.23     -1.08
   10    5    6      0.04      0.01
   11    5    6      0.16      0.49
   12    5    6     -0.16      0.34
   13    5    6     -0.04     -0.09
   14    5    6      0.45     -0.45
   15    5    6     -0.09      0.13
   16    5    6     -0.69      0.68
   17    5    6      0.17     -0.71
   18    5    6      0.69     -0.47
   19    5    6     -0.27      1.05
   20    5    6     -0.65      0.43
   21    5    6      0.14     -0.63
   22    5    6      0.53     -0.56
    0    6    6      1.33      1.53
    1    6    6      0.28      0.76
    2    6    6     -1.04     -1.17
    3    6    6     -0.70     -0.42
    4    6    6      0.56      0.49
    5    6    6      0.61      0.11
    6    6    6     -0.26      0.07
    7    6    6     -0.28     -0.53
    8    6    6      0.08     -0.32
    9    6    6      0.31      0.67
   10    6    6      0.03      0.02
   11    6    6     -0.48      0.19
   12    6    6      0.11      0.33
   13    6    6      0.48     -0.98
   14    6    6     -0.36     -0.17
   15    6    6     -0.28      1.29
   16    6    6      0.23     -0.11
   17    6    6     -0.06     -1.39
   18    6    6      0.05      0.15
   19    6    6      0.40      1.06
   20    6    6      0.09     -0.14
   21    6    6     -0.41     -0.68
    1    7    6     -0.14     -0.03
    2    7    6      0.00     -0.35
    3    7    6      0.15      0.26
    4    7    6     -0.05      0.08
    5    7    6      0.11     -0.39
    6    7    6      0.17      0.65
    7    7    6     -0.17     -0.03
    8    7    6      0.05     -0.81
    9    7    6      0.20      0.54
   10    7    6     -0.39      0.25
   11    7    6     -0.42     -0.07
   12    7    6      0.11      0.41
   13    7    6      0.51     -0.95
   14    7    6      0.46     -0.76
   15    7    6     -0.28      1.14
   16    7    6     -0.36      0.63
   17    7    6     -0.04     -0.55
   18    7    6     -0.23     -0.18
   19    7    6      0.21      0.18
   20    7    6      0.48     -0.16
    0    8    6     -0.19      0.63
    1    8    6      0.13     -0.54
    2    8    6      0.15     -0.78
    3    8    6     -0.15      0.37
    4    8    6      0.07      0.87
    5    8    6      0.19     -0.13
    6    8    6     -0.34     -0.66
    7    8    6     -0.22      0.05
    8    8    6      0.27      0.20
    9    8    6      0.28     -0.12
   10    8    6     -0.14      0.31
   11    8    6     -0.32      0.00
   12    8    6      0.34     -0.68
   13    8    6      0.18      0.09
   14    8    6     -0.29      0.86
   15    8    6      0.13      0.28
   16    8    6     -0.05     -0.68
   17    8    6     -0.49     -0.52
   18    8    6     -0.05      0.18
   19    8    6      0.60      0.14
    1    9    6     -0.01     -0.65
    2    9    6     -0.27      0.05
    3    9    6     -0.19      1.11
    4    9    6      0.42     -0.62
    5    9    6      0.44     -0.34
    6    9    6     -0.68      0.94
    7    9    6     -0.36     -0.21
    8    9    6      0.50     -0.51
    9    9    6      0.30      0.02
   10    9    6      0.26      0.13
   11    9    6     -0.55      0.19
   12    9    6     -0.41     -0.21
   13    9    6      0.58     -0.17
   14    9    6     -0.51      0.11
   15    9    6     -0.31      0.05
   16    9    6      1.28      0.23
   17    9    6      0.29      0.05
   18    9    6     -1.00     -0.29
    0   10    6      1.18     -0.59
    1   10    6     -0.13     -0.66
    2   10    6     -0.49      0.22
    3   10    6      0.49      0.32
    4   10    6     -0.39      0.24
    5   10    6     -0.20     -0.24
    6   10    6      0.31      0.04
    7   10    6     -0.15      0.53
    8   10    6     -0.10     -0.50
    9   10    6     -0.24     -0.78
   10   10    6      0.45      0.07
   11   10    6      0.49      0.83
   12   10    6     -0.73      0.89
   13   10    6     -0.10     -0.61
   14   10    6      0.48     -1.15
   15   10    6     -0.20      0.29
   16   10    6     -0.03      0.68
   17   10    6      0.02     -0.15
    1   11    6      0.30      0.02
    2   11    6     -0.49      0.56
    3   11    6     -0.33     -0.41
    4   11    6      0.55     -0.45
    5   11    6     -0.39      1.15
    6   11    6     -0.33      0.08
    7   11    6      0.78     -1.45
    8   11    6     -0.04      0.03
    9   11    6     -0.36      0.92
   10   11    6      0.26      0.03
   11   11    6      0.00     -0.20
   12   11    6      0.03     -0.14
   13   11    6      0.09     -0.01
   14   11    6     -0.30      0.09
   15   11    6     -0.33     -0.06
    0   12    6     -0.42     -0.53
    1   12    6     -0.12     -0.73
    2   12    6      0.30      0.45
    3   12    6      0.25      0.76
    4   12    6     -0.07     -0.34
    5   12    6      0.15     -0.85
    6   12    6     -0.06      0.34
    7   12    6     -0.46      0.76
    8   12    6      0.04     -0.15
    9   12    6      0.00     -0.55
   10   12    6     -0.02     -0.30
   11   12    6      0.49      0.43
   12   12    6     -0.12      0.47
    1   13    6      0.02     -0.04
    2   13    6      0.11     -0.39
    3   13    6      0.11      0.21
    4   13    6     -1.16      1.38
    5   13    6     -0.32     -0.43
    6   13    6      1.69     -2.13
    7   13    6      0.07      0.49
    8   13    6     -0.91      1.81
    9   13    6      0.36     -0.29
    0   14    6     -0.25     -0.58
    1   14    6      0.99     -0.32
    2   14    6     -0.09      0.40
    3   14    6     -0.91      0.15
    4   14    6      0.65     -0.23
    2    0    5      0.08      0.63
    4    0    5      0.61     -1.34
    6    0    5     -0.75      1.11
    8    0    5      0.05     -0.62
   10    0    5      0.43      0.69
   12    0    5     -0.80     -0.29
   14    0    5      1.00     -0.08
   16    0    5     -0.76     -0.60
   18    0    5      0.27      0.69
   20    0    5      0.21      0.18
   22    0    5      0.35     -0.40
   24    0    5     -1.27      0.26
    0    1    5    -10.87      4.80
    1    1    5     -1.09      1.12
    2    1    5     10.02     -3.58
    3    1    5      0.96     -0.52
    4    1    5     -6.94      1.41
    5    1    5     -1.22      0.50
    6    1    5      3.05     -0.85
    7    1    5      1.49     -0.64
    8    1    5     -0.79      1.41
    9    1    5     -1.49      0.24
   10    1    5     -0.18     -0.59
   11    1    5      1.40      0.17
   12    1    5      0.67     -0.62
   13    1    5     -0.82     -0.43
   14    1    5     -0.36      0.22
   15    1    5      0.10      0.45
   16    1    5     -0.26      0.64
   17    1    5      0.14      0.33
   18    1    5      0.41     -0.67
   19    1    5     -0.14     -1.01
   20    1    5     -0.05      0.10
   21    1    5     -0.26      0.67
   22    1    5     -0.43      0.51
   23    1    5      0.64     -0.15
   24    1    5      0.43     -0.53
    1    2    5      0.58      0.12
    2    2    5      1.20     -0.37
    3    2    5     -2.10     -0.26
    4    2    5     -0.21      0.08
    5    2    5      2.94      0.51
    6    2    5     -1.03      0.50
    7    2    5     -2.05     -0.40
    8    2    5      0.98     -0.48
    9    2    5      0.43     -0.63
   10    2    5     -0.48     -0.19
   11    2    5      0.59      1.18
   12    2    5      0.18      0.96
   13    2    5     -0.85     -0.71
   14    2    5     -0.05     -1.18
   15    2    5      0.64      0.49
   16    2    5     -0.24      0.35
   17    2    5     -0.14     -0.64
   18    2    5      0.70      0.83
   19    2    5     -0.11      0.50
   20    2    5     -0.66     -1.00
   21    2    5     -0.17      0.09
   22    2    5      0.33      0.34
   23    2    5      0.43     -0.57
   24    2    5     -0.50     -0.04
    0    3    5     -2.74      0.15
    1    3    5      1.37     -1.63
    2    3    5      2.04     -0.50
    3    3    5     -2.47      1.15
    4    3    5     -1.04      1.34
    5    3    5      2.00     -0.59
    6    3    5      0.77     -1.86
    7    3    5     -0.62      0.22
    8    3    5     -0.67      1.28
    9    3    5      0.03     -0.07
   10    3    5      0.58     -0.15
   11    3    5     -0.22      0.14
   12    3    5     -0.45     -0.50
   13    3    5      0.63     -0.17
   14    3    5      0.22      0.59
   15    3    5     -0.51     -0.07
   16    3    5     -0.40     -0.33
   17    3    5      0.28      0.13
   18    3    5      0.59     -0.02
   19    3    5     -1.04      0.12
   20    3    5     -0.47      0.15
   21    3    5      1.51     -0.24
   22    3    5      0.52     -0.17
   23    3    5     -0.45      0.09
    1    4    5      0.15      0.03
    2    4    5     -0.37      0.83
    3    4    5     -0.05     -0.28
    4    4    5      0.55     -0.81
    5    4    5     -0.27      0.67
    6    4    5      0.01      0.09
    7    4    5      0.41     -0.90
    8    4    5     -0.30      0.08
    9    4    5     -0.57      0.71
   10    4    5      0.17      0.32
   11    4    5      0.30     -0.08
   12    4    5     -0.43     -0.54
   13    4    5      0.20      0.00
   14    4    5      0.42      0.67
   15    4    5     -0.16     -0.41
   16    4    5     -0.11     -0.42
   17    4    5     -0.08     -0.32
   18    4    5      0.21     -0.05
   19    4    5      0.42      1.39
   20    4    5      0.21     -0.10
   21    4    5     -0.80     -0.76
   22    4    5     -0.97      0.44
   23    4    5      0.47     -0.35
    0    5    5     -0.05     -0.26
    1    5    5     -0.28     -1.51
    2    5    5     -0.27      0.28
    3    5    5      0.40      1.02
    4    5    5      0.95      0.06
    5    5    5     -0.23     -0.23
    6    5    5     -1.64     -0.72
    7    5    5     -0.20     -0.16
    8    5    5      1.66      1.03
    9    5    5      0.18      0.27
   10    5    5     -0.83     -0.69
   11    5    5      0.13     -0.16
   12    5    5      0.09      0.02
   13    5    5     -0.25     -0.45
   14    5    5      0.17      0.38
   15    5    5      0.66      0.91
   16    5    5     -0.28     -0.40
   17    5    5     -0.81     -0.92
   18    5    5     -0.05      0.26
   19    5    5     -0.35      0.81
   20    5    5      0.48      0.04
   21    5    5      1.22     -0.29
   22    5    5     -0.17     -0.25
    1    6    5      0.56     -0.34
    2    6    5      0.42      0.37
    3    6    5     -1.21      0.68
    4    6    5     -0.13      0.03
    5    6    5      1.39     -0.33
    6    6    5     -0.30     -0.23
    7    6    5     -1.34     -0.57
    8    6    5      0.17     -0.53
    9    6    5      0.81      1.15
   10    6    5      0.15      1.04
   11    6    5     -0.13     -0.88
   12    6    5     -0.18     -0.41
   13    6    5     -0.04      0.35
   14    6    5      0.19     -0.19
   15    6    5     -0.23      0.03
   16    6    5     -0.27     -0.37
   17    6    5      0.48     -0.17
   18    6    5     -0.20      1.39
   19    6    5     -0.26      0.07
   20    6    5      1.05     -1.60
   21    6    5     -0.26     -0.08
   22    6    5     -1.11      0.84
    0    7    5     -0.85      0.09
    1    7    5     -0.17     -0.06
    2    7    5      0.66     -0.07
    3    7    5      0.15     -0.38
    4    7    5     -0.30      0.15
    5    7    5     -0.10      0.37
    6    7    5     -0.27     -0.25
    7    7    5     -0.01     -0.15
    8    7    5      0.74      0.21
    9    7    5      0.20      0.13
   10    7    5     -0.38     -0.25
   11    7    5     -0.32      0.02
   12    7    5     -0.14      0.49
   13    7    5      0.23     -0.22
   14    7    5     -0.19     -0.76
   15    7    5     -0.06      0.05
   16    7    5      0.58      0.83
   17    7    5      0.22      0.34
   18    7    5     -0.16     -0.74
   19    7    5     -0.69     -0.46
   20    7    5     -0.41      0.78
   21    7    5      0.81      0.25
    1    8    5     -0.02     -0.02
    2    8    5     -0.19     -0.32
    3    8    5      0.08      0.20
    4    8    5      0.35      0.67
    5    8    5     -0.07     -0.55
    6    8    5     -0.22     -0.47
    7    8    5      0.14      0.85
    8    8    5      0.07      0.00
    9    8    5     -0.29     -0.85
   10    8    5     -0.31     -0.07
   11    8    5      0.10      0.59
   12    8    5      0.57      0.48
   13    8    5      0.29     -0.11
   14    8    5     -0.55     -0.61
   15    8    5     -0.31     -0.34
   16    8    5      0.36      0.50
   17    8    5      0.02      0.43
   18    8    5      0.04     -0.35
   19    8    5      0.25     -0.20
   20    8    5     -0.46      0.13
    0    9    5     -0.49     -0.64
    1    9    5     -0.88     -0.59
    2    9    5      0.45      0.51
    3    9    5      0.15      0.69
    4    9    5     -0.39     -0.27
    5    9    5      0.31     -0.57
    6    9    5      0.35      0.20
    7    9    5     -0.17      0.11
    8    9    5     -0.32     -0.50
    9    9    5     -0.17      0.15
   10    9    5      0.32      0.93
   11    9    5      0.52      0.13
   12    9    5     -0.13     -0.91
   13    9    5     -0.48     -0.41
   14    9    5     -0.14      0.47
   15    9    5     -0.08      0.11
   16    9    5      0.12     -0.12
   17    9    5      0.48      0.23
   18    9    5     -0.02      0.00
    1   10    5      0.17     -0.34
    2   10    5     -0.27     -0.25
    3   10    5     -0.19      0.65
    4   10    5      0.19      0.07
    5   10    5     -0.17     -0.44
    6   10    5      0.14      0.18
    7   10    5      0.38      0.18
    8   10    5     -0.27     -0.18
    9   10    5     -0.36      0.14
   10   10    5      0.10      0.01
   11   10    5      0.20     -0.51
   12   10    5      0.03      0.19
   13   10    5     -0.09      0.31
   14   10    5     -0.07     -0.25
   15   10    5      0.10      0.26
   16   10    5      0.07      0.11
   17   10    5      0.09     -0.31
    0   11    5      0.59      2.62
    1   11    5     -0.11      1.08
    2   11    5     -0.70     -1.81
    3   11    5     -0.21     -0.55
    4   11    5      0.48      0.23
    5   11    5      0.67      0.21
    6   11    5      0.34      0.76
    7   11    5     -0.72     -0.31
    8   11    5     -0.81     -0.97
    9   11    5     -0.03      0.58
   10   11    5      0.37      0.72
   11   11    5      0.87     -0.53
   12   11    5      0.37     -0.19
   13   11    5     -0.90      0.07
   14   11    5     -0.60     -0.13
   15   11    5      0.37      0.16
    1   12    5     -0.23     -0.42
    2   12    5      0.36     -0.79
    3   12    5      0.71      1.22
    4   12    5      0.05      1.02
    5   12    5     -0.87     -1.55
    6   12    5     -0.05      0.23
    7   12    5      0.37      0.80
    8   12    5     -1.18     -2.48
    9   12    5      0.16      0.60
   10   12    5      2.26      3.33
   11   12    5     -0.11     -1.25
   12   12    5     -1.78     -1.84
   13   12    5     -0.31      0.68
    0   13    5      0.93      0.66
    1   13    5      0.32     -0.15
    2   13    5     -0.84     -0.66
    3   13    5     -0.33      0.15
    4   13    5      0.48      0.71
    5   13    5      0.77      0.01
    6   13    5     -0.19     -0.57
    7   13    5     -0.92     -0.13
    8   13    5      0.30      0.12
    9   13    5      0.31      0.14
   10   13    5     -0.36      0.10
    1   14    5      0.09     -0.09
    2   14    5     -0.28     -0.38
    3   14    5     -0.12      0.24
    4   14    5      0.00      0.22
    5   14    5      0.03     -0.35
    2    0    4     36.63    -43.25
    4    0    4    -20.56     29.88
    6    0    4     10.53    -16.77
    8    0    4     -6.06      7.09
   10    0    4      3.64     -2.20
   12    0    4     -2.48      1.74
   14    0    4      1.61     -2.78
   16    0    4     -0.53      2.72
   18    0    4     -0.44     -1.08
   20    0    4      0.68     -0.01
   22    0    4     -0.07     -0.59
   24    0    4     -0.31      0.82
    1    1    4      2.42     -2.81
    2    1    4      1.95     -0.89
    3    1    4     -5.08      6.15
    4    1    4     -2.57      0.99
    5    1    4      4.25     -5.54
    6    1    4      2.30     -0.72
    7    1    4     -1.95      2.70
    8    1    4     -1.50      0.48
    9    1    4      0.15      0.25
   10    1    4      0.17     -0.20
   11    1    4      0.01     -1.09
   12    1    4      0.76     -0.06
   13    1    4      0.72      0.34
   14    1    4     -0.79      0.29
   15    1    4     -0.90     -0.17
   16    1    4      0.32     -0.52
   17    1    4      0.80      0.12
   18    1    4      0.19      0.40
   19    1    4     -0.94      0.03
   20    1    4     -0.21     -0.26
   21    1    4      0.67      0.36
   22    1    4     -0.07      0.92
   23    1    4     -0.03     -0.31
   24    1    4      0.20     -1.43
    0    2    4     -2.15      1.38
    1    2    4     -4.54      1.18
    2    2    4      1.57     -0.51
    3    2    4      2.43      0.12
    4    2    4      0.04     -0.28
    5    2    4     -0.24     -0.90
    6    2    4     -1.00      0.12
    7    2    4     -0.72      0.78
    8    2    4      0.34     -0.60
    9    2    4      1.09     -0.62
   10    2    4      0.07      1.40
   11    2    4     -1.00      0.57
   12    2    4     -0.18     -1.44
   13    2    4      0.35     -0.30
   14    2    4      0.91      0.99
   15    2    4      0.07      0.21
   16    2    4     -0.84     -0.56
   17    2    4      0.24     -0.30
   18    2    4     -0.13      0.57
   19    2    4     -0.78      0.32
   20    2    4      0.65     -0.43
   21    2    4      0.80     -0.34
   22    2    4     -0.78     -0.54
   23    2    4     -0.38      0.05
   24    2    4      0.54      1.03
    1    3    4     -1.19      0.79
    2    3    4      0.76     -1.10
    3    3    4      1.86     -1.82
    4    3    4     -0.85      1.49
    5    3    4     -1.01      1.50
    6    3    4      0.51     -1.03
    7    3    4      0.44     -0.76
    8    3    4     -0.48      0.54
    9    3    4      0.13      0.80
   10    3    4      0.18     -0.33
   11    3    4     -0.07     -0.99
   12    3    4      0.52      0.11
   13    3    4     -0.48      0.75
   14    3    4     -0.34     -0.23
   15    3    4      0.02     -0.71
   16    3    4     -0.26      0.51
   17    3    4      0.68      0.71
   18    3    4      0.03     -0.46
   19    3    4     -0.72     -0.20
   20    3    4      0.59      0.28
   21    3    4      0.49     -0.40
   22    3    4     -1.00      0.17
   23    3    4      0.07      0.54
    0    4    4     -0.01     -0.95
    1    4    4     -0.20      0.48
    2    4    4      0.52      0.57
    3    4    4     -0.21     -0.86
    4    4    4     -1.21      0.27
    5    4    4      0.25      0.34
    6    4    4      1.53     -0.68
    7    4    4      0.01      0.27
    8    4    4     -1.22      0.53
    9    4    4      0.16     -0.11
   10    4    4      0.26     -0.33
   11    4    4     -0.52     -0.32
   12    4    4      0.35      0.15
   13    4    4      0.22      0.61
   14    4    4     -0.20      0.01
   15    4    4      0.67     -0.30
   16    4    4      0.01      0.14
   17    4    4     -1.46     -0.56
   18    4    4      0.12     -0.13
   19    4    4      1.45      1.13
   20    4    4     -0.25     -0.28
   21    4    4     -0.52     -1.29
   22    4    4      0.12      0.26
   23    4    4     -0.16      0.97
    1    5    4     -0.89      0.06
    2    5    4      0.58     -0.33
    3    5    4      1.90     -0.08
    4    5    4     -1.08      0.49
    5    5    4     -1.79     -0.13
    6    5    4      1.34     -0.33
    7    5    4      1.18      0.26
    8    5    4     -0.67      0.34
    9    5    4     -0.55     -0.03
   10    5    4     -0.17     -0.48
   11    5    4      0.16     -0.07
   12    5    4      0.13      0.41
   13    5    4     -0.08     -0.13
   14    5    4     -0.26     -0.47
   15    5    4      0.11      0.23
   16    5    4      0.98      0.41
   17    5    4     -0.12     -0.48
   18    5    4     -1.10      0.04
   19    5    4      0.24      0.89
   20    5    4      0.57      0.03
   21    5    4     -0.47     -0.69
   22    5    4     -0.22     -0.49
   23    5    4      0.45      0.20
    0    6    4      1.00     -0.75
    1    6    4      0.82      0.44
    2    6    4     -0.91      0.18
    3    6    4     -0.46      0.25
    4    6    4      0.82      0.71
    5    6    4      0.20     -0.62
    6    6    4     -0.48     -0.78
    7    6    4     -0.74      0.35
    8    6    4     -0.13      0.21
    9    6    4      0.98     -0.21
   10    6    4      0.04      0.10
   11    6    4     -0.09      0.37
   12    6    4      0.62     -0.20
   13    6    4     -0.60     -0.45
   14    6    4     -0.56      0.32
   15    6    4      0.58      0.54
   16    6    4     -0.07     -0.08
   17    6    4     -0.54     -0.51
   18    6    4      0.30     -0.42
   19    6    4      0.60     -0.10
   20    6    4     -0.14      0.47
   21    6    4     -0.57      0.57
   22    6    4     -0.05     -0.13
    1    7    4     -0.12      0.35
    2    7    4     -0.41      0.12
    3    7    4      0.26     -0.53
    4    7    4      0.36     -0.02
    5    7    4     -0.31      0.15
    6    7    4      0.19     -0.04
    7    7    4      0.20     -0.06
    8    7    4     -0.40     -0.09
    9    7    4      0.27      0.19
   10    7    4      0.08      0.16
   11    7    4     -0.34      0.03
   12    7    4      0.29      0.01
   13    7    4     -0.35     -0.35
   14    7    4     -0.57     -0.25
   15    7    4      0.89      0.25
   16    7    4      0.63      0.21
   17    7    4     -0.94      0.10
   18    7    4     -0.21     -0.14
   19    7    4      0.84     -0.27
   20    7    4     -0.33      0.40
   21    7    4     -0.49      0.15
    0    8    4      0.07      0.40
    1    8    4     -0.16     -0.22
    2    8    4     -0.33     -0.43
    3    8    4     -0.13      0.19
    4    8    4      0.80      0.35
    5    8    4      0.28     -0.29
    6    8    4     -0.88     -0.11
    7    8    4     -0.13      0.31
    8    8    4      0.30     -0.16
    9    8    4      0.02     -0.19
   10    8    4      0.35      0.51
   11    8    4     -0.30     -0.03
   12    8    4     -0.61     -0.87
   13    8    4      0.45      0.25
   14    8    4      0.69      0.68
   15    8    4      0.09     -0.11
   16    8    4     -0.47     -0.19
   17    8    4     -0.69     -0.15
   18    8    4      0.03      0.25
   19    8    4      0.51      0.02
   20    8    4      0.13     -0.56
    1    9    4     -0.39     -0.19
    2    9    4      0.54      0.28
    3    9    4      0.66      0.51
    4    9    4     -0.95     -0.98
    5    9    4     -0.24     -0.48
    6    9    4      0.76      1.61
    7    9    4      0.02      0.28
    8    9    4     -0.23     -1.05
    9    9    4     -0.08     -0.27
   10    9    4      0.05     -0.27
   11    9    4      0.24      0.30
   12    9    4      0.05      0.58
   13    9    4     -0.38     -0.01
   14    9    4     -0.64      0.23
   15    9    4      0.08     -0.15
   16    9    4      1.12     -0.81
   17    9    4      0.46     -0.24
   18    9    4     -0.79      0.65
   19    9    4     -0.61      0.48
    0   10    4      0.11     -0.69
    1   10    4      0.57     -0.04
    2   10    4     -0.27     -0.01
    3   10    4     -0.25     -0.63
    4   10    4      0.34      0.74
    5   10    4      0.18      0.59
    6   10    4      0.21     -0.23
    7   10    4     -0.06     -0.12
    8   10    4     -0.83     -0.40
    9   10    4     -0.49      0.09
   10   10    4      0.55     -0.08
   11   10    4      0.93      0.01
   12   10    4      0.11      1.01
   13   10    4     -0.80     -0.39
   14   10    4     -0.17     -1.31
   15   10    4      0.48      0.37
   16   10    4      0.00      0.84
   17   10    4     -0.30      0.10
    1   11    4     -0.08     -0.24
    2   11    4      0.30      0.68
    3   11    4      0.03      0.19
    4   11    4     -0.41     -1.12
    5   11    4      0.35      0.54
    6   11    4      0.24      1.21
    7   11    4     -0.88     -0.94
    8   11    4     -0.25     -0.60
    9   11    4      1.10      0.67
   10   11    4      0.67     -0.32
   11   11    4     -0.64     -0.57
   12   11    4     -0.83      0.37
   13   11    4      0.12      0.72
   14   11    4      0.24      0.36
   15   11    4     -0.04     -0.47
    0   12    4     -0.58     -0.26
    1   12    4     -0.63     -0.82
    2   12    4      0.42      0.12
    3   12    4      0.48      0.25
    4   12    4     -0.27      0.07
    5   12    4     -0.53     -0.27
    6   12    4      0.57     -0.06
    7   12    4      0.79      0.50
    8   12    4     -0.65     -0.05
    9   12    4     -0.98     -0.13
   10   12    4     -0.02      0.08
   11   12    4      0.78     -0.28
   12   12    4      0.47      0.08
   13   12    4     -0.20      0.22
    1   13    4      0.17      0.03
    2   13    4     -0.08      0.22
    3   13    4     -0.11     -0.15
    4   13    4      0.86      0.47
    5   13    4     -0.40      0.31
    6   13    4     -1.65     -1.01
    7   13    4      0.54     -0.19
    8   13    4      1.70      0.63
    9   13    4     -0.15     -0.24
   10   13    4     -1.05     -0.11
    0   14    4     -2.11      0.03
    1   14    4      0.09     -0.16
    2   14    4      1.25      0.26
    3   14    4     -0.55      0.90
    4   14    4     -0.12     -0.82
    5   14    4      0.81     -1.14
    6   14    4      0.03      0.91
    2    0    3      1.99      0.31
    4    0    3     -1.79     -1.44
    6    0    3      1.17      1.90
    8    0    3     -1.23     -1.14
   10    0    3      1.11      0.59
   12    0    3     -0.77     -0.47
   14    0    3      0.57      0.36
   16    0    3     -0.77     -0.21
   18    0    3      0.71      0.18
   20    0    3      0.06     -0.30
   22    0    3     -0.26     -0.50
   24    0    3     -0.13      1.46
    0    1    3     -3.55     16.83
    1    1    3     -1.89      3.40
    2    1    3      2.89    -14.64
    3    1    3      1.76     -2.20
    4    1    3     -2.19      8.53
    5    1    3     -1.69      1.44
    6    1    3      1.07     -2.85
    7    1    3      0.57     -1.52
    8    1    3      1.31      1.29
    9    1    3      0.69      1.54
   10    1    3     -1.60     -0.94
   11    1    3     -0.42     -1.24
   12    1    3     -0.34     -0.42
   13    1    3     -0.30      0.66
   14    1    3      0.59      0.74
   15    1    3      0.37     -0.05
   16    1    3      0.65      0.19
   17    1    3      0.23     -0.26
   18    1    3     -1.06     -0.63
   19    1    3     -1.07      0.11
   20    1    3      0.39      0.28
   21    1    3      0.88      0.70
   22    1    3      0.50      0.26
   23    1    3     -0.09     -1.24
   24    1    3     -0.55     -0.46
    1    2    3      0.55      0.43
    2    2    3     -0.14     -0.62
    3    2    3     -0.62      0.21
    4    2    3      1.00     -0.30
    5    2    3      0.48     -1.54
    6    2    3     -1.18      1.25
    7    2    3     -0.66      1.33
    8    2    3      0.99     -0.89
    9    2    3     -0.84     -0.34
   10    2    3     -1.18      0.00
   11    2    3      1.94     -0.45
   12    2    3      1.12      0.48
   13    2    3     -0.81      0.93
   14    2    3     -0.81     -0.44
   15    2    3      0.13     -0.48
   16    2    3     -0.22      0.11
   17    2    3     -0.48     -0.48
   18    2    3      1.64      0.14
   19    2    3      0.42      0.52
   20    2    3     -1.14     -0.16
   21    2    3     -0.11      0.23
   22    2    3     -0.26      0.12
   23    2    3     -0.17     -0.46
   24    2    3      0.10     -0.05
    0    3    3     -0.76      2.61
    1    3    3     -0.18     -2.09
    2    3    3      0.47     -2.29
    3    3    3     -0.25      3.12
    4    3    3      0.12      1.85
    5    3    3      0.22     -2.57
    6    3    3     -0.94     -1.71
    7    3    3     -0.05      0.93
    8    3    3      1.43      1.24
    9    3    3     -0.08     -0.06
   10    3    3     -0.42     -0.42
   11    3    3      0.31      0.26
   12    3    3     -0.92     -0.21
   13    3    3     -0.02     -0.70
   14    3    3      0.95      0.30
   15    3    3     -0.41      0.49
   16    3    3     -0.44      0.00
   17    3    3      0.06     -0.11
   18    3    3      0.23      0.18
   19    3    3      0.78      0.66
   20    3    3     -0.11     -0.50
   21    3    3     -1.72     -1.26
   22    3    3      0.13      0.03
   23    3    3      1.88      0.57
   24    3    3     -0.14      0.40
    1    4    3      0.14     -0.26
    2    4    3      1.03      0.46
    3    4    3     -0.10      0.07
    4    4    3     -0.97     -0.67
    5    4    3      0.20      0.84
    6    4    3     -0.03      0.03
    7    4    3     -0.76     -1.44
    8    4    3      0.70      0.40
    9    4    3      0.51      1.07
   10    4    3     -0.62     -0.40
   11    4    3      0.58      0.14
   12    4    3      0.29      0.52
   13    4    3     -0.70     -0.74
   14    4    3     -0.01      0.05
   15    4    3      0.12      0.25
   16    4    3      0.10     -0.77
   17    4    3     -0.81     -0.21
   18    4    3     -0.46      0.23
   19    4    3      1.94      0.40
   20    4    3      0.54      0.39
   21    4    3     -1.31      0.28
   22    4    3     -0.27     -0.09
   23    4    3     -0.18     -0.67
    0    5    3      0.46     -0.92
    1    5    3     -2.59     -0.12
    2    5    3     -0.66      1.06
    3    5    3      1.81     -0.02
    4    5    3      1.05     -1.12
    5    5    3     -0.61      0.13
    6    5    3     -1.51      1.02
    7    5    3     -0.08      0.04
    8    5    3      1.74     -0.82
    9    5    3      0.16      0.08
   10    5    3     -1.08      0.49
   11    5    3      0.16     -0.35
   12    5    3     -0.07     -0.35
   13    5    3     -0.73      0.07
   14    5    3      0.76      0.19
   15    5    3      0.72      0.04
   16    5    3     -0.98      0.25
   17    5    3     -0.06      0.02
   18    5    3      0.60     -0.40
   19    5    3     -0.45      0.62
   20    5    3      0.29      0.27
   21    5    3      0.67     -0.71
   22    5    3     -0.47     -0.36
   23    5    3     -0.56     -0.41
    1    6    3     -0.31     -0.64
    2    6    3      0.30     -0.17
    3    6    3      0.82      1.24
    4    6    3     -0.12     -0.06
    5    6    3     -0.45     -1.06
    6    6    3      0.25      0.32
    7    6    3     -0.84      0.69
    8    6    3     -0.97     -0.42
    9    6    3      1.47     -0.22
   10    6    3      0.97      0.42
   11    6    3     -0.83     -0.19
   12    6    3      0.08     -0.18
   13    6    3     -0.23      0.21
   14    6    3     -0.53     -0.11
   15    6    3      0.91      0.05
   16    6    3     -0.39      0.00
   17    6    3     -0.60     -0.23
   18    6    3      1.46      0.67
   19    6    3     -0.07      0.14
   20    6    3     -1.57     -1.37
   21    6    3     -0.01      0.07
   22    6    3      0.88      1.10
    0    7    3     -0.11      0.94
    1    7    3     -0.57     -0.29
    2    7    3      0.10     -0.73
    3    7    3     -0.16     -0.01
    4    7    3     -0.02      0.38
    5    7    3      0.42      0.36
    6    7    3     -0.18      0.04
    7    7    3     -0.32     -0.35
    8    7    3      0.29     -0.29
    9    7    3      0.61     -0.02
   10    7    3     -0.04     -0.14
   11    7    3     -0.98      0.26
   12    7    3     -0.18      0.52
   13    7    3      0.98     -0.15
   14    7    3      0.05      0.03
   15    7    3     -0.94     -0.05
   16    7    3      0.12     -0.60
   17    7    3      1.20     -0.15
   18    7    3     -0.38      0.13
   19    7    3     -1.38      0.68
   20    7    3      0.68      0.58
   21    7    3      1.00     -0.75
    1    8    3     -0.24     -0.31
    2    8    3     -0.30     -0.20
    3    8    3      0.51      0.49
    4    8    3      0.29      0.14
    5    8    3     -0.37     -0.20
    6    8    3      0.09     -0.06
    7    8    3      0.22     -0.03
    8    8    3     -0.07      0.10
    9    8    3     -0.47      0.02
   10    8    3     -0.65     -0.06
   11    8    3      0.79      0.05
   12    8    3      1.15     -0.06
   13    8    3     -0.67      0.07
   14    8    3     -0.89      0.19
   15    8    3      0.13     -0.32
   16    8    3      0.37     -0.16
   17    8    3      0.45      0.22
   18    8    3      0.02     -0.21
   19    8    3     -0.58      0.16
   20    8    3     -0.29      0.55
    0    9    3     -0.40      0.20
    1    9    3     -0.04      0.22
    2    9    3      0.19     -0.16
    3    9    3      0.16      0.04
    4    9    3      0.16      0.05
    5    9    3     -0.30     -0.23
    6    9    3     -0.22      0.20
    7    9    3      0.05      0.19
    8    9    3     -0.27     -0.44
    9    9    3      0.18     -0.08
   10    9    3      0.97      0.33
   11    9    3      0.48      0.01
   12    9    3     -1.07     -0.05
   13    9    3     -1.25     -0.09
   14    9    3      0.53     -0.03
   15    9    3      0.70      0.22
   16    9    3     -0.09      0.04
   17    9    3      0.38     -0.23
   18    9    3     -0.03     -0.09
   19    9    3     -0.47      0.24
    1   10    3     -0.12     -0.38
    2   10    3     -0.33      0.35
    3   10    3      0.27      0.58
    4   10    3      0.28     -0.26
    5   10    3     -0.26     -0.02
    6   10    3      0.00     -0.01
    7   10    3      0.07     -0.49
    8   10    3      0.01     -0.02
    9   10    3      0.32      0.51
   10   10    3     -0.53      0.17
   11   10    3     -0.63     -0.15
   12   10    3      0.83     -0.04
   13   10    3      0.34     -0.16
   14   10    3     -0.32     -0.12
   15   10    3      0.14      0.08
   16   10    3     -0.26      0.13
   17   10    3     -0.15      0.10
    0   11    3      2.46      0.13
    1   11    3      0.36      1.21
    2   11    3     -1.68      0.09
    3   11    3      0.00     -0.36
    4   11    3      0.07     -0.25
    5   11    3     -0.03     -0.38
    6   11    3      1.05     -0.08
    7   11    3     -0.23      0.31
    8   11    3     -1.15      0.35
    9   11    3      0.51      0.54
   10   11    3      0.49     -0.17
   11   11    3     -0.61     -1.27
   12   11    3      0.32     -0.25
   13   11    3      0.32      0.94
   14   11    3     -0.54      0.51
   15   11    3      0.00     -0.19
   16   11    3      0.26     -0.39
    1   12    3     -0.07      0.38
    2   12    3     -0.87     -0.76
    3   12    3      0.46     -0.82
    4   12    3      0.95      0.45
    5   12    3     -0.89      0.47
    6   12    3      0.24      0.17
    7   12    3      0.35      0.11
    8   12    3     -2.48     -0.24
    9   12    3      0.82     -0.04
   10   12    3      3.81     -0.09
   11   12    3     -1.08     -0.36
   12   12    3     -2.68      0.39
   13   12    3      0.27      0.45
    0   13    3      0.82      0.24
    1   13    3      0.01     -0.54
    2   13    3     -0.71      0.06
    3   13    3      0.58      0.20
    4   13    3      0.61     -0.25
    5   13    3     -0.49     -0.38
    6   13    3     -0.44     -0.10
    7   13    3     -0.16      0.65
    8   13    3      0.06      0.34
    9   13    3      0.45     -0.12
   10   13    3      0.05     -0.32
   11   13    3     -0.41     -0.58
    1   14    3     -0.34     -0.25
    2   14    3     -0.52     -0.10
    3   14    3      0.69      0.50
    4   14    3      1.03      0.41
    5   14    3     -0.69     -0.43
    6   14    3     -1.07     -0.28
    2    0    2    -43.74    -95.43
    4    0    2     25.82     49.16
    6    0    2    -12.30    -20.75
    8    0    2      5.25      9.83
   10    0    2     -1.86     -4.49
   12    0    2      0.96      2.02
   14    0    2     -1.59     -1.40
   16    0    2      2.23      1.29
   18    0    2     -1.41     -0.44
   20    0    2      0.38     -0.40
   22    0    2     -0.71     -0.42
   24    0    2      0.81      0.83
    1    1    2     -2.80     -4.40
    2    1    2     -0.02     -2.58
    3    1    2      5.64      8.41
    4    1    2     -0.05      3.32
    5    1    2     -4.42     -6.61
    6    1    2      0.24     -2.42
    7    1    2      1.88      3.94
    8    1    2     -0.23      1.23
    9    1    2      0.49     -1.01
   10    1    2     -0.19     -0.18
   11    1    2     -1.26     -0.76
   12    1    2      0.50     -0.60
   13    1    2      0.50      0.28
   14    1    2     -0.40      0.72
   15    1    2     -0.24      0.13
   16    1    2      0.11     -0.25
   17    1    2      0.36     -0.40
   18    1    2     -0.18     -0.17
   19    1    2     -0.40      1.06
   20    1    2      0.67      0.20
   21    1    2      0.64     -0.73
   22    1    2     -0.54     -0.39
   23    1    2     -0.31      0.04
   24    1    2     -0.10      0.60
    0    2    2      0.44      0.53
    1    2    2     -2.31     -0.83
    2    2    2      0.33      0.34
    3    2    2      2.69      2.16
    4    2    2     -0.76     -1.76
    5    2    2     -2.91     -3.83
    6    2    2      0.00      1.81
    7    2    2      2.44      4.06
    8    2    2      0.08     -0.83
    9    2    2     -1.38     -3.17
   10    2    2      0.57      0.53
   11    2    2      0.33      2.00
   12    2    2     -0.98     -0.45
   13    2    2      0.36     -0.40
   14    2    2      0.94     -0.41
   15    2    2     -0.20     -0.45
   16    2    2     -0.43      0.73
   17    2    2     -0.40     -0.18
   18    2    2      0.06      0.30
   19    2    2      0.39      0.88
   20    2    2      0.23     -1.07
   21    2    2     -0.16     -0.87
   22    2    2     -1.01      0.53
   23    2    2      0.14      0.73
   24    2    2      1.22      0.19
    1    3    2      0.49      1.17
    2    3    2     -0.83     -2.35
    3    3    2     -1.26     -2.12
    4    3    2      1.21      4.00
    5    3    2      1.19      1.75
    6    3    2     -0.89     -3.53
    7    3    2     -0.78     -1.31
    8    3    2      0.62      2.12
    9    3    2      0.83      0.52
   10    3    2     -0.57     -0.73
   11    3    2     -0.74     -0.21
   12    3    2      0.20     -0.56
   13    3    2      0.33      0.66
   14    3    2     -0.14      0.24
   15    3    2     -0.25     -0.54
   16    3    2      0.55      0.90
   17    3    2      0.22      0.10
   18    3    2     -0.82     -0.84
   19    3    2      0.27     -0.11
   20    3    2      1.02      0.50
   21    3    2     -0.73      0.05
   22    3    2     -0.74     -0.12
   23    3    2      0.66      0.15
   24    3    2     -0.16     -0.87
    0    4    2     -1.32     -1.40
    1    4    2      1.45      2.53
    2    4    2      1.16      0.80
    3    4    2     -1.80     -2.11
    4    4    2     -0.60      0.29
    5    4    2      1.09      1.07
    6    4    2      0.21     -1.01
    7    4    2     -0.05     -0.29
    8    4    2     -0.23      0.90
    9    4    2     -0.17     -0.20
   10    4    2      0.19     -0.13
   11    4    2     -0.35      0.44
   12    4    2     -0.03     -0.22
   13    4    2      1.00      0.33
   14    4    2     -0.01     -0.15
   15    4    2     -0.54     -0.95
   16    4    2      0.07      0.36
   17    4    2     -0.97      0.47
   18    4    2      0.00     -0.09
   19    4    2      1.86      0.01
   20    4    2     -0.19     -0.04
   21    4    2     -1.73     -0.45
   22    4    2     -0.01     -0.16
   23    4    2      1.09      0.57
    1    5    2     -0.18      0.93
    2    5    2      0.02     -0.47
    3    5    2      0.42     -1.59
    4    5    2      0.15      0.98
    5    5    2     -0.58      0.59
    6    5    2     -0.24     -1.07
    7    5    2      0.45      0.33
    8    5    2      0.37      0.46
    9    5    2     -0.04     -0.36
   10    5    2     -0.29      0.10
   11    5    2      0.05      0.07
   12    5    2     -0.04     -0.07
   13    5    2     -0.36      0.28
   14    5    2     -0.04      0.12
   15    5    2      0.19     -0.46
   16    5    2      0.11     -0.90
   17    5    2     -0.02      0.00
   18    5    2      0.46      1.31
   19    5    2      0.35      0.42
   20    5    2     -0.55     -0.29
   21    5    2     -0.57     -0.08
   22    5    2     -0.07     -0.61
   23    5    2      0.42     -0.16
    0    6    2     -0.17      0.12
    1    6    2      0.67     -0.35
    2    6    2     -0.41     -0.09
    3    6    2     -0.09      0.21
    4    6    2      1.30     -0.10
    5    6    2     -0.27     -0.15
    6    6    2     -1.20      0.16
    7    6    2     -0.03      0.60
    8    6    2      0.34      0.29
    9    6    2      0.33     -0.86
   10    6    2      0.07     -0.38
   11    6    2     -0.33      0.29
   12    6    2      0.12     -0.23
   13    6    2      0.36      0.32
   14    6    2     -0.33      0.33
   15    6    2     -0.19     -0.35
   16    6    2      0.55      0.21
   17    6    2     -0.12      0.37
   18    6    2     -0.74     -0.43
   19    6    2     -0.07     -0.65
   20    6    2      0.63      0.31
   21    6    2      0.38      0.53
   22    6    2     -0.32     -0.19
    1    7    2      0.24      0.33
    2    7    2      0.44      0.05
    3    7    2     -0.41     -0.67
    4    7    2     -0.27     -0.08
    5    7    2      0.23      0.69
    6    7    2     -0.19      0.02
    7    7    2     -0.26     -0.67
    8    7    2      0.47      0.03
    9    7    2      0.43      0.26
   10    7    2     -0.36     -0.14
   11    7    2     -0.25      0.01
   12    7    2     -0.01      0.18
   13    7    2     -0.12      0.43
   14    7    2      0.26      0.16
   15    7    2      0.24     -0.83
   16    7    2     -0.24     -0.58
   17    7    2     -0.16      0.76
   18    7    2     -0.01      0.40
   19    7    2      0.04     -0.57
   20    7    2      0.41      0.19
   21    7    2      0.08      0.29
    0    8    2      0.12      0.07
    1    8    2      0.13     -0.55
    2    8    2     -0.29     -0.07
    3    8    2     -0.19      0.33
    4    8    2      0.53     -0.07
    5    8    2      0.18      0.25
    6    8    2     -0.51      0.26
    7    8    2     -0.23     -0.67
    8    8    2      0.11     -0.19
    9    8    2      0.32      0.22
   10    8    2      0.44      0.07
   11    8    2     -0.47      0.70
   12    8    2     -0.73      0.08
   13    8    2      0.54     -0.93
   14    8    2      0.51     -0.35
   15    8    2     -0.09      0.22
   16    8    2     -0.09      0.23
   17    8    2     -0.50      0.56
   18    8    2      0.08      0.10
   19    8    2      0.42     -0.68
   20    8    2     -0.25     -0.05
    1    9    2     -0.12      0.00
    2    9    2      0.57     -0.37
    3    9    2      0.32      0.03
    4    9    2     -1.07      0.38
    5    9    2     -0.35      0.02
    6    9    2      1.12     -0.13
    7    9    2      0.30     -0.15
    8    9    2     -0.41      0.21
    9    9    2     -0.26      0.11
   10    9    2     -0.33     -0.42
   11    9    2      0.19     -0.21
   12    9    2      0.29      0.04
   13    9    2      0.03      0.44
   14    9    2      0.06      0.59
   15    9    2     -0.20     -0.11
   16    9    2     -0.08     -0.70
   17    9    2      0.09     -0.41
   18    9    2      0.01      0.33
   19    9    2     -0.02      0.39
    0   10    2      0.27     -0.22
    1   10    2      0.49     -0.49
    2   10    2     -0.44      0.34
    3   10    2     -0.80      0.03
    4   10    2      0.44     -0.35
    5   10    2      0.77     -0.14
    6   10    2      0.05     -0.20
    7   10    2     -0.52      0.20
    8   10    2     -0.26      0.76
    9   10    2      0.32      0.36
   10   10    2     -0.21     -0.45
   11   10    2      0.18     -0.55
   12   10    2      0.67     -0.11
   13   10    2     -0.65      0.19
   14   10    2     -0.65      0.01
   15   10    2      0.45     -0.14
   16   10    2      0.38      0.18
   17   10    2      0.12      0.39
   18   10    2     -0.11     -0.10
    1   11    2     -0.11     -0.01
    2   11    2      0.40     -0.05
    3   11    2      0.18      0.00
    4   11    2     -0.86      0.10
    5   11    2     -0.04     -0.04
    6   11    2      1.19      0.16
    7   11    2     -0.20      0.43
    8   11    2     -0.89      0.03
    9   11    2      0.55     -0.90
   10   11    2      0.14     -0.97
   11   11    2     -0.95      0.58
   12   11    2      0.02      1.07
   13   11    2      1.11      0.15
   14   11    2      0.51      0.24
   15   11    2     -0.78     -0.27
   16   11    2     -0.74     -1.02
    0   12    2     -0.10      0.41
    1   12    2     -1.05     -0.53
    2   12    2      0.03     -0.21
    3   12    2      0.32      0.25
    4   12    2      0.00     -0.11
    5   12    2     -0.10      0.23
    6   12    2      0.14     -0.01
    7   12    2      0.50     -0.65
    8   12    2     -0.19      0.26
    9   12    2     -0.62      0.80
   10   12    2      0.05      0.04
   11   12    2      0.34     -0.44
   12   12    2      0.11     -0.35
   13   12    2     -0.09     -0.19
   14   12    2     -0.13      0.15
    1   13    2      0.11     -0.36
    2   13    2      0.55     -0.09
    3   13    2     -0.10      0.49
    4   13    2     -0.36     -0.62
    5   13    2      0.12      0.13
    6   13    2     -0.30      1.17
    7   13    2     -0.24     -0.48
    8   13    2      0.70     -1.00
    9   13    2      0.06      0.11
   10   13    2     -0.64      0.58
   11   13    2      0.21      0.26
    0   14    2     -0.41      2.84
    1   14    2      0.54      0.27
    2   14    2      0.45     -1.61
    3   14    2      0.27      0.66
    4   14    2     -0.65     -0.16
    5   14    2     -0.66     -1.06
    6   14    2      0.78      0.42
    7   14    2      0.39      0.69
    2    0    1      2.53     -3.53
    4    0    1     -2.92      2.92
    6    0    1      2.29     -1.43
    8    0    1     -1.54      1.11
   10    0    1      0.93     -0.67
   12    0    1     -0.87      0.53
   14    0    1      1.02     -0.76
   16    0    1     -0.91      0.89
   18    0    1      0.66     -0.80
   20    0    1     -0.25      0.00
   22    0    1     -0.49      0.51
   24    0    1      0.84     -0.17
    0    1    1      6.60      6.72
    1    1    1      0.71      3.74
    2    1    1     -6.13     -4.76
    3    1    1     -0.30     -2.44
    4    1    1      3.27      2.56
    5    1    1     -0.42      2.00
    6    1    1     -0.30     -1.62
    7    1    1     -0.01     -0.99
    8    1    1      0.97     -0.85
    9    1    1      1.12     -0.76
   10    1    1     -1.74      1.89
   11    1    1     -1.34      1.06
   12    1    1      0.05      0.01
   13    1    1      0.89     -0.59
   14    1    1      0.79     -0.66
   15    1    1     -0.29      0.21
   16    1    1      0.19     -0.48
   17    1    1     -0.12     -0.04
   18    1    1     -0.92      1.17
   19    1    1     -0.28      0.67
   20    1    1      0.75     -0.85
   21    1    1      0.95     -0.92
   22    1    1     -0.07     -0.05
   23    1    1     -0.94      0.32
   24    1    1     -0.34      0.34
    1    2    1      1.19     -1.10
    2    2    1     -0.02      0.16
    3    2    1     -1.40      1.23
    4    2    1      0.33     -1.51
    5    2    1      0.10     -0.27
    6    2    1     -0.42      2.06
    7    2    1      0.22      0.33
    8    2    1      0.66     -1.84
    9    2    1     -0.60      1.01
   10    2    1     -1.02      1.61
   11    2    1      0.61     -1.92
   12    2    1      0.74     -0.76
   13    2    1      0.45      0.33
   14    2    1     -0.19      0.00
   15    2    1     -0.51      0.37
   16    2    1     -0.59      0.92
   17    2    1     -0.51      0.38
   18    2    1      1.45     -2.09
   19    2    1      0.68     -0.59
   20    2    1     -0.98      1.22
   21    2    1     -0.16      0.54
   22    2    1      0.00      0.52
   23    2    1     -0.06     -0.31
   24    2    1     -0.07     -0.40
    0    3    1      1.56      0.47
    1    3    1     -0.43     -1.13
    2    3    1     -1.32     -0.43
    3    3    1      0.95      1.16
    4    3    1      0.81      0.54
    5    3    1     -0.96     -0.70
    6    3    1     -0.79     -0.14
    7    3    1      0.31      0.34
    8    3    1      1.00     -0.80
    9    3    1      0.03      0.04
   10    3    1     -0.37      0.38
   11    3    1      0.33     -0.50
   12    3    1     -0.50      0.66
   13    3    1     -0.33      0.06
   14    3    1      0.40     -0.47
   15    3    1     -0.18      0.54
   16    3    1     -0.03      0.13
   17    3    1      0.06      0.14
   18    3    1      0.26     -0.27
   19    3    1      1.15     -1.72
   20    3    1     -0.49      0.13
   21    3    1     -2.57      3.40
   22    3    1      0.22     -0.07
   23    3    1      2.38     -3.46
   24    3    1      0.00      0.17
    1    4    1     -0.13      0.05
    2    4    1      0.38     -0.56
    3    4    1      0.18     -0.37
    4    4    1     -0.39      0.41
    5    4    1      0.45      0.17
    6    4    1     -0.34      0.48
    7    4    1     -1.32      0.75
    8    4    1      0.96     -1.24
    9    4    1      0.80     -0.41
   10    4    1     -1.04      1.21
   11    4    1      0.90     -1.15
   12    4    1      0.78     -0.72
   13    4    1     -1.35      1.39
   14    4    1     -0.07      0.32
   15    4    1      0.43     -0.38
   16    4    1     -0.41     -0.39
   17    4    1     -0.31      0.47
   18    4    1     -0.11      0.74
   19    4    1      0.87     -1.41
   20    4    1      0.74     -0.76
   21    4    1     -0.45      1.22
   22    4    1     -0.50      0.34
   23    4    1     -0.32     -0.18
    0    5    1      0.08     -1.09
    1    5    1     -1.58      2.88
    2    5    1     -0.10      1.30
    3    5    1      1.22     -2.13
    4    5    1      0.18     -1.41
    5    5    1     -0.50      0.94
    6    5    1     -0.31      1.33
    7    5    1      0.01     -0.14
    8    5    1      0.46     -1.34
    9    5    1      0.22     -0.05
   10    5    1     -0.28      0.90
   11    5    1     -0.17     -0.22
   12    5    1     -0.13     -0.13
   13    5    1     -0.30      0.65
   14    5    1      0.19     -0.32
   15    5    1      0.35     -0.34
   16    5    1     -0.01      0.68
   17    5    1      0.06     -0.51
   18    5    1     -0.19     -0.63
   19    5    1     -0.03      0.75
   20    5    1      0.43     -0.05
   21    5    1      0.10     -0.58
   22    5    1     -0.35      0.20
   23    5    1     -0.70      0.45
    1    6    1     -0.56      0.37
    2    6    1      0.20     -0.52
    3    6    1      1.18     -1.04
    4    6    1     -0.41      0.62
    5    6    1     -0.82      0.79
    6    6    1      0.53     -0.65
    7    6    1     -0.07      0.49
    8    6    1     -0.61      0.77
    9    6    1      0.56     -1.18
   10    6    1      0.50     -0.42
   11    6    1     -0.41      0.69
   12    6    1     -0.12     -0.23
   13    6    1     -0.11      0.43
   14    6    1      0.02      0.17
   15    6    1      0.61     -1.31
   16    6    1     -0.33      0.52
   17    6    1     -0.42      0.89
   18    6    1      0.68     -0.90
   19    6    1     -0.13      0.18
   20    6    1     -0.88      0.82
   21    6    1      0.20     -0.33
   22    6    1      0.61     -0.53
    0    7    1      0.55      0.11
    1    7    1     -0.67      0.58
    2    7    1     -0.34     -0.24
    3    7    1      0.07      0.12
    4    7    1     -0.02      0.43
    5    7    1      0.35     -0.31
    6    7    1      0.17     -0.21
    7    7    1     -0.35      0.24
    8    7    1      0.03     -0.20
    9    7    1      0.50     -0.87
   10    7    1     -0.26      0.07
   11    7    1     -0.92      1.69
   12    7    1      0.13      0.38
   13    7    1      1.02     -1.68
   14    7    1      0.43     -0.67
   15    7    1     -0.64      1.12
   16    7    1     -0.87      0.73
   17    7    1      0.25     -0.98
   18    7    1      0.43     -0.27
   19    7    1     -0.12      1.27
   20    7    1      0.27     -0.30
   21    7    1      0.14     -1.14
    1    8    1     -0.19     -0.06
    2    8    1     -0.27      0.26
    3    8    1      0.31      0.08
    4    8    1      0.13     -0.03
    5    8    1     -0.15     -0.01
    6    8    1      0.13     -0.44
    7    8    1      0.12     -0.21
    8    8    1      0.06      0.23
    9    8    1     -0.35      0.57
   10    8    1     -0.50      0.69
   11    8    1      0.49     -0.83
   12    8    1      0.62     -1.12
   13    8    1     -0.26      0.80
   14    8    1     -0.32      0.76
   15    8    1     -0.16     -0.36
   16    8    1      0.02     -0.31
   17    8    1      0.38     -0.41
   18    8    1      0.00     -0.06
   19    8    1     -0.18      0.77
   20    8    1      0.06      0.35
    0    9    1      0.36     -0.37
    1    9    1      0.12     -0.33
    2    9    1     -0.27      0.38
    3    9    1     -0.14      0.24
    4    9    1      0.14     -0.44
    5    9    1     -0.03      0.11
    6    9    1     -0.05      0.54
    7    9    1      0.16     -0.15
    8    9    1     -0.13     -0.34
    9    9    1     -0.25      0.10
   10    9    1      0.22     -0.19
   11    9    1      0.71     -0.99
   12    9    1     -0.06      0.47
   13    9    1     -1.19      1.94
   14    9    1     -0.08     -0.32
   15    9    1      0.75     -1.19
   16    9    1      0.05      0.19
   17    9    1      0.17     -0.34
   18    9    1      0.01     -0.18
   19    9    1     -0.36      0.73
    1   10    1     -0.01     -0.26
    2   10    1      0.09      0.39
    3   10    1      0.08      0.41
    4   10    1     -0.21     -0.19
    5   10    1     -0.05      0.01
    6   10    1      0.35     -0.31
    7   10    1     -0.16     -0.22
    8   10    1     -0.25      0.13
    9   10    1      0.46     -0.31
   10   10    1     -0.26      0.88
   11   10    1     -0.47      0.90
   12   10    1      0.61     -1.21
   13   10    1      0.17     -0.72
   14   10    1     -0.22      0.18
   15   10    1     -0.07      0.18
   16   10    1     -0.18      0.57
   17   10    1      0.21      0.05
   18   10    1      0.02     -0.16
    0   11    1      0.82     -1.77
    1   11    1      0.54      0.56
    2   11    1     -0.55      1.16
    3   11    1      0.09     -0.69
    4   11    1     -0.08      0.11
    5   11    1     -0.51      0.63
    6   11    1      0.55     -1.11
    7   11    1      0.45     -0.59
    8   11    1     -0.57      1.25
    9   11    1      0.04      0.47
   10   11    1      0.20     -0.51
   11   11    1     -0.63      0.05
   12   11    1      0.12     -0.41
   13   11    1      0.60     -0.36
   14   11    1     -0.10      0.68
   15   11    1     -0.12      0.19
   16   11    1      0.02     -0.44
    1   12    1      0.51     -0.25
    2   12    1     -0.44      0.33
    3   12    1     -1.00      0.45
    4   12    1      0.10      0.00
    5   12    1      0.69     -0.32
    6   12    1      0.51     -0.67
    7   12    1     -0.42      0.61
    8   12    1     -1.11      1.62
    9   12    1      0.59     -1.07
   10   12    1      1.51     -2.45
   11   12    1     -0.37      0.57
   12   12    1     -1.10      1.98
   13   12    1     -0.22      0.45
   14   12    1      0.24     -0.64
    0   13    1      0.47     -0.13
    1   13    1     -0.47      0.24
    2   13    1     -0.14      0.00
    3   13    1      0.76     -1.08
    4   13    1     -0.22      0.11
    5   13    1     -0.86      1.14
    6   13    1      0.20     -0.24
    7   13    1      0.49     -0.25
    8   13    1     -0.13      0.57
    9   13    1      0.22     -0.34
   10   13    1     -0.01     -0.45
   11   13    1     -0.70      0.34
    1   14    1     -0.27      0.42
    2   14    1     -0.60      0.67
    3   14    1      0.63     -0.77
    4   14    1      1.44     -1.86
    5   14    1     -0.67      0.67
    6   14    1     -1.60      2.34
    7   14    1      0.43     -0.47
    6    0    0    -25.11      0.07
    8    0    0     11.60     -0.01
   10    0    0     -5.77     -0.06
   12    0    0      2.36      0.05
   14    0    0     -1.25     -0.11
   16    0    0      1.64      0.03
   18    0    0     -1.20      0.06
   20    0    0      0.19     -0.06
   22    0    0     -0.93      0.13
   24    0    0      1.10     -0.06
    1    1    0     -5.28      0.03
    2    1    0     -2.67     -0.04
    3    1    0      9.71     -0.05
    4    1    0      3.41      0.01
    5    1    0     -7.10     -0.02
    6    1    0     -2.23      0.01
    7    1    0      4.20     -0.09
    8    1    0      0.95      0.03
    9    1    0     -1.04      0.13
   10    1    0     -0.34      0.01
   11    1    0     -1.17     -0.21
   12    1    0     -0.03      0.06
   13    1    0      0.72      0.46
   14    1    0      0.08     -0.08
   15    1    0     -0.30     -0.33
   16    1    0      0.23     -0.01
   17    1    0     -0.01      0.04
   18    1    0     -0.47     -0.04
   19    1    0      0.87      0.06
   20    1    0      0.66      0.01
   21    1    0     -0.58     -0.08
   22    1    0     -1.26      0.05
   23    1    0     -0.05      0.02
   24    1    0      1.50      0.01
    0    2    0     -0.22      0.06
    1    2    0     -6.09      0.10
    2    2    0      1.35     -0.04
    3    2    0      6.09     -0.07
    4    2    0     -2.71      0.00
    5    2    0     -6.61      0.06
    6    2    0      2.04     -0.03
    7    2    0      6.11     -0.07
    8    2    0     -0.70      0.01
    9    2    0     -4.42     -0.02
   10    2    0      0.53      0.06
   11    2    0      2.37      0.01
   12    2    0     -0.65     -0.07
   13    2    0     -0.04     -0.02
   14    2    0     -0.24      0.00
   15    2    0     -0.89      0.05
   16    2    0      1.05      0.04
   17    2    0     -0.20      0.03
   18    2    0     -0.31      0.02
   19    2    0      1.00      0.03
   20    2    0     -0.55     -0.09
   21    2    0     -0.89     -0.09
   22    2    0     -0.08      0.05
   23    2    0      0.92      0.00
   24    2    0      0.72      0.00
    1    3    0      1.04     -0.10
    2    3    0     -3.54     -0.06
    3    3    0     -2.10      0.05
    4    3    0      6.08      0.56
    5    3    0      2.12      0.19
    6    3    0     -5.39     -0.99
    7    3    0     -1.82     -0.03
    8    3    0      3.11      0.74
    9    3    0      0.92     -0.08
   10    3    0     -1.09     -0.16
   11    3    0     -0.27     -0.08
   12    3    0     -0.63     -0.02
   13    3    0      0.47      0.12
   14    3    0      0.34      0.00
   15    3    0     -0.59     -0.07
   16    3    0      1.07     -0.04
   17    3    0      0.48     -0.01
   18    3    0     -1.22     -0.04
   19    3    0     -0.50     -0.01
   20    3    0      1.31      0.13
   21    3    0      0.14      0.15
   22    3    0     -1.13     -0.10
   23    3    0      0.40     -0.11
   24    3    0     -0.46      0.07
    0    4    0     -2.51     -0.02
    1    4    0      4.05     -0.07
    2    4    0      1.87      0.04
    3    4    0     -3.80      0.04
    4    4    0     -0.51     -0.07
    5    4    0      2.22     -0.02
    6    4    0     -0.55     -0.02
    7    4    0     -0.62      0.07
    8    4    0      0.55      0.03
    9    4    0     -0.23     -0.05
   10    4    0      0.09     -0.01
   11    4    0      0.30     -0.03
   12    4    0     -0.19      0.03
   13    4    0      0.85      0.03
   14    4    0     -0.32      0.01
   15    4    0     -0.99     -0.01
   16    4    0      0.45     -0.02
   17    4    0     -0.77      0.02
   18    4    0      0.02      0.03
   19    4    0      1.69      0.02
   20    4    0     -0.15     -0.05
   21    4    0     -1.49      0.00
   22    4    0     -0.31      0.02
   23    4    0      0.88     -0.04
    1    5    0      0.86     -0.06
    2    5    0     -0.31      0.03
    3    5    0     -1.29      0.11
    4    5    0      0.90      0.04
    5    5    0     -0.07      0.02
    6    5    0     -1.01     -0.08
    7    5    0      1.09     -0.08
    8    5    0      0.41     -0.03
    9    5    0     -0.81     -0.04
   10    5    0      0.23      0.07
   11    5    0      0.23      0.09
   12    5    0     -0.41      0.03
   13    5    0      0.33     -0.02
   14    5    0      0.30     -0.09
   15    5    0     -0.79      0.02
   16    5    0     -0.77      0.00
   17    5    0      0.34     -0.07
   18    5    0      1.24      0.07
   19    5    0      0.44      0.04
   20    5    0     -0.12      0.00
   21    5    0     -0.46      0.04
   22    5    0     -1.03     -0.03
   23    5    0      0.33     -0.05
    0    6    0      0.73     -0.03
    1    6    0     -0.16      0.07
    2    6    0     -0.72      0.01
    3    6    0      0.03     -0.13
    4    6    0      0.51      0.04
    5    6    0      0.02      0.09
    6    6    0     -0.25     -0.10
    7    6    0      0.31     -0.01
    8    6    0      0.46      0.06
    9    6    0     -0.55      0.02
   10    6    0     -0.61      0.03
   11    6    0      0.07      0.00
   12    6    0      0.26      0.02
   13    6    0      0.61     -0.05
   14    6    0     -0.19     -0.07
   15    6    0     -0.71      0.08
   16    6    0      0.56      0.00
   17    6    0      0.62     -0.02
   18    6    0     -0.58      0.01
   19    6    0     -0.77     -0.07
   20    6    0      0.45      0.05
   21    6    0      0.47      0.04
   22    6    0     -0.46     -0.04
    1    7    0      0.41      0.03
    2    7    0      0.10      0.04
    3    7    0     -0.81     -0.09
    4    7    0     -0.05     -0.01
    5    7    0      0.83      0.08
    6    7    0     -0.11     -0.02
    7    7    0     -0.84      0.04
    8    7    0      0.27     -0.03
    9    7    0      0.54     -0.09
   10    7    0     -0.44      0.03
   11    7    0     -0.28     -0.04
   12    7    0      0.39     -0.01
   13    7    0      0.58      0.13
   14    7    0      0.14      0.01
   15    7    0     -0.72     -0.04
   16    7    0     -0.75      0.01
   17    7    0      0.37      0.01
   18    7    0      0.71     -0.01
   19    7    0     -0.08     -0.09
   20    7    0     -0.16      0.03
   21    7    0      0.00      0.10
    0    8    0     -0.19      0.03
    1    8    0     -0.69      0.00
    2    8    0     -0.05     -0.03
    3    8    0      0.12      0.01
    4    8    0      0.32      0.03
    5    8    0      0.93     -0.01
    6    8    0     -0.23      0.02
    7    8    0     -1.49      0.02
    8    8    0     -0.03     -0.02
    9    8    0      0.64      0.00
   10    8    0      0.28     -0.02
   11    8    0      0.74     -0.01
   12    8    0     -0.18      0.08
   13    8    0     -1.08     -0.01
   14    8    0     -0.24     -0.10
   15    8    0      0.37      0.05
   16    8    0      0.23     -0.06
   17    8    0      0.43     -0.09
   18    8    0      0.01      0.16
   19    8    0     -0.72      0.04
   20    8    0      0.17     -0.06
    1    9    0     -0.12      0.01
    2    9    0      0.08      0.00
    3    9    0      0.23     -0.05
    4    9    0     -0.24     -0.01
    5    9    0     -0.06      0.05
    6    9    0      0.16     -0.02
    7    9    0     -0.11      0.01
    8    9    0      0.39      0.08
    9    9    0      0.02     -0.02
   10    9    0     -0.59     -0.06
   11    9    0     -0.06     -0.07
   12    9    0     -0.04      0.01
   13    9    0      0.22      0.15
   14    9    0      0.44     -0.03
   15    9    0      0.01     -0.08
   16    9    0     -0.09      0.05
   17    9    0     -0.16      0.03
   18    9    0     -0.24      0.00
   19    9    0     -0.15     -0.03
    0   10    0      0.09     -0.01
    1   10    0      0.21      0.02
    2   10    0      0.23     -0.04
    3   10    0     -0.44      0.05
    4   10    0     -0.49      0.11
    5   10    0      0.11     -0.05
    6   10    0     -0.12     -0.11
    7   10    0     -0.04      0.00
    8   10    0      0.85     -0.01
    9   10    0      0.52     -0.02
   10   10    0     -0.50      0.08
   11   10    0     -0.29      0.00
   12   10    0     -0.31     -0.01
   13   10    0     -0.41      0.07
   14   10    0      0.40     -0.03
   15   10    0      0.25     -0.09
   16   10    0     -0.14     -0.03
   17   10    0      0.40      0.05
   18   10    0     -0.01      0.03
    1   11    0     -0.01     -0.05
    2   11    0     -0.08     -0.07
    3   11    0      0.04      0.12
    4   11    0      0.12      0.01
    5   11    0     -0.17     -0.05
    6   11    0      0.24      0.08
    7   11    0      0.53     -0.01
    8   11    0     -0.13     -0.04
    9   11    0     -0.79     -0.08
   10   11    0     -0.85     -0.03
   11   11    0      0.25      0.13
   12   11    0      0.84      0.00
   13   11    0      0.52     -0.04
   14   11    0      0.72      0.07
   15   11    0     -0.49     -0.01
   16   11    0     -1.37     -0.01
    0   12    0      0.66     -0.52
    1   12    0     -1.32      0.09
    2   12    0     -0.31      0.35
    3   12    0      0.65     -0.07
    4   12    0     -0.37     -0.08
    5   12    0      0.17      0.01
    6   12    0      0.52     -0.05
    7   12    0     -0.53     -0.06
    8   12    0     -0.15      0.03
    9   12    0      0.45      0.14
   10   12    0      0.08     -0.01
   11   12    0     -0.06     -0.08
   12   12    0     -0.24      0.02
   13   12    0     -0.42      0.00
   14   12    0      0.14     -0.02
    1   13    0     -0.42     -0.21
    2   13    0     -0.15     -0.20
    3   13    0      0.67      0.14
    4   13    0     -0.58      0.05
    5   13    0     -0.05      0.06
    6   13    0      0.87      0.46
    7   13    0     -0.41     -0.02
    8   13    0     -0.33     -0.74
    9   13    0      0.16     -0.05
   10   13    0     -0.09      0.47
   11   13    0      0.24     -0.02
    0   14    0      2.80      0.02
    1   14    0      0.48      0.00
    2   14    0     -1.52     -0.01
    3   14    0      0.50     -0.08
    4   14    0     -0.36      0.01
    5   14    0     -0.86      0.05
    6   14    0      0.65     -0.01
    7   14    0      0.55      0.02
   14   12    3      0.65     -0.35
   16    9    9      0.49      0.00
   22    0   10      0.27      0.19
   22    2   11      0.73      0.32
   20    0   14     -0.05     -0.12
    3    5   22      0.00      0.93
    2    0    0   -131.13      0.06
    4    0    0     65.10     -0.02
   24    4    0      0.35     -0.02
   22    7    0     -0.01     -0.07
   21    8    0      0.29      0.02
    8   14    0     -0.08      0.01
   24    4    1      0.07      0.08
   21    8    1     -0.09     -0.40
    8   14    1      0.85     -1.41
    0    0    2     52.73    120.79
   18   10    3      0.22     -0.14
    7   14    3      0.49      0.28
    0    0    4    -45.53     49.31
   24    3    4      1.02     -0.64
   16   11    4      0.32     -0.67
   14   12    4     -0.16     -0.20
   11   13    4     -0.13      0.32
    7   14    4     -0.62      0.58
   19    9    5     -0.38     -0.02
    6   14    5      0.10      0.15
    0    0    6    -25.22    -12.08
   24    2    6     -0.51      0.49
   22    6    6     -0.24      0.11
   21    7    6     -0.10     -0.13
   20    8    6      0.35      0.08
   13   12    6     -0.44     -0.24
   10   13    6      0.09     -0.74
    5   14    6      0.65      0.05
   23    4    7     -0.41      0.55
   17   10    7      0.23     -0.23
   15   11    7     -0.17      0.23
    3   14    7      0.18      0.22
    4   14    7     -0.16      0.00
   23    3    8     -0.39     -0.77
   22    5    8      0.08      0.17
   18    9    8     -0.31     -0.75
   12   12    8     -0.26     -0.03
    0   14    8     -0.30     -0.02
    1   14    8      0.59      0.48
   23    2    9     -0.33      0.22
   21    6    9     -0.01      0.11
   20    7    9      0.02     -0.26
   19    8    9     -0.14      0.23
   16   10    9      0.43     -0.14
   14   11    9      0.17     -0.10
   17    9   10      0.34      0.17
    6   13   10     -0.57      0.62
   20    6   11      0.24     -0.18
   19    7   11      0.45      0.05
    4   13   11      0.97      0.22
    8   12   12     -0.10     -0.21
   21    2   13     -0.30      0.77
   13   10   13      0.34      0.19
    6   12   13     -0.43      1.06
   20    3   14     -0.47     -0.62
   18    6   14     -0.61      1.64
   14    9   14      0.01      0.11
    9   11   14     -0.92     -1.29
    3   12   14      0.00      0.03
    4   12   14      0.38     -0.24
   18    5   15     -0.10     -0.45
   17    6   15     -0.37     -0.49
   16    7   15      0.03     -0.38
    7   11   15      0.41      0.16
   19    1   16     -0.72     -0.22
   17    5   16      0.36     -1.27
   15    7   16      0.32      0.48
    9   10   16      1.00     -0.36
    4   11   16     -0.35     -0.64
   18    2   17     -0.01      0.03
   17    4   17      0.66     -0.79
   16    5   17     -0.50      0.07
   15    6   17      0.05      0.44
   14    7   17     -0.18      0.36
   10    9   17      0.02      0.18
    7   10   17     -0.08     -0.07
   17    2   18      0.95      0.31
   15    5   18     -0.65      0.37
   14    6   18      0.22     -0.31
    8    9   18      0.24      0.35
    3   10   18     -0.42      0.35
   16    0   19      0.43     -0.21
   16    1   19      0.00      0.59
   11    7   19      0.03     -0.16
    9    8   19     -0.13     -0.55
    5    9   19      0.04     -0.19
   14    3   20      0.37     -0.59
   11    6   20     -0.19      0.60
    9    7   20      0.49      0.67
    6    8   20      0.33     -0.01
   13    2   21      0.40      0.10
    9    6   21      0.12      0.04
    6    7   21      0.27     -0.24
    1    8   21      0.07     -0.01
    0    0   22      2.20      1.00
    8    5   22      0.63     -0.05
    6    6   22      0.40      0.19
    1    7   22      0.15     -0.32
    9    2   23     -0.25     -0.09
    8    3   23      0.63     -0.19
    7    4   23      0.22      0.49
    6    2   24     -0.73     -0.56
    0    4   24      0.10      0.09
    1    4   24     -0.18     -0.73
    0    0    0      0.00      0.00
# SQUEEZE RESULTS (Version = 201118)
# Note: Data are Listed for all Voids in the P1 Unit Cell
# i.e. Centre of Gravity, Solvent Accessible Volume,
# Recovered number of Electrons in the Void and
# Details about the Squeezed Material
loop_
  _platon_squeeze_void_nr
  _platon_squeeze_void_average_x
  _platon_squeeze_void_average_y
  _platon_squeeze_void_average_z
  _platon_squeeze_void_volume
  _platon_squeeze_void_count_electrons
  _platon_squeeze_void_content
   1  0.252 -0.013  0.096       154        39 ' '
   2  0.248 -0.042  0.596       154        39 ' '
   3  0.748 -0.026  0.596       155        39 ' '
   4  0.752  0.002  0.096       154        39 ' '
# Missing Reflections Below sin(th)/lambda = 0.25
loop_
  _platon_missing_refln_index_h
  _platon_missing_refln_index_k
  _platon_missing_refln_index_l
  _platon_missing_refln_theta
    2    0    0     2.750
    4    0    0     5.507
    0    0    2     2.749
    0    0    4     5.505
    0    0    6     8.274
_platon_squeeze_void_probe_radius                  1.20
_platon_squeeze_details
)
TITL P221_h           P n a 21     R = 0.06
CELL   14.8116    8.7686   14.8164     90.00     90.00     90.00
SPGR Pna21
# Solvent Accessible Volume =       608
# Electrons Found in S.A.V. =       155
# Note: Atoms in Void are Labelled as Cxxx and Qxxx for all Others
C101 0.748 0.915 0.096 !       2.49 eA-3
C102 0.243 0.443 0.596 !       2.37 eA-3
C103 0.248 0.159 0.596 !       2.21 eA-3
C104 0.263 0.809 0.094 !       2.13 eA-3
C105 0.749 0.137 0.078 !       2.12 eA-3
C106 0.242 0.515 0.578 !       1.99 eA-3
C107 0.749 0.778 0.595 !       1.95 eA-3
C108 0.752 0.403 0.093 !       1.89 eA-3
C109 0.737 0.850 0.528 !       1.83 eA-3
C110 0.792 0.560 0.587 !       1.81 eA-3
C111 0.260 0.793 0.593 !       1.72 eA-3
C112 0.718 0.051 0.646 !       1.50 eA-3
C113 0.295 0.034 0.048 !       1.45 eA-3
C114 0.760 0.107 0.604 !       1.41 eA-3
C115 0.805 0.313 0.046 !       1.25 eA-3
Q116 0.782 0.670 0.158 !       1.21 eA-3
C117 0.709 0.839 0.139 !       1.18 eA-3
C118 0.218 0.212 0.139 !       1.13 eA-3
C119 0.808 0.717 0.103 !       1.08 eA-3
C120 0.822 0.378 0.093 !       1.07 eA-3
C121 0.291 0.705 0.157 !       1.07 eA-3
C122 0.223 0.104 0.547 !       0.98 eA-3
Q123 0.217 0.388 0.033 !       0.98 eA-3
C124 0.280 0.339 0.652 !       0.96 eA-3
C125 0.723 0.528 0.044 !       0.91 eA-3
C126 0.780 0.247 0.138 !       0.88 eA-3
Q127 0.515 0.871 0.343 !       0.85 eA-3
Q128 0.805 0.701 0.533 !       0.83 eA-3
Q129 0.825 1.006 0.576 !       0.80 eA-3
Q130 0.691 0.470 0.645 !       0.80 eA-3
C131 0.791 0.980 0.638 !       0.79 eA-3
C132 0.697 0.295 0.042 !       0.74 eA-3
Q133 0.308 0.345 0.575 !       0.74 eA-3
Q134 0.242 0.131 0.500 !       0.74 eA-3
Q135 0.326 0.288 0.104 !       0.72 eA-3
Q136 0.765 1.016 0.495 !       0.71 eA-3
Q137 0.732 0.071 0.526 !       0.71 eA-3
Q138 0.663 0.341 0.732 !       0.70 eA-3
Q139 0.757 0.681 0.514 !       0.70 eA-3
Q140 0.657 0.936 0.124 !       0.69 eA-3
C141 0.215 0.855 0.548 !       0.69 eA-3
C142 0.778 0.334 0.153 !       0.68 eA-3
Q143 0.753 0.961 0.017 !       0.67 eA-3
Q144 0.313 0.467 0.077 !       0.65 eA-3
Q145 0.488 0.836 0.346 !       0.64 eA-3
Q146 0.676 0.561 0.638 !       0.64 eA-3
Q147 0.673 0.926 0.162 !       0.63 eA-3
C148 0.193 0.907 0.156 !       0.63 eA-3
Q149 0.161 0.244 0.643 !       0.61 eA-3
Q150 0.453 0.064 0.844 !       0.61 eA-3
C151 0.222 0.039 0.672 !       0.59 eA-3
Q152 0.688 0.100 0.483 !       0.58 eA-3
Q153 0.953 0.313 0.833 !       0.58 eA-3
Q154 0.204 0.128 0.161 !       0.57 eA-3
Q155 0.682 0.073 0.019 !       0.57 eA-3
Q156 0.503 0.504 0.015 !       0.57 eA-3
Q157 0.326 0.694 0.500 !       0.57 eA-3
Q158 0.261 0.966 0.500 !       0.56 eA-3
C159 0.362 0.148 0.129 !       0.55 eA-3
Q160 0.155 0.289 0.984 !       0.55 eA-3
Q161 0.672 0.679 0.171 !       0.54 eA-3
Q162 0.160 0.652 0.113 !       0.54 eA-3
Q163 0.206 0.887 0.499 !       0.53 eA-3
Q164 0.669 0.874 0.655 !       0.53 eA-3
Q165 0.321 0.367 0.634 !       0.53 eA-3
Q166 0.139 0.065 0.513 !       0.52 eA-3
Q167 0.152 0.186 0.643 !       0.52 eA-3
Q168 0.248 0.700 0.013 !       0.51 eA-3
Q169 0.342 0.950 0.020 !       0.51 eA-3
Q170 0.193 0.788 0.120 !       0.50 eA-3
)
;
_shelx_fab_checksum              29389
loop_
_space_group_symop_operation_xyz
'x, y, z'
'-x, -y, z+1/2'
'x+1/2, -y+1/2, z'
'-x+1/2, y+1/2, z+1/2'
loop_
_atom_site_label
_atom_site_type_symbol
_atom_site_fract_x
_atom_site_fract_y
_atom_site_fract_z
_atom_site_U_iso_or_equiv
_atom_site_adp_type
_atom_site_occupancy
_atom_site_site_symmetry_order
_atom_site_calc_flag
_atom_site_refinement_flags_posn
_atom_site_refinement_flags_adp
_atom_site_refinement_flags_occupancy
_atom_site_disorder_assembly
_atom_site_disorder_group
Co1 Co 0.49016(3) 0.87516(17) 0.33801(3) 0.01716(10) Uani 1 1 d . . . . .
N1 N 0.5001(3) 0.1836(6) 0.7046(4) 0.0190(10) Uani 1 1 d . . . . .
C1 C 0.6309(3) 1.0515(5) 0.3455(5) 0.0236(9) Uani 1 1 d . . . . .
O1 O 0.54579(19) 1.0801(3) 0.3543(2) 0.0251(8) Uani 1 1 d . . . . .
O2 O 0.5064(2) 0.6720(5) 0.3965(2) 0.0250(7) Uani 1 1 d . . . . .
N2 N 0.7079(2) 1.6061(3) 0.3506(5) 0.0353(13) Uani 1 1 d . . . . .
H2 H 0.657092 1.653467 0.352961 0.042 Uiso 1 1 calc R U . . .
C2 C 0.6946(2) 1.1839(4) 0.3454(4) 0.0203(9) Uani 1 1 d . . . . .
O4 O 0.4896(4) 0.8315(7) 0.5068(5) 0.0369(14) Uani 1 1 d . . . . .
C4 C 0.7202(2) 1.4496(4) 0.3482(4) 0.0218(9) Uani 1 1 d . . . . .
N4 N 0.4935(3) 0.1462(5) 0.5570(3) 0.0300(11) Uani 1 1 d . . . . .
H4 H 0.491120 0.098871 0.506184 0.036 Uiso 1 1 calc R U . . .
C3 C 0.6592(3) 1.3304(4) 0.3471(4) 0.0219(9) Uani 1 1 d . . . . .
H3 H 0.597271 1.347573 0.347547 0.026 Uiso 1 1 calc R U . . .
O3 O 0.6586(4) 0.9181(5) 0.3387(5) 0.0408(14) Uani 1 1 d . . . . .
N3 N 0.8559(5) 1.5703(6) 0.3448(4) 0.0239(11) Uani 1 1 d . . . . .
C8 C 0.7908(3) 1.6700(4) 0.3485(6) 0.0341(15) Uani 1 1 d . . . . .
H8 H 0.800399 1.774833 0.349576 0.041 Uiso 1 1 calc R U . . .
C7 C 0.7876(3) 1.1602(4) 0.3438(5) 0.0268(10) Uani 1 1 d . . . . .
H7 H 0.809597 1.060864 0.344439 0.032 Uiso 1 1 calc R U . . .
C6 C 0.8482(2) 1.2800(4) 0.3414(6) 0.0254(9) Uani 1 1 d . . . . .
H6 H 0.910053 1.262874 0.337294 0.031 Uiso 1 1 calc R U . . .
C5 C 0.8131(2) 1.4280(4) 0.3454(4) 0.0187(8) Uani 1 1 d . . . . .
C9 C 0.4978(3) 0.6991(6) 0.4801(3) 0.0208(10) Uani 1 1 d . . . . .
C10 C 0.4985(3) 0.5680(6) 0.5429(3) 0.0222(10) Uani 1 1 d . . . . .
C11 C 0.5037(4) 0.5919(6) 0.6375(3) 0.0256(12) Uani 1 1 d . . . . .
H11 H 0.506230 0.690910 0.659777 0.031 Uiso 1 1 calc R U . . .
C12 C 0.5049(4) 0.4709(5) 0.6968(4) 0.0271(11) Uani 1 1 d . . . . .
H12 H 0.509204 0.487246 0.758675 0.032 Uiso 1 1 calc R U . . .
C13 C 0.4997(3) 0.3242(6) 0.6621(3) 0.0197(10) Uani 1 1 d . . . . .
C14 C 0.4951(3) 0.3011(5) 0.5689(3) 0.0209(9) Uani 1 1 d . . . . .
C15 C 0.4930(4) 0.4218(6) 0.5078(3) 0.0226(10) Uani 1 1 d . . . . .
H15 H 0.488048 0.404990 0.446000 0.027 Uiso 1 1 calc R U . . .
C16 C 0.4964(4) 0.0822(6) 0.6389(4) 0.0299(13) Uani 1 1 d . . . . .
H16 H 0.495945 -0.022558 0.648522 0.036 Uiso 1 1 calc R U . . .
loop_
_atom_site_aniso_label
_atom_site_aniso_U_11
_atom_site_aniso_U_22
_atom_site_aniso_U_33
_atom_site_aniso_U_23
_atom_site_aniso_U_13
_atom_site_aniso_U_12
Co1 0.01858(19) 0.01078(13) 0.0221(2) -0.0010(4) -0.0007(4) 0.0011(3)
N1 0.029(3) 0.0107(18) 0.017(2) -0.0005(14) -0.0018(13) -0.0001(11)
C1 0.0222(16) 0.0190(14) 0.030(3) 0.0006(19) 0.003(2) -0.0010(11)
O1 0.0168(11) 0.0200(11) 0.038(2) -0.0036(12) -0.0008(12) -0.0018(9)
O2 0.035(2) 0.0217(15) 0.0179(13) 0.0035(12) 0.0012(12) 0.0034(11)
N2 0.0198(13) 0.0152(13) 0.071(4) -0.006(2) 0.001(2) 0.0039(10)
C2 0.0163(14) 0.0155(13) 0.029(3) 0.0013(19) 0.0036(19) -0.0010(11)
O4 0.068(4) 0.0158(19) 0.027(3) 0.0018(17) -0.007(2) -0.0020(18)
C4 0.0194(14) 0.0169(15) 0.029(3) -0.0008(16) 0.0015(17) 0.0026(11)
N4 0.059(3) 0.0135(14) 0.0174(15) -0.0036(12) -0.0038(17) 0.0019(14)
C3 0.0178(15) 0.0166(14) 0.031(3) 0.0002(18) 0.0013(19) 0.0028(11)
O3 0.025(2) 0.0134(14) 0.084(4) 0.002(3) 0.002(3) 0.0036(12)
N3 0.023(2) 0.0155(17) 0.033(3) 0.0006(19) 0.001(2) -0.0014(13)
C8 0.0237(17) 0.0150(15) 0.063(5) -0.001(3) 0.001(3) 0.0026(12)
C7 0.0233(16) 0.0123(14) 0.045(3) 0.000(2) -0.001(3) 0.0023(10)
C6 0.0147(13) 0.0167(14) 0.045(3) 0.000(3) -0.003(3) -0.0010(11)
C5 0.0183(14) 0.0126(12) 0.025(2) 0.0009(17) 0.0024(19) 0.0013(10)
C9 0.031(3) 0.0142(17) 0.0178(17) 0.0005(13) -0.0029(18) 0.0004(12)
C10 0.032(3) 0.0150(17) 0.0200(18) 0.0000(15) 0.0009(16) 0.0011(12)
C11 0.048(4) 0.0133(18) 0.0150(17) -0.0019(15) -0.0039(19) -0.0020(14)
C12 0.049(4) 0.0135(18) 0.0184(16) -0.0054(15) 0.0008(19) -0.0007(14)
C13 0.027(3) 0.018(2) 0.0141(16) -0.0015(14) -0.0006(16) -0.0004(13)
C14 0.032(3) 0.0116(16) 0.0188(16) -0.0022(13) -0.0001(16) 0.0005(12)
C15 0.036(3) 0.020(2) 0.0121(17) -0.0012(14) 0.0018(18) 0.0026(16)
C16 0.053(4) 0.0127(19) 0.024(2) 0.0018(16) -0.001(2) 0.0000(15)
loop_
_atom_type_symbol
_atom_type_description
_atom_type_scat_dispersion_real
_atom_type_scat_dispersion_imag
_atom_type_scat_source
C C 0.0033 0.0016 'International Tables Vol C Tables 4.2.6.8 and 6.1.1.4'
H H 0.0000 0.0000 'International Tables Vol C Tables 4.2.6.8 and 6.1.1.4'
Co Co 0.3494 0.9721 'International Tables Vol C Tables 4.2.6.8 and 6.1.1.4'
O O 0.0106 0.0060 'International Tables Vol C Tables 4.2.6.8 and 6.1.1.4'
N N 0.0061 0.0033 'International Tables Vol C Tables 4.2.6.8 and 6.1.1.4'
loop_
_geom_angle_atom_site_label_1
_geom_angle_atom_site_label_2
_geom_angle_atom_site_label_3
_geom_angle
_geom_angle_site_symmetry_1
_geom_angle_site_symmetry_3
_geom_angle_publ_flag
O1 Co1 O2 134.70(13) . . ?
O1 Co1 N3 100.66(19) . 3_475 ?
O2 Co1 N3 107.70(19) . 3_475 ?
O1 Co1 N1 108.32(17) . 2_664 ?
O2 Co1 N1 100.73(19) . 2_664 ?
N3 Co1 N1 100.1(2) 3_475 2_664 ?
C16 N1 C13 105.3(6) . . ?
C16 N1 Co1 123.1(5) . 2_665 ?
C13 N1 Co1 131.5(4) . 2_665 ?
O3 C1 O1 120.9(5) . . ?
O3 C1 C2 121.5(4) . . ?
O1 C1 C2 117.6(3) . . ?
C1 O1 Co1 102.5(2) . . ?
C9 O2 Co1 104.2(3) . . ?
C8 N2 C4 106.9(3) . . ?
C8 N2 H2 126.5 . . ?
C4 N2 H2 126.5 . . ?
C3 C2 C7 120.7(3) . . ?
C3 C2 C1 118.8(3) . . ?
C7 C2 C1 120.5(3) . . ?
C3 C4 N2 131.6(3) . . ?
C3 C4 C5 122.9(3) . . ?
N2 C4 C5 105.5(3) . . ?
C16 N4 C14 107.3(4) . . ?
C16 N4 H4 126.3 . . ?
C14 N4 H4 126.3 . . ?
C4 C3 C2 117.0(3) . . ?
C4 C3 H3 121.5 . . ?
C2 C3 H3 121.5 . . ?
C8 N3 C5 105.2(6) . . ?
C8 N3 Co1 124.4(5) . 3_575 ?
C5 N3 Co1 130.4(4) . 3_575 ?
N3 C8 N2 113.3(5) . . ?
N3 C8 H8 123.4 . . ?
N2 C8 H8 123.4 . . ?
C6 C7 C2 122.0(3) . . ?
C6 C7 H7 119.0 . . ?
C2 C7 H7 119.0 . . ?
C7 C6 C5 117.6(3) . . ?
C7 C6 H6 121.2 . . ?
C5 C6 H6 121.2 . . ?
C4 C5 C6 119.7(3) . . ?
C4 C5 N3 109.1(4) . . ?
C6 C5 N3 131.2(4) . . ?
O4 C9 O2 120.0(6) . . ?
O4 C9 C10 122.0(5) . . ?
O2 C9 C10 118.0(4) . . ?
C15 C10 C11 120.7(4) . . ?
C15 C10 C9 118.8(4) . . ?
C11 C10 C9 120.5(4) . . ?
C12 C11 C10 121.1(4) . . ?
C12 C11 H11 119.4 . . ?
C10 C11 H11 119.4 . . ?
C11 C12 C13 118.5(5) . . ?
C11 C12 H12 120.8 . . ?
C13 C12 H12 120.8 . . ?
N1 C13 C12 131.1(5) . . ?
N1 C13 C14 108.7(4) . . ?
C12 C13 C14 120.2(4) . . ?
N4 C14 C15 132.0(5) . . ?
N4 C14 C13 105.8(4) . . ?
C15 C14 C13 122.2(4) . . ?
C10 C15 C14 117.2(4) . . ?
C10 C15 H15 121.4 . . ?
C14 C15 H15 121.4 . . ?
N1 C16 N4 112.9(5) . . ?
N1 C16 H16 123.6 . . ?
N4 C16 H16 123.6 . . ?
loop_
_geom_bond_atom_site_label_1
_geom_bond_atom_site_label_2
_geom_bond_distance
_geom_bond_site_symmetry_2
_geom_bond_publ_flag
Co1 O1 1.992(3) . ?
Co1 O2 1.996(4) . ?
Co1 N3 2.048(8) 3_475 ?
Co1 N1 2.048(7) 2_664 ?
N1 C16 1.319(8) . ?
N1 C13 1.384(8) . ?
C1 O3 1.244(6) . ?
C1 O1 1.292(5) . ?
C1 C2 1.496(5) . ?
O2 C9 1.267(6) . ?
N2 C8 1.350(5) . ?
N2 C4 1.384(5) . ?
N2 H2 0.8600 . ?
C2 C3 1.387(5) . ?
C2 C7 1.394(5) . ?
O4 C9 1.233(7) . ?
C4 C3 1.381(5) . ?
C4 C5 1.391(5) . ?
N4 C16 1.338(7) . ?
N4 C14 1.369(6) . ?
N4 H4 0.8600 . ?
C3 H3 0.9300 . ?
N3 C8 1.304(7) . ?
N3 C5 1.400(7) . ?
C8 H8 0.9300 . ?
C7 C6 1.382(5) . ?
C7 H7 0.9300 . ?
C6 C5 1.399(5) . ?
C6 H6 0.9300 . ?
C9 C10 1.479(7) . ?
C10 C15 1.386(8) . ?
C10 C11 1.418(7) . ?
C11 C12 1.378(7) . ?
C11 H11 0.9300 . ?
C12 C13 1.388(6) . ?
C12 H12 0.9300 . ?
C13 C14 1.398(6) . ?
C14 C15 1.393(7) . ?
C15 H15 0.9300 . ?
C16 H16 0.9300 . ?
