#------------------------------------------------------------------------------
#$Date: 2020-04-29 01:48:27 +0300 (Wed, 29 Apr 2020) $
#$Revision: 251252 $
#$URL: file:///home/coder/svn-repositories/cod/cif/7/24/04/7240417.cif $
#------------------------------------------------------------------------------
#
# This file is available in the Crystallography Open Database (COD),
# http://www.crystallography.net/
#
# All data on this site have been placed in the public domain by the
# contributors.
#
data_7240417
loop_
_publ_author_name
'Yu, Hai-Huan'
'Chi, Jia-Qi'
'Su, Zhong-Min'
'Li, Xiao'
'Sun, Jing'
'Zhou, Chen'
'Hu, Xiao-Li'
'Liu, Qun'
_publ_section_title
;
 A water-stable terbium metal-organic framework with functionalized
 ligands for the detection of Fe3+, Cr2O72- ions in water and picric acid
 in seawater
;
_journal_name_full               CrystEngComm
_journal_paper_doi               10.1039/D0CE00430H
_journal_year                    2020
_chemical_formula_moiety         'C24 H10 F6 N2 O7 Tb'
_chemical_formula_sum            'C24 H10 F6 N2 O7 Tb'
_chemical_formula_weight         711.26
_space_group_crystal_system      monoclinic
_space_group_IT_number           15
_space_group_name_Hall           '-C 2yc'
_space_group_name_H-M_alt        'C 1 2/c 1'
_atom_sites_solution_hydrogens   mixed
_atom_sites_solution_primary     iterative
_audit_creation_date             2019-12-23
_audit_creation_method
;
Olex2 1.2-beta
(compiled 2018.05.29 svn.r3508 for OlexSys, GUI svn.r5506)
;
_audit_update_record
;
2019-12-31 deposited with the CCDC.	2020-04-27 downloaded from the CCDC.
;
_cell_angle_alpha                90
_cell_angle_beta                 101.743(2)
_cell_angle_gamma                90
_cell_formula_units_Z            8
_cell_length_a                   19.6366(9)
_cell_length_b                   21.2636(11)
_cell_length_c                   11.5383(6)
_cell_measurement_reflns_used    9832
_cell_measurement_temperature    273(2)
_cell_measurement_theta_max      25.127
_cell_measurement_theta_min      1.628
_cell_volume                     4716.9(4)
_computing_cell_refinement       'SAINT+ Ver. 2016.5-0 (Bruker-AXS, 2016)'
_computing_data_collection       'APEX3 Ver. 2016.5-0 (Bruker-AXS, 2016)'
_computing_data_reduction        'SAINT+ Ver. 2016.5-0 (Bruker-AXS, 2016)'
_computing_molecular_graphics    'Olex2 (Dolomanov et al., 2009)'
_computing_publication_material  'Olex2 (Dolomanov et al., 2009)'
_computing_structure_refinement  'ShelXL (Sheldrick, 2015)'
_computing_structure_solution    'olex2.solve (Bourhis et al., 2015)'
_diffrn_ambient_temperature      273.15
_diffrn_detector                 'charge-coupled device (CCD) area detector'
_diffrn_detector_area_resol_mean 7.9
_diffrn_detector_type            'Bruker APEX II'
_diffrn_measured_fraction_theta_full 0.993
_diffrn_measured_fraction_theta_max 0.993
_diffrn_measurement_device       'three-circle diffractometer'
_diffrn_measurement_device_type  'Bruker APEX II Quazar'
_diffrn_measurement_method       '0.5\% \w and 0.5\% \f scans'
_diffrn_radiation_collimation    'focusing mirrors'
_diffrn_radiation_detector       'Bruker APEX II'
_diffrn_radiation_monochromator  'mirror optics'
_diffrn_radiation_probe          x-ray
_diffrn_radiation_type           MoK\a
_diffrn_radiation_wavelength     0.71073
_diffrn_reflns_av_R_equivalents  0.0387
_diffrn_reflns_av_unetI/netI     0.0191
_diffrn_reflns_Laue_measured_fraction_full 0.993
_diffrn_reflns_Laue_measured_fraction_max 0.993
_diffrn_reflns_limit_h_max       23
_diffrn_reflns_limit_h_min       -22
_diffrn_reflns_limit_k_max       25
_diffrn_reflns_limit_k_min       -25
_diffrn_reflns_limit_l_max       13
_diffrn_reflns_limit_l_min       -13
_diffrn_reflns_number            41601
_diffrn_reflns_point_group_measured_fraction_full 0.993
_diffrn_reflns_point_group_measured_fraction_max 0.993
_diffrn_reflns_theta_full        25.162
_diffrn_reflns_theta_max         25.162
_diffrn_reflns_theta_min         2.631
_diffrn_source                   'microfocus sealed X-ray tube'
_diffrn_source_type              'Incoatec I\ms'
_exptl_absorpt_coefficient_mu    3.097
_exptl_absorpt_correction_T_max  0.87
_exptl_absorpt_correction_T_min  0.86
_exptl_absorpt_correction_type   multi-scan
_exptl_absorpt_process_details
'SADABS-2016/2 (Krause et al., 2015) was used for absorption correction.'
_exptl_crystal_colour            green
_exptl_crystal_colour_primary    green
_exptl_crystal_density_diffrn    2.003
_exptl_crystal_density_method    'not measured'
_exptl_crystal_description       block
_exptl_crystal_F_000             2744
_exptl_crystal_size_max          0.24
_exptl_crystal_size_mid          0.22
_exptl_crystal_size_min          0.2
_refine_diff_density_max         1.097
_refine_diff_density_min         -1.008
_refine_diff_density_rms         0.109
_refine_ls_extinction_method     none
_refine_ls_goodness_of_fit_ref   1.042
_refine_ls_hydrogen_treatment    constr
_refine_ls_matrix_type           full
_refine_ls_number_parameters     362
_refine_ls_number_reflns         4213
_refine_ls_number_restraints     1212
_refine_ls_restrained_S_all      1.183
_refine_ls_R_factor_all          0.0368
_refine_ls_R_factor_gt           0.0292
_refine_ls_shift/su_max          0.003
_refine_ls_shift/su_mean         0.000
_refine_ls_structure_factor_coef Fsqd
_refine_ls_weighting_details
'w=1/[\s^2^(Fo^2^)+(0.0321P)^2^+39.9934P] where P=(Fo^2^+2Fc^2^)/3'
_refine_ls_weighting_scheme      calc
_refine_ls_wR_factor_gt          0.0691
_refine_ls_wR_factor_ref         0.0731
_reflns_Friedel_coverage         0.000
_reflns_number_gt                3638
_reflns_number_total             4213
_reflns_threshold_expression     'I > 2\s(I)'
_cod_data_source_file            d0ce00430h2.cif
_cod_data_source_block           Tb-MOF-A
_cod_database_code               7240417
_shelx_shelxl_version_number     2017/1
_shelx_space_group_comment
;
The symmetry employed for this shelxl refinement is uniquely defined
by the following loop, which should always be used as a source of
symmetry information in preference to the above space-group names.
They are only intended as comments.
;
_shelx_estimated_absorpt_t_max   25.0857
_shelx_estimated_absorpt_t_min   2.8567
_olex2_refinement_description
;
1. Fixed Uiso
 At 1.2 times of:
  All C(H) groups
 At 1.5 times of:
  All O(H,H) groups
2. Uiso/Uaniso restraints and constraints
F5 \\sim C1 \\sim O7 \\sim O5 \\sim F4 \\sim C3 \\sim N1 \\sim C4 \\sim N2
\\sim F3 \\sim C8 \\sim C2 \\sim C5 \\sim F6 \\sim C6 \\sim O6 \\sim C9 \\sim
C7 \\sim C10 \\sim Tb1 \\sim F1 \\sim O1 \\sim O2 \\sim F2 \\sim O3 \\sim O4
\\sim C11 \\sim C14 \\sim C15 \\sim C20 \\sim C16 \\sim C21 \\sim C23 \\sim C13
\\sim C19 \\sim C22 \\sim C12 \\sim C24 \\sim C17 \\sim C18: within 3.8A with
sigma of 0.005 and sigma for terminal atoms of 0.01
3.a Rotating group:
 O7(H7A,H7B)
3.b Aromatic/amide H refined with riding coordinates:
 C12(H12), C17(H17), C18(H18), C19(H19), C20(H20), C21(H21), C23(H23), C24(H24)
;
_shelx_res_file
;
TITL 1_a.res in C2/c
    1_sq.res
    created by SHELXL-2017/1 at 17:58:25 on 23-Dec-2019
REM Old TITL 1 in C2/c
REM SHELXT solution in C2/c
REM R1 0.087, Rweak 0.003, Alpha 0.063, Orientation as input
REM Formula found by SHELXT: C25 N O13 Tb
CELL 0.71073 19.6366 21.2636 11.5383 90 101.743 90
ZERR 8 0.0009 0.0011 0.0006 0 0.002 0
LATT 7
SYMM -X,+Y,0.5-Z
SFAC C H F N O Tb
UNIT 192 80 48 16 56 8
SIMU 0.005 0.01 3.8 F5 C1 O7 O5 F4 C3 N1 C4 N2 F3 C8 C2 C5 F6 C6 O6 C9 C7 =
 C10 TB1 F1 O1 O2 F2 O3 O4 C11 C14 C15 C20 C16 C21 C23 C13 C19 C22 C12 C24 =
 C17 C18

L.S. 20 0 3
PLAN  20
TEMP 0
list 4
ABIN
fmap 2 53
acta
OMIT 1 1 1
REM <olex2.extras>
REM <HklSrc "%.\\1_sq.hkl">
REM </olex2.extras>

WGHT    0.032100   39.993401
FVAR       0.11780
TB1   6    0.695528    0.255082    0.646002    11.00000    0.01944    0.01200 =
         0.01799    0.00026   -0.00027   -0.00019
O1    5    0.728253    0.330086    0.351696    11.00000    0.03241    0.01761 =
         0.02666    0.00032    0.00036    0.00202
F1    3    0.568111    0.312731    0.295000    11.00000    0.03360    0.02232 =
         0.05620   -0.00187   -0.01022   -0.00486
F2    3    0.568347    0.091529    0.295147    11.00000    0.02840    0.02127 =
         0.07064    0.00050   -0.00652    0.00685
O2    5    0.687461    0.341982    0.518523    11.00000    0.03382    0.01962 =
         0.02711    0.00274    0.00185    0.00113
O3    5    0.669033    0.213620    0.455868    11.00000    0.03097    0.02437 =
         0.02774   -0.00294   -0.00284    0.00102
O4    5    0.689658    0.201326    0.275474    11.00000    0.02452    0.02809 =
         0.03013   -0.00288    0.00139   -0.00188
O5    5    0.672638    0.657047    0.257304    11.00000    0.04241    0.01554 =
         0.02554    0.00440    0.00057   -0.00458
O6    5    0.718348    0.667826    0.447643    11.00000    0.07482    0.01894 =
         0.02993   -0.00163   -0.00630   -0.00397
O7    5    0.715647    0.221875    0.845136    11.00000    0.05537    0.02005 =
         0.02300   -0.00002    0.00578   -0.00054
AFIX   7
H7A   2    0.685388    0.193984    0.854356    11.00000   -1.50000
H7B   2    0.707976    0.252585    0.889576    11.00000   -1.50000
AFIX   0
F3    3    0.772667    0.449377    0.592674    11.00000    0.09083    0.03350 =
         0.04979    0.01070   -0.03671   -0.00589
F4    3    0.770421    0.570651    0.563329    11.00000    0.10245    0.03010 =
         0.05135   -0.00075   -0.03661   -0.01049
F5    3    0.624562    0.544391    0.186424    11.00000    0.10644    0.02928 =
         0.05336    0.00900   -0.04414   -0.00734
C1    1    0.572402    0.202347    0.297303    11.00000    0.02213    0.02156 =
         0.02496   -0.00217    0.00155   -0.00057
F6    3    0.630632    0.422704    0.216993    11.00000    0.10413    0.02578 =
         0.05210    0.00077   -0.03743   -0.00829
C2    1    0.535314    0.147242    0.273543    11.00000    0.02404    0.02004 =
         0.02979   -0.00120    0.00014    0.00217
C3    1    0.535147    0.257284    0.273478    11.00000    0.02601    0.02573 =
         0.03226   -0.00267    0.00134   -0.00232
N1    4    0.620512    0.155255    0.655342    11.00000    0.03150    0.02934 =
         0.02987   -0.00012    0.00653   -0.00546
C4    1    0.650061    0.205236    0.346495    11.00000    0.02477    0.01647 =
         0.02567   -0.00049   -0.00210   -0.00043
N2    4    0.564144    0.269502    0.591382    11.00000    0.02877    0.03106 =
         0.03465   -0.00267    0.00348   -0.00008
C5    1    0.704973    0.361045    0.427172    11.00000    0.03282    0.01497 =
         0.02523    0.00136   -0.00310   -0.00026
C6    1    0.699839    0.431749    0.407124    11.00000    0.04256    0.01633 =
         0.02732    0.00103   -0.00265    0.00010
C7    1    0.695295    0.564997    0.374629    11.00000    0.04746    0.01440 =
         0.02721    0.00197   -0.00305   -0.00195
C8    1    0.521424    0.217977    0.572256    11.00000    0.02936    0.03409 =
         0.03215   -0.00367    0.00567   -0.00324
C9    1    0.695397    0.635849    0.358251    11.00000    0.04130    0.01282 =
         0.02643    0.00171    0.00056   -0.00252
C10   1    0.731976    0.536526    0.475889    11.00000    0.05167    0.01853 =
         0.03004   -0.00017   -0.00799   -0.00380
C11   1    0.551794    0.157446    0.607596    11.00000    0.03102    0.03353 =
         0.03106   -0.00290    0.00691   -0.00616
C12   1    0.647886    0.099507    0.692515    11.00000    0.03495    0.02936 =
         0.03179    0.00200    0.00544   -0.00539
AFIX  43
H12   2    0.695035    0.097616    0.726527    11.00000   -1.20000
AFIX   0
C13   1    0.664280    0.459216    0.304631    11.00000    0.05093    0.01915 =
         0.03110    0.00087   -0.00996   -0.00311
C14   1    0.450719    0.221742    0.520624    11.00000    0.03135    0.04047 =
         0.03608   -0.00390    0.00610   -0.00277
C15   1    0.734241    0.472183    0.491528    11.00000    0.04871    0.01945 =
         0.02875    0.00416   -0.00884   -0.00184
C16   1    0.661697    0.523496    0.289383    11.00000    0.05499    0.01983 =
         0.03083    0.00374   -0.01138   -0.00201
C17   1    0.423586    0.281772    0.487506    11.00000    0.03327    0.04586 =
         0.04205   -0.00429    0.00335    0.00082
AFIX  43
H17   2    0.377040    0.286403    0.451169    11.00000   -1.20000
AFIX   0
C18   1    0.409200    0.165174    0.504145    11.00000    0.03299    0.04724 =
         0.03978   -0.00492    0.00546   -0.00824
AFIX  43
H18   2    0.362261    0.167651    0.468952    11.00000   -1.20000
AFIX   0
C19   1    0.535741    0.325033    0.561313    11.00000    0.03253    0.03380 =
         0.03957   -0.00317    0.00186    0.00231
AFIX  43
H19   2    0.563809    0.360558    0.575831    11.00000   -1.20000
AFIX   0
C20   1    0.540194    0.046050    0.632626    11.00000    0.04085    0.03670 =
         0.03734   -0.00158    0.00785   -0.01249
AFIX  43
H20   2    0.513675    0.009481    0.624955    11.00000   -1.20000
AFIX   0
C21   1    0.437224    0.109469    0.538677    11.00000    0.03585    0.04328 =
         0.03882   -0.00386    0.00751   -0.01214
AFIX  43
H21   2    0.409327    0.073748    0.527472    11.00000   -1.20000
AFIX   0
C22   1    0.509242    0.103373    0.592589    11.00000    0.03451    0.03720 =
         0.03379   -0.00269    0.00794   -0.01054
C23   1    0.465631    0.332986    0.508798    11.00000    0.03691    0.04255 =
         0.04550   -0.00245    0.00042    0.00613
AFIX  43
H23   2    0.447911    0.372961    0.488605    11.00000   -1.20000
AFIX   0
C24   1    0.609169    0.043780    0.682847    11.00000    0.04299    0.03415 =
         0.03760    0.00239    0.00734   -0.00711
AFIX  43
H24   2    0.630176    0.005922    0.710221    11.00000   -1.20000
AFIX   0
HKLF 4




REM  1_a.res in C2/c
REM R1 =  0.0292 for    3638 Fo > 4sig(Fo)  and  0.0368 for all    4213 data
REM    362 parameters refined using   1212 restraints

END

WGHT      0.0321     39.9586

REM Highest difference peak  1.097,  deepest hole -1.008,  1-sigma level  0.109
Q1    1   0.7211  0.5752  0.5765  11.00000  0.05    1.10
Q2    1   0.5924  0.5549  0.2426  11.00000  0.05    0.92
Q3    1   0.5940  0.4277  0.2598  11.00000  0.05    0.85
Q4    1   0.6738  0.4203  0.2119  11.00000  0.05    0.82
Q5    1   0.6655  0.5415  0.1735  11.00000  0.05    0.79
Q6    1   0.4200  0.1381  0.5177  11.00000  0.05    0.76
Q7    1   0.7294  0.4574  0.6115  11.00000  0.05    0.76
Q8    1   0.7999  0.4436  0.5589  11.00000  0.05    0.64
Q9    1   0.7397  0.1942  0.9010  11.00000  0.05    0.61
Q10   1   0.5789  0.0414  0.6469  11.00000  0.05    0.55
Q11   1   0.4057  0.1996  0.4964  11.00000  0.05    0.54
Q12   1   0.6962  0.2206  0.4434  11.00000  0.05    0.52
Q13   1   0.4338  0.3141  0.4850  11.00000  0.05    0.48
Q14   1   0.7971  0.5629  0.5215  11.00000  0.05    0.48
Q15   1   0.5373  0.1824  0.6009  11.00000  0.05    0.45
Q16   1   0.5745  0.3036  0.2379  11.00000  0.05    0.43
Q17   1   0.5138  0.0684  0.6003  11.00000  0.05    0.41
Q18   1   0.4364  0.2542  0.5215  11.00000  0.05    0.40
Q19   1   0.7443  0.6646  0.4200  11.00000  0.05    0.40
Q20   1   0.6417  0.2043  0.4641  11.00000  0.05    0.39
;
_shelx_res_checksum              13857
_shelx_fab_file
;
    4    0    0     13.00      0.00
    6    0    0      5.06      0.00
    8    0    0      1.77      0.00
   10    0    0      1.22      0.00
   12    0    0      1.30      0.00
   14    0    0      1.20      0.00
   16    0    0      0.48      0.00
   18    0    0     -0.79      0.00
   20    0    0     -1.71      0.00
   22    0    0     -1.57      0.00
    3    1    0     16.82      0.00
    5    1    0      7.78      0.00
    7    1    0      2.64      0.00
    9    1    0      1.23      0.00
   11    1    0      1.18      0.00
   13    1    0      1.20      0.00
   15    1    0      0.83      0.00
   17    1    0     -0.20      0.00
   19    1    0     -1.38      0.00
   21    1    0     -1.75      0.00
    2    2    0     17.12      0.00
    4    2    0      9.41      0.00
    6    2    0      3.51      0.00
    8    2    0      1.30      0.00
   10    2    0      1.00      0.00
   12    2    0      1.00      0.00
   14    2    0      0.84      0.00
   16    2    0      0.19      0.00
   18    2    0     -0.90      0.00
   20    2    0     -1.62      0.00
   22    2    0     -1.38      0.00
    1    3    0     13.44      0.00
    3    3    0      8.76      0.00
    5    3    0      3.70      0.00
    7    3    0      1.30      0.00
    9    3    0      0.87      0.00
   11    3    0      0.81      0.00
   13    3    0      0.68      0.00
   15    3    0      0.36      0.00
   17    3    0     -0.42      0.00
   19    3    0     -1.25      0.00
   21    3    0     -1.36      0.00
    0    4    0      7.47      0.00
    2    4    0      5.84      0.00
    4    4    0      2.76      0.00
    6    4    0      1.00      0.00
    8    4    0      0.78      0.00
   10    4    0      0.75      0.00
   12    4    0      0.54      0.00
   14    4    0      0.37      0.00
   16    4    0     -0.02      0.00
   18    4    0     -0.71      0.00
   20    4    0     -1.08      0.00
   22    4    0     -0.75      0.00
    1    5    0      1.98      0.00
    3    5    0      0.92      0.00
    5    5    0      0.32      0.00
    7    5    0      0.65      0.00
    9    5    0      0.86      0.00
   11    5    0      0.55      0.00
   13    5    0      0.32      0.00
   15    5    0      0.24      0.00
   17    5    0     -0.13      0.00
   19    5    0     -0.59      0.00
   21    5    0     -0.57      0.00
    0    6    0     -1.00      0.00
    2    6    0     -0.97      0.00
    4    6    0     -0.53      0.00
    6    6    0      0.45      0.00
    8    6    0      1.05      0.00
   10    6    0      0.75      0.00
   12    6    0      0.30      0.00
   14    6    0      0.31      0.00
   16    6    0      0.31      0.00
   18    6    0     -0.02      0.00
   20    6    0     -0.24      0.00
   22    6    0     -0.06      0.00
    1    7    0     -1.95      0.00
    3    7    0     -1.12      0.00
    5    7    0      0.27      0.00
    7    7    0      1.25      0.00
    9    7    0      1.08      0.00
   11    7    0      0.37      0.00
   13    7    0      0.19      0.00
   15    7    0      0.45      0.00
   17    7    0      0.42      0.00
   19    7    0      0.11      0.00
   21    7    0      0.05      0.00
    0    8    0     -1.61      0.00
    2    8    0     -1.08      0.00
    4    8    0      0.22      0.00
    6    8    0      1.37      0.00
    8    8    0      1.40      0.00
   10    8    0      0.55      0.00
   12    8    0      0.01      0.00
   14    8    0      0.25      0.00
   16    8    0      0.53      0.00
   18    8    0      0.34      0.00
   20    8    0      0.10      0.00
    1    9    0     -0.40      0.00
    3    9    0      0.40      0.00
    5    9    0      1.36      0.00
    7    9    0      1.57      0.00
    9    9    0      0.78      0.00
   11    9    0     -0.08      0.00
   13    9    0     -0.12      0.00
   15    9    0      0.28      0.00
   17    9    0      0.33      0.00
   19    9    0      0.04      0.00
   21    9    0     -0.07      0.00
    0   10    0      0.56      0.00
    2   10    0      0.79      0.00
    4   10    0      1.28      0.00
    6   10    0      1.47      0.00
    8   10    0      0.90      0.00
   10   10    0     -0.03      0.00
   12   10    0     -0.42      0.00
   14   10    0     -0.13      0.00
   16   10    0      0.09      0.00
   18   10    0     -0.12      0.00
   20   10    0     -0.35      0.00
    1   11    0      1.23      0.00
    3   11    0      1.23      0.00
    5   11    0      1.16      0.00
    7   11    0      0.77      0.00
    9   11    0      0.06      0.00
   11   11    0     -0.49      0.00
   13   11    0     -0.46      0.00
   15   11    0     -0.22      0.00
   17   11    0     -0.32      0.00
   19   11    0     -0.61      0.00
    0   12    0      1.45      0.00
    2   12    0      1.24      0.00
    4   12    0      0.83      0.00
    6   12    0      0.45      0.00
    8   12    0      0.04      0.00
   10   12    0     -0.36      0.00
   12   12    0     -0.51      0.00
   14   12    0     -0.41      0.00
   16   12    0     -0.46      0.00
   18   12    0     -0.75      0.00
   20   12    0     -0.87      0.00
    1   13    0      1.26      0.00
    3   13    0      0.68      0.00
    5   13    0      0.12      0.00
    7   13    0     -0.11      0.00
    9   13    0     -0.21      0.00
   11   13    0     -0.32      0.00
   13   13    0     -0.37      0.00
   15   13    0     -0.46      0.00
   17   13    0     -0.72      0.00
   19   13    0     -0.97      0.00
    0   14    0      1.12      0.00
    2   14    0      0.71      0.00
    4   14    0     -0.01      0.00
    6   14    0     -0.29      0.00
    8   14    0     -0.13      0.00
   10   14    0     -0.03      0.00
   12   14    0     -0.13      0.00
   14   14    0     -0.32      0.00
   16   14    0     -0.59      0.00
   18   14    0     -0.88      0.00
    1   15    0      0.72      0.00
    3   15    0      0.08      0.00
    5   15    0     -0.34      0.00
    7   15    0     -0.12      0.00
    9   15    0      0.22      0.00
   11   15    0      0.18      0.00
   13   15    0     -0.13      0.00
   15   15    0     -0.44      0.00
   17   15    0     -0.72      0.00
    0   16    0      0.54      0.00
    2   16    0      0.21      0.00
    4   16    0     -0.24      0.00
    6   16    0     -0.10      0.00
    8   16    0      0.38      0.00
   10   16    0      0.47      0.00
   12   16    0      0.08      0.00
   14   16    0     -0.36      0.00
   16   16    0     -0.63      0.00
    1   17    0      0.19      0.00
    3   17    0     -0.12      0.00
    5   17    0     -0.07      0.00
    7   17    0      0.44      0.00
    9   17    0      0.68      0.00
   11   17    0      0.27      0.00
   13   17    0     -0.34      0.00
   15   17    0     -0.68      0.00
   17   17    0     -0.76      0.00
    0   18    0      0.00      0.00
    2   18    0     -0.11      0.00
    4   18    0     -0.07      0.00
    6   18    0      0.40      0.00
    8   18    0      0.78      0.00
   10   18    0      0.45      0.00
   12   18    0     -0.31      0.00
   14   18    0     -0.82      0.00
   16   18    0     -0.88      0.00
    1   19    0     -0.18      0.00
    3   19    0     -0.13      0.00
    5   19    0      0.27      0.00
    7   19    0      0.73      0.00
    9   19    0      0.57      0.00
   11   19    0     -0.23      0.00
   13   19    0     -0.93      0.00
   15   19    0     -1.07      0.00
    0   20    0     -0.20      0.00
    2   20    0     -0.17      0.00
    4   20    0      0.10      0.00
    6   20    0      0.54      0.00
    8   20    0      0.57      0.00
   10   20    0     -0.11      0.00
   12   20    0     -0.93      0.00
   14   20    0     -1.21      0.00
    1   21    0     -0.09      0.00
    3   21    0      0.02      0.00
    5   21    0      0.31      0.00
    7   21    0      0.44      0.00
    9   21    0     -0.04      0.00
   11   21    0     -0.84      0.00
    0   22    0      0.13      0.00
    2   22    0      0.12      0.00
    4   22    0      0.18      0.00
    6   22    0      0.24      0.00
    8   22    0     -0.06      0.00
   10   22    0     -0.72      0.00
    1   23    0      0.37      0.00
    3   23    0      0.25      0.00
    5   23    0      0.13      0.00
    7   23    0     -0.12      0.00
    9   23    0     -0.62      0.00
    0   24    0      0.60      0.00
    2   24    0      0.47      0.00
    4   24    0      0.19      0.00
    6   24    0     -0.13      0.00
    1   25    0      0.66      0.00
    3   25    0      0.38      0.00
  -23    1    1     -0.28      0.00
  -21    1    1     -0.40      0.00
  -19    1    1     -0.45      0.00
  -17    1    1     -0.40      0.00
  -15    1    1     -0.24      0.00
  -13    1    1      0.03      0.00
  -11    1    1      0.38      0.00
   -9    1    1      0.80      0.00
   -7    1    1      1.21      0.00
   -5    1    1      1.54      0.00
   -3    1    1      1.87      0.00
    1    1    1      2.33      0.00
    3    1    1      1.89      0.00
    5    1    1      1.06      0.00
    7    1    1      0.35      0.00
    9    1    1      0.02      0.00
   11    1    1     -0.10      0.00
   13    1    1     -0.24      0.00
   15    1    1     -0.38      0.00
   17    1    1     -0.43      0.00
   19    1    1     -0.33      0.00
   21    1    1     -0.14      0.00
  -22    2    1     -0.60      0.00
  -20    2    1     -0.76      0.00
  -18    2    1     -0.77      0.00
  -16    2    1     -0.58      0.00
  -14    2    1     -0.18      0.00
  -12    2    1      0.36      0.00
  -10    2    1      1.03      0.00
   -8    2    1      1.74      0.00
   -6    2    1      2.35      0.00
   -4    2    1      2.89      0.00
   -2    2    1      3.55      0.00
    0    2    1      4.10      0.00
    2    2    1      3.86      0.00
    4    2    1      2.62      0.00
    6    2    1      1.11      0.00
    8    2    1      0.17      0.00
   10    2    1     -0.18      0.00
   12    2    1     -0.40      0.00
   14    2    1     -0.65      0.00
   16    2    1     -0.80      0.00
   18    2    1     -0.72      0.00
   20    2    1     -0.43      0.00
   22    2    1     -0.05      0.00
  -23    3    1     -0.59      0.00
  -21    3    1     -0.85      0.00
  -19    3    1     -0.97      0.00
  -17    3    1     -0.86      0.00
  -15    3    1     -0.46      0.00
  -13    3    1      0.13      0.00
  -11    3    1      0.83      0.00
   -9    3    1      1.60      0.00
   -7    3    1      2.31      0.00
   -5    3    1      2.91      0.00
   -3    3    1      3.63      0.00
   -1    3    1      4.55      0.00
    1    3    1      4.95      0.00
    3    3    1      4.03      0.00
    5    3    1      2.14      0.00
    7    3    1      0.51      0.00
    9    3    1     -0.25      0.00
   11    3    1     -0.54      0.00
   13    3    1     -0.81      0.00
   15    3    1     -1.03      0.00
   17    3    1     -1.00      0.00
   19    3    1     -0.71      0.00
   21    3    1     -0.25      0.00
  -22    4    1     -0.75      0.00
  -20    4    1     -0.95      0.00
  -18    4    1     -0.96      0.00
  -16    4    1     -0.67      0.00
  -14    4    1     -0.12      0.00
  -12    4    1      0.52      0.00
  -10    4    1      1.14      0.00
   -8    4    1      1.72      0.00
   -6    4    1      2.19      0.00
   -4    4    1      2.73      0.00
   -2    4    1      3.65      0.00
    0    4    1      4.61      0.00
    2    4    1      4.51      0.00
    4    4    1      2.95      0.00
    6    4    1      0.98      0.00
    8    4    1     -0.26      0.00
   10    4    1     -0.70      0.00
   12    4    1     -0.93      0.00
   14    4    1     -1.13      0.00
   16    4    1     -1.13      0.00
   18    4    1     -0.88      0.00
   20    4    1     -0.45      0.00
   22    4    1      0.06      0.00
  -21    5    1     -0.78      0.00
  -19    5    1     -0.85      0.00
  -17    5    1     -0.69      0.00
  -15    5    1     -0.24      0.00
  -13    5    1      0.32      0.00
  -11    5    1      0.75      0.00
   -9    5    1      1.04      0.00
   -7    5    1      1.24      0.00
   -5    5    1      1.46      0.00
   -3    5    1      2.04      0.00
   -1    5    1      3.08      0.00
    1    5    1      3.73      0.00
    3    5    1      3.03      0.00
    5    5    1      1.30      0.00
    7    5    1     -0.19      0.00
    9    5    1     -0.83      0.00
   11    5    1     -1.04      0.00
   13    5    1     -1.16      0.00
   15    5    1     -1.13      0.00
   17    5    1     -0.90      0.00
   19    5    1     -0.56      0.00
   21    5    1     -0.15      0.00
  -22    6    1     -0.64      0.00
  -20    6    1     -0.62      0.00
  -18    6    1     -0.52      0.00
  -16    6    1     -0.21      0.00
  -14    6    1      0.29      0.00
  -12    6    1      0.65      0.00
  -10    6    1      0.69      0.00
   -8    6    1      0.57      0.00
   -6    6    1      0.45      0.00
   -4    6    1      0.59      0.00
   -2    6    1      1.27      0.00
    0    6    1      2.15      0.00
    2    6    1      2.25      0.00
    4    6    1      1.20      0.00
    6    6    1     -0.15      0.00
    8    6    1     -0.90      0.00
   10    6    1     -1.10      0.00
   12    6    1     -1.14      0.00
   14    6    1     -1.04      0.00
   16    6    1     -0.79      0.00
   18    6    1     -0.54      0.00
   20    6    1     -0.32      0.00
  -21    7    1     -0.47      0.00
  -19    7    1     -0.27      0.00
  -17    7    1     -0.04      0.00
  -15    7    1      0.38      0.00
  -13    7    1      0.77      0.00
  -11    7    1      0.77      0.00
   -9    7    1      0.42      0.00
   -7    7    1      0.04      0.00
   -5    7    1     -0.14      0.00
   -3    7    1      0.07      0.00
   -1    7    1      0.68      0.00
    1    7    1      1.09      0.00
    3    7    1      0.68      0.00
    5    7    1     -0.26      0.00
    7    7    1     -0.93      0.00
    9    7    1     -1.09      0.00
   11    7    1     -1.06      0.00
   13    7    1     -0.92      0.00
   15    7    1     -0.62      0.00
   17    7    1     -0.38      0.00
   19    7    1     -0.36      0.00
   21    7    1     -0.34      0.00
  -22    8    1     -0.49      0.00
  -20    8    1     -0.11      0.00
  -18    8    1      0.17      0.00
  -16    8    1      0.50      0.00
  -14    8    1      0.92      0.00
  -12    8    1      1.07      0.00
  -10    8    1      0.74      0.00
   -8    8    1      0.23      0.00
   -6    8    1     -0.09      0.00
   -4    8    1     -0.14      0.00
   -2    8    1      0.08      0.00
    0    8    1      0.31      0.00
    2    8    1      0.14      0.00
    4    8    1     -0.46      0.00
    6    8    1     -0.94      0.00
    8    8    1     -1.02      0.00
   10    8    1     -0.93      0.00
   12    8    1     -0.79      0.00
   14    8    1     -0.48      0.00
   16    8    1     -0.17      0.00
   18    8    1     -0.23      0.00
   20    8    1     -0.50      0.00
  -21    9    1     -0.13      0.00
  -19    9    1      0.30      0.00
  -17    9    1      0.59      0.00
  -15    9    1      0.97      0.00
  -13    9    1      1.31      0.00
  -11    9    1      1.21      0.00
   -9    9    1      0.75      0.00
   -7    9    1      0.40      0.00
   -5    9    1      0.36      0.00
   -3    9    1      0.43      0.00
   -1    9    1      0.38      0.00
    1    9    1      0.06      0.00
    3    9    1     -0.49      0.00
    5    9    1     -0.89      0.00
    7    9    1     -0.91      0.00
    9    9    1     -0.76      0.00
   11    9    1     -0.65      0.00
   13    9    1     -0.41      0.00
   15    9    1     -0.04      0.00
   17    9    1      0.00      0.00
   19    9    1     -0.42      0.00
   21    9    1     -0.79      0.00
  -20   10    1      0.27      0.00
  -18   10    1      0.60      0.00
  -16   10    1      0.88      0.00
  -14   10    1      1.28      0.00
  -12   10    1      1.48      0.00
  -10   10    1      1.25      0.00
   -8   10    1      0.93      0.00
   -6   10    1      0.96      0.00
   -4   10    1      1.16      0.00
   -2   10    1      1.11      0.00
    0   10    1      0.61      0.00
    2   10    1     -0.14      0.00
    4   10    1     -0.69      0.00
    6   10    1     -0.76      0.00
    8   10    1     -0.59      0.00
   10   10    1     -0.51      0.00
   12   10    1     -0.41      0.00
   14   10    1     -0.07      0.00
   16   10    1      0.15      0.00
   18   10    1     -0.18      0.00
   20   10    1     -0.74      0.00
  -21   11    1      0.10      0.00
  -19   11    1      0.49      0.00
  -17   11    1      0.70      0.00
  -15   11    1      1.02      0.00
  -13   11    1      1.39      0.00
  -11   11    1      1.44      0.00
   -9   11    1      1.22      0.00
   -7   11    1      1.23      0.00
   -5   11    1      1.58      0.00
   -3   11    1      1.80      0.00
   -1   11    1      1.42      0.00
    1   11    1      0.54      0.00
    3   11    1     -0.26      0.00
    5   11    1     -0.55      0.00
    7   11    1     -0.44      0.00
    9   11    1     -0.38      0.00
   11   11    1     -0.42      0.00
   13   11    1     -0.23      0.00
   15   11    1      0.10      0.00
   17   11    1      0.03      0.00
   19   11    1     -0.50      0.00
  -20   12    1      0.31      0.00
  -18   12    1      0.50      0.00
  -16   12    1      0.67      0.00
  -14   12    1      1.02      0.00
  -12   12    1      1.28      0.00
  -10   12    1      1.20      0.00
   -8   12    1      1.09      0.00
   -6   12    1      1.38      0.00
   -4   12    1      1.85      0.00
   -2   12    1      1.86      0.00
    0   12    1      1.18      0.00
    2   12    1      0.25      0.00
    4   12    1     -0.29      0.00
    6   12    1     -0.34      0.00
    8   12    1     -0.30      0.00
   10   12    1     -0.42      0.00
   12   12    1     -0.40      0.00
   14   12    1     -0.10      0.00
   16   12    1      0.07      0.00
   18   12    1     -0.23      0.00
  -19   13    1      0.32      0.00
  -17   13    1      0.41      0.00
  -15   13    1      0.60      0.00
  -13   13    1      0.89      0.00
  -11   13    1      0.94      0.00
   -9   13    1      0.75      0.00
   -7   13    1      0.77      0.00
   -5   13    1      1.19      0.00
   -3   13    1      1.55      0.00
   -1   13    1      1.32      0.00
    1   13    1      0.59      0.00
    3   13    1     -0.08      0.00
    5   13    1     -0.31      0.00
    7   13    1     -0.31      0.00
    9   13    1     -0.40      0.00
   11   13    1     -0.49      0.00
   13   13    1     -0.29      0.00
   15   13    1      0.00      0.00
   17   13    1     -0.05      0.00
   19   13    1     -0.38      0.00
  -18   14    1      0.30      0.00
  -16   14    1      0.37      0.00
  -14   14    1      0.54      0.00
  -12   14    1      0.64      0.00
  -10   14    1      0.43      0.00
   -8   14    1      0.16      0.00
   -6   14    1      0.25      0.00
   -4   14    1      0.65      0.00
   -2   14    1      0.84      0.00
    0   14    1      0.53      0.00
    2   14    1     -0.01      0.00
    4   14    1     -0.35      0.00
    6   14    1     -0.40      0.00
    8   14    1     -0.43      0.00
   10   14    1     -0.49      0.00
   12   14    1     -0.34      0.00
   14   14    1     -0.03      0.00
   16   14    1      0.08      0.00
   18   14    1     -0.15      0.00
  -17   15    1      0.38      0.00
  -15   15    1      0.44      0.00
  -13   15    1      0.46      0.00
  -11   15    1      0.28      0.00
   -9   15    1     -0.13      0.00
   -7   15    1     -0.43      0.00
   -5   15    1     -0.31      0.00
   -3   15    1      0.02      0.00
   -1   15    1      0.12      0.00
    1   15    1     -0.12      0.00
    3   15    1     -0.41      0.00
    5   15    1     -0.54      0.00
    7   15    1     -0.54      0.00
    9   15    1     -0.50      0.00
   11   15    1     -0.29      0.00
   13   15    1      0.07      0.00
   15   15    1      0.27      0.00
   17   15    1      0.09      0.00
  -18   16    1      0.50      0.00
  -16   16    1      0.58      0.00
  -14   16    1      0.53      0.00
  -12   16    1      0.34      0.00
  -10   16    1     -0.07      0.00
   -8   16    1     -0.56      0.00
   -6   16    1     -0.79      0.00
   -4   16    1     -0.65      0.00
   -2   16    1     -0.39      0.00
    0   16    1     -0.31      0.00
    2   16    1     -0.44      0.00
    4   16    1     -0.61      0.00
    6   16    1     -0.67      0.00
    8   16    1     -0.58      0.00
   10   16    1     -0.28      0.00
   12   16    1      0.19      0.00
   14   16    1      0.52      0.00
   16   16    1      0.41      0.00
  -17   17    1      0.78      0.00
  -15   17    1      0.75      0.00
  -13   17    1      0.56      0.00
  -11   17    1      0.22      0.00
   -9   17    1     -0.25      0.00
   -7   17    1     -0.68      0.00
   -5   17    1     -0.82      0.00
   -3   17    1     -0.68      0.00
   -1   17    1     -0.47      0.00
    1   17    1     -0.42      0.00
    3   17    1     -0.55      0.00
    5   17    1     -0.71      0.00
    7   17    1     -0.70      0.00
    9   17    1     -0.38      0.00
   11   17    1      0.19      0.00
   13   17    1      0.68      0.00
   15   17    1      0.72      0.00
  -16   18    1      0.94      0.00
  -14   18    1      0.80      0.00
  -12   18    1      0.53      0.00
  -10   18    1      0.19      0.00
   -8   18    1     -0.18      0.00
   -6   18    1     -0.48      0.00
   -4   18    1     -0.58      0.00
   -2   18    1     -0.48      0.00
    0   18    1     -0.36      0.00
    2   18    1     -0.41      0.00
    4   18    1     -0.62      0.00
    6   18    1     -0.76      0.00
    8   18    1     -0.57      0.00
   10   18    1     -0.02      0.00
   12   18    1      0.60      0.00
   14   18    1      0.85      0.00
  -15   19    1      0.89      0.00
  -13   19    1      0.72      0.00
  -11   19    1      0.53      0.00
   -9   19    1      0.33      0.00
   -7   19    1      0.08      0.00
   -5   19    1     -0.17      0.00
   -3   19    1     -0.31      0.00
   -1   19    1     -0.30      0.00
    1   19    1     -0.30      0.00
    3   19    1     -0.48      0.00
    5   19    1     -0.73      0.00
    7   19    1     -0.74      0.00
    9   19    1     -0.35      0.00
   11   19    1      0.25      0.00
   13   19    1      0.65      0.00
  -14   20    1      0.69      0.00
  -12   20    1      0.63      0.00
  -10   20    1      0.61      0.00
   -8   20    1      0.55      0.00
   -6   20    1      0.33      0.00
   -4   20    1     -0.01      0.00
   -2   20    1     -0.24      0.00
    0   20    1     -0.33      0.00
    2   20    1     -0.44      0.00
    4   20    1     -0.68      0.00
    6   20    1     -0.84      0.00
    8   20    1     -0.66      0.00
   10   20    1     -0.20      0.00
   12   20    1      0.20      0.00
  -13   21    1      0.52      0.00
  -11   21    1      0.63      0.00
   -9   21    1      0.75      0.00
   -7   21    1      0.70      0.00
   -5   21    1      0.35      0.00
   -3   21    1     -0.12      0.00
   -1   21    1     -0.42      0.00
    1   21    1     -0.54      0.00
    3   21    1     -0.69      0.00
    5   21    1     -0.87      0.00
    7   21    1     -0.85      0.00
    9   21    1     -0.57      0.00
   11   21    1     -0.27      0.00
  -10   22    1      0.72      0.00
   -8   22    1      0.86      0.00
   -6   22    1      0.66      0.00
   -4   22    1      0.11      0.00
   -2   22    1     -0.43      0.00
    0   22    1     -0.67      0.00
    2   22    1     -0.75      0.00
    4   22    1     -0.87      0.00
    6   22    1     -0.91      0.00
    8   22    1     -0.75      0.00
   10   22    1     -0.55      0.00
   -9   23    1      0.82      0.00
   -7   23    1      0.84      0.00
   -5   23    1      0.41      0.00
   -3   23    1     -0.24      0.00
   -1   23    1     -0.66      0.00
    1   23    1     -0.76      0.00
    3   23    1     -0.79      0.00
    5   23    1     -0.85      0.00
    7   23    1     -0.76      0.00
    9   23    1     -0.60      0.00
   -6   24    1      0.65      0.00
   -4   24    1      0.09      0.00
   -2   24    1     -0.45      0.00
    0   24    1     -0.61      0.00
    2   24    1     -0.59      0.00
    4   24    1     -0.62      0.00
    6   24    1     -0.62      0.00
   -3   25    1     -0.13      0.00
   -1   25    1     -0.35      0.00
    1   25    1     -0.28      0.00
    3   25    1     -0.26      0.00
  -22    0    2     -0.37      0.00
  -20    0    2     -1.05      0.00
  -18    0    2     -1.70      0.00
  -16    0    2     -2.05      0.00
  -14    0    2     -1.74      0.00
  -12    0    2     -0.70      0.00
  -10    0    2     -0.27      0.00
   -8    0    2     -2.33      0.00
   -6    0    2     -5.99      0.00
   -4    0    2     -7.26      0.00
   -2    0    2     -4.17      0.00
    0    0    2      0.05      0.00
    2    0    2      1.39      0.00
    4    0    2      0.15      0.00
    6    0    2     -0.90      0.00
    8    0    2     -0.89      0.00
   10    0    2     -0.68      0.00
   12    0    2     -0.42      0.00
   14    0    2      0.17      0.00
   16    0    2      0.49      0.00
   18    0    2     -0.05      0.00
   20    0    2     -0.91      0.00
   22    0    2     -1.20      0.00
  -23    1    2     -0.02      0.00
  -21    1    2     -0.59      0.00
  -19    1    2     -1.28      0.00
  -17    1    2     -1.82      0.00
  -15    1    2     -1.93      0.00
  -13    1    2     -1.26      0.00
  -11    1    2     -0.27      0.00
   -9    1    2     -0.81      0.00
   -7    1    2     -3.79      0.00
   -5    1    2     -6.57      0.00
   -3    1    2     -5.58      0.00
   -1    1    2     -1.52      0.00
    1    1    2      1.31      0.00
    3    1    2      0.96      0.00
    5    1    2     -0.46      0.00
    7    1    2     -0.87      0.00
    9    1    2     -0.64      0.00
   11    1    2     -0.46      0.00
   13    1    2     -0.05      0.00
   15    1    2      0.47      0.00
   17    1    2      0.31      0.00
   19    1    2     -0.55      0.00
   21    1    2     -1.18      0.00
  -22    2    2     -0.03      0.00
  -20    2    2     -0.65      0.00
  -18    2    2     -1.27      0.00
  -16    2    2     -1.67      0.00
  -14    2    2     -1.56      0.00
  -12    2    2     -0.72      0.00
  -10    2    2     -0.11      0.00
   -8    2    2     -1.41      0.00
   -6    2    2     -4.10      0.00
   -4    2    2     -4.97      0.00
   -2    2    2     -2.39      0.00
    0    2    2      0.91      0.00
    2    2    2      1.63      0.00
    4    2    2      0.32      0.00
    6    2    2     -0.56      0.00
    8    2    2     -0.43      0.00
   10    2    2     -0.20      0.00
   12    2    2      0.00      0.00
   14    2    2      0.42      0.00
   16    2    2      0.51      0.00
   18    2    2     -0.19      0.00
   20    2    2     -1.06      0.00
  -23    3    2      0.39      0.00
  -21    3    2     -0.03      0.00
  -19    3    2     -0.62      0.00
  -17    3    2     -1.12      0.00
  -15    3    2     -1.41      0.00
  -13    3    2     -1.14      0.00
  -11    3    2     -0.32      0.00
   -9    3    2     -0.09      0.00
   -7    3    2     -1.43      0.00
   -5    3    2     -2.87      0.00
   -3    3    2     -2.02      0.00
   -1    3    2      0.60      0.00
    1    3    2      2.00      0.00
    3    3    2      1.14      0.00
    5    3    2     -0.04      0.00
    7    3    2     -0.16      0.00
    9    3    2      0.15      0.00
   11    3    2      0.27      0.00
   13    3    2      0.46      0.00
   15    3    2      0.62      0.00
   17    3    2      0.13      0.00
   19    3    2     -0.83      0.00
   21    3    2     -1.35      0.00
  -22    4    2      0.33      0.00
  -20    4    2     -0.15      0.00
  -18    4    2     -0.60      0.00
  -16    4    2     -0.95      0.00
  -14    4    2     -1.16      0.00
  -12    4    2     -0.83      0.00
  -10    4    2     -0.07      0.00
   -8    4    2      0.06      0.00
   -6    4    2     -0.69      0.00
   -4    4    2     -0.78      0.00
   -2    4    2      0.67      0.00
    0    4    2      2.06      0.00
    2    4    2      1.73      0.00
    4    4    2      0.53      0.00
    6    4    2      0.13      0.00
    8    4    2      0.44      0.00
   10    4    2      0.59      0.00
   12    4    2      0.58      0.00
   14    4    2      0.67      0.00
   16    4    2      0.39      0.00
   18    4    2     -0.50      0.00
   20    4    2     -1.27      0.00
  -21    5    2      0.00      0.00
  -19    5    2     -0.39      0.00
  -17    5    2     -0.59      0.00
  -15    5    2     -0.83      0.00
  -13    5    2     -1.02      0.00
  -11    5    2     -0.65      0.00
   -9    5    2      0.10      0.00
   -7    5    2      0.40      0.00
   -5    5    2      0.38      0.00
   -3    5    2      0.97      0.00
   -1    5    2      1.91      0.00
    1    5    2      1.91      0.00
    3    5    2      0.95      0.00
    5    5    2      0.38      0.00
    7    5    2      0.61      0.00
    9    5    2      0.82      0.00
   11    5    2      0.68      0.00
   13    5    2      0.60      0.00
   15    5    2      0.48      0.00
   17    5    2     -0.16      0.00
   19    5    2     -1.01      0.00
   21    5    2     -1.29      0.00
  -22    6    2     -0.10      0.00
  -20    6    2     -0.50      0.00
  -18    6    2     -0.61      0.00
  -16    6    2     -0.58      0.00
  -14    6    2     -0.81      0.00
  -12    6    2     -1.00      0.00
  -10    6    2     -0.56      0.00
   -8    6    2      0.24      0.00
   -6    6    2      0.75      0.00
   -4    6    2      1.12      0.00
   -2    6    2      1.60      0.00
    0    6    2      1.67      0.00
    2    6    2      1.05      0.00
    4    6    2      0.52      0.00
    6    6    2      0.67      0.00
    8    6    2      0.93      0.00
   10    6    2      0.71      0.00
   12    6    2      0.41      0.00
   14    6    2      0.32      0.00
   16    6    2      0.02      0.00
   18    6    2     -0.66      0.00
   20    6    2     -1.12      0.00
  -21    7    2     -0.71      0.00
  -19    7    2     -0.94      0.00
  -17    7    2     -0.71      0.00
  -15    7    2     -0.59      0.00
  -13    7    2     -0.90      0.00
  -11    7    2     -1.02      0.00
   -9    7    2     -0.47      0.00
   -7    7    2      0.32      0.00
   -5    7    2      0.85      0.00
   -3    7    2      1.14      0.00
   -1    7    2      1.20      0.00
    1    7    2      0.85      0.00
    3    7    2      0.49      0.00
    5    7    2      0.64      0.00
    7    7    2      0.94      0.00
    9    7    2      0.72      0.00
   11    7    2      0.17      0.00
   13    7    2     -0.06      0.00
   15    7    2     -0.09      0.00
   17    7    2     -0.42      0.00
   19    7    2     -0.85      0.00
   21    7    2     -0.86      0.00
  -22    8    2     -0.77      0.00
  -20    8    2     -1.24      0.00
  -18    8    2     -1.15      0.00
  -16    8    2     -0.71      0.00
  -14    8    2     -0.66      0.00
  -12    8    2     -0.98      0.00
  -10    8    2     -0.92      0.00
   -8    8    2     -0.32      0.00
   -6    8    2      0.32      0.00
   -4    8    2      0.64      0.00
   -2    8    2      0.69      0.00
    0    8    2      0.53      0.00
    2    8    2      0.35      0.00
    4    8    2      0.53      0.00
    6    8    2      0.89      0.00
    8    8    2      0.74      0.00
   10    8    2      0.02      0.00
   12    8    2     -0.50      0.00
   14    8    2     -0.49      0.00
   16    8    2     -0.43      0.00
   18    8    2     -0.62      0.00
   20    8    2     -0.72      0.00
  -21    9    2     -1.22      0.00
  -19    9    2     -1.51      0.00
  -17    9    2     -1.15      0.00
  -15    9    2     -0.71      0.00
  -13    9    2     -0.73      0.00
  -11    9    2     -0.87      0.00
   -9    9    2     -0.60      0.00
   -7    9    2     -0.09      0.00
   -5    9    2      0.25      0.00
   -3    9    2      0.33      0.00
   -1    9    2      0.28      0.00
    1    9    2      0.25      0.00
    3    9    2      0.43      0.00
    5    9    2      0.80      0.00
    7    9    2      0.77      0.00
    9    9    2      0.04      0.00
   11    9    2     -0.78      0.00
   13    9    2     -0.98      0.00
   15    9    2     -0.71      0.00
   17    9    2     -0.57      0.00
   19    9    2     -0.60      0.00
  -20   10    2     -1.47      0.00
  -18   10    2     -1.52      0.00
  -16   10    2     -1.07      0.00
  -14   10    2     -0.73      0.00
  -12   10    2     -0.64      0.00
  -10   10    2     -0.46      0.00
   -8   10    2     -0.09      0.00
   -6   10    2      0.17      0.00
   -4   10    2      0.22      0.00
   -2   10    2      0.22      0.00
    0   10    2      0.28      0.00
    2   10    2      0.45      0.00
    4   10    2      0.73      0.00
    6   10    2      0.77      0.00
    8   10    2      0.17      0.00
   10   10    2     -0.79      0.00
   12   10    2     -1.30      0.00
   14   10    2     -1.09      0.00
   16   10    2     -0.70      0.00
   18   10    2     -0.55      0.00
   20   10    2     -0.52      0.00
  -21   11    2     -1.05      0.00
  -19   11    2     -1.51      0.00
  -17   11    2     -1.42      0.00
  -15   11    2     -1.02      0.00
  -13   11    2     -0.64      0.00
  -11   11    2     -0.24      0.00
   -9   11    2      0.19      0.00
   -7   11    2      0.41      0.00
   -5   11    2      0.36      0.00
   -3   11    2      0.31      0.00
   -1   11    2      0.42      0.00
    1   11    2      0.59      0.00
    3   11    2      0.74      0.00
    5   11    2      0.74      0.00
    7   11    2      0.29      0.00
    9   11    2     -0.59      0.00
   11   11    2     -1.33      0.00
   13   11    2     -1.36      0.00
   15   11    2     -0.90      0.00
   17   11    2     -0.56      0.00
   19   11    2     -0.50      0.00
  -20   12    2     -1.12      0.00
  -18   12    2     -1.43      0.00
  -16   12    2     -1.31      0.00
  -14   12    2     -0.91      0.00
  -12   12    2     -0.30      0.00
  -10   12    2      0.39      0.00
   -8   12    2      0.78      0.00
   -6   12    2      0.67      0.00
   -4   12    2      0.45      0.00
   -2   12    2      0.52      0.00
    0   12    2      0.75      0.00
    2   12    2      0.83      0.00
    4   12    2      0.71      0.00
    6   12    2      0.34      0.00
    8   12    2     -0.35      0.00
   10   12    2     -1.10      0.00
   12   12    2     -1.37      0.00
   14   12    2     -1.03      0.00
   16   12    2     -0.57      0.00
   18   12    2     -0.41      0.00
  -19   13    2     -1.06      0.00
  -17   13    2     -1.28      0.00
  -15   13    2     -1.16      0.00
  -13   13    2     -0.63      0.00
  -11   13    2      0.25      0.00
   -9   13    2      0.95      0.00
   -7   13    2      0.99      0.00
   -5   13    2      0.60      0.00
   -3   13    2      0.47      0.00
   -1   13    2      0.72      0.00
    1   13    2      0.89      0.00
    3   13    2      0.70      0.00
    5   13    2      0.31      0.00
    7   13    2     -0.20      0.00
    9   13    2     -0.78      0.00
   11   13    2     -1.14      0.00
   13   13    2     -0.98      0.00
   15   13    2     -0.52      0.00
   17   13    2     -0.24      0.00
  -18   14    2     -0.88      0.00
  -16   14    2     -1.06      0.00
  -14   14    2     -0.90      0.00
  -12   14    2     -0.18      0.00
  -10   14    2      0.74      0.00
   -8   14    2      1.11      0.00
   -6   14    2      0.73      0.00
   -4   14    2      0.32      0.00
   -2   14    2      0.44      0.00
    0   14    2      0.74      0.00
    2   14    2      0.66      0.00
    4   14    2      0.24      0.00
    6   14    2     -0.17      0.00
    8   14    2     -0.52      0.00
   10   14    2     -0.78      0.00
   12   14    2     -0.75      0.00
   14   14    2     -0.38      0.00
   16   14    2     -0.01      0.00
   18   14    2      0.01      0.00
  -17   15    2     -0.61      0.00
  -15   15    2     -0.79      0.00
  -13   15    2     -0.54      0.00
  -11   15    2      0.25      0.00
   -9   15    2      0.92      0.00
   -7   15    2      0.79      0.00
   -5   15    2      0.21      0.00
   -3   15    2      0.04      0.00
   -1   15    2      0.35      0.00
    1   15    2      0.48      0.00
    3   15    2      0.14      0.00
    5   15    2     -0.24      0.00
    7   15    2     -0.39      0.00
    9   15    2     -0.44      0.00
   11   15    2     -0.41      0.00
   13   15    2     -0.15      0.00
   15   15    2      0.23      0.00
   17   15    2      0.37      0.00
  -18   16    2     -0.06      0.00
  -16   16    2     -0.31      0.00
  -14   16    2     -0.51      0.00
  -12   16    2     -0.19      0.00
  -10   16    2      0.48      0.00
   -8   16    2      0.72      0.00
   -6   16    2      0.24      0.00
   -4   16    2     -0.23      0.00
   -2   16    2     -0.12      0.00
    0   16    2      0.14      0.00
    2   16    2     -0.02      0.00
    4   16    2     -0.36      0.00
    6   16    2     -0.41      0.00
    8   16    2     -0.21      0.00
   10   16    2     -0.04      0.00
   12   16    2      0.15      0.00
   14   16    2      0.46      0.00
   16   16    2      0.67      0.00
  -17   17    2      0.24      0.00
  -15   17    2     -0.10      0.00
  -13   17    2     -0.29      0.00
  -11   17    2      0.05      0.00
   -9   17    2      0.49      0.00
   -7   17    2      0.34      0.00
   -5   17    2     -0.20      0.00
   -3   17    2     -0.40      0.00
   -1   17    2     -0.21      0.00
    1   17    2     -0.23      0.00
    3   17    2     -0.51      0.00
    5   17    2     -0.54      0.00
    7   17    2     -0.15      0.00
    9   17    2      0.25      0.00
   11   17    2      0.47      0.00
   13   17    2      0.68      0.00
   15   17    2      0.87      0.00
  -16   18    2      0.38      0.00
  -14   18    2     -0.02      0.00
  -12   18    2     -0.14      0.00
  -10   18    2      0.20      0.00
   -8   18    2      0.41      0.00
   -6   18    2      0.08      0.00
   -4   18    2     -0.32      0.00
   -2   18    2     -0.37      0.00
    0   18    2     -0.37      0.00
    2   18    2     -0.62      0.00
    4   18    2     -0.70      0.00
    6   18    2     -0.26      0.00
    8   18    2      0.36      0.00
   10   18    2      0.73      0.00
   12   18    2      0.87      0.00
   14   18    2      0.99      0.00
  -15   19    2      0.35      0.00
  -13   19    2     -0.01      0.00
  -11   19    2      0.03      0.00
   -9   19    2      0.38      0.00
   -7   19    2      0.42      0.00
   -5   19    2      0.07      0.00
   -3   19    2     -0.20      0.00
   -1   19    2     -0.33      0.00
    1   19    2     -0.58      0.00
    3   19    2     -0.78      0.00
    5   19    2     -0.45      0.00
    7   19    2      0.30      0.00
    9   19    2      0.85      0.00
   11   19    2      1.02      0.00
   13   19    2      1.04      0.00
  -14   20    2      0.24      0.00
  -12   20    2      0.06      0.00
  -10   20    2      0.31      0.00
   -8   20    2      0.63      0.00
   -6   20    2      0.54      0.00
   -4   20    2      0.22      0.00
   -2   20    2     -0.05      0.00
    0   20    2     -0.36      0.00
    2   20    2     -0.67      0.00
    4   20    2     -0.55      0.00
    6   20    2      0.13      0.00
    8   20    2      0.82      0.00
   10   20    2      1.06      0.00
   12   20    2      1.03      0.00
  -13   21    2      0.21      0.00
  -11   21    2      0.30      0.00
   -9   21    2      0.67      0.00
   -7   21    2      0.88      0.00
   -5   21    2      0.69      0.00
   -3   21    2      0.36      0.00
   -1   21    2      0.03      0.00
    1   21    2     -0.35      0.00
    3   21    2     -0.46      0.00
    5   21    2     -0.01      0.00
    7   21    2      0.68      0.00
    9   21    2      1.00      0.00
   11   21    2      0.94      0.00
  -10   22    2      0.62      0.00
   -8   22    2      0.97      0.00
   -6   22    2      1.00      0.00
   -4   22    2      0.75      0.00
   -2   22    2      0.43      0.00
    0   22    2      0.08      0.00
    2   22    2     -0.16      0.00
    4   22    2      0.01      0.00
    6   22    2      0.53      0.00
    8   22    2      0.86      0.00
   10   22    2      0.79      0.00
   -9   23    2      0.87      0.00
   -7   23    2      1.06      0.00
   -5   23    2      0.95      0.00
   -3   23    2      0.71      0.00
   -1   23    2      0.45      0.00
    1   23    2      0.21      0.00
    3   23    2      0.18      0.00
    5   23    2      0.47      0.00
    7   23    2      0.72      0.00
   -6   24    2      0.91      0.00
   -4   24    2      0.77      0.00
   -2   24    2      0.62      0.00
    0   24    2      0.49      0.00
    2   24    2      0.40      0.00
    4   24    2      0.49      0.00
   -1   25    2      0.54      0.00
    1   25    2      0.51      0.00
  -23    1    3      0.26      0.00
  -21    1    3      0.32      0.00
  -19    1    3      0.28      0.00
  -17    1    3      0.12      0.00
  -15    1    3     -0.06      0.00
  -13    1    3     -0.15      0.00
  -11    1    3     -0.15      0.00
   -9    1    3     -0.14      0.00
   -7    1    3     -0.16      0.00
   -5    1    3     -0.08      0.00
   -3    1    3      0.33      0.00
   -1    1    3      1.01      0.00
    1    1    3      1.47      0.00
    3    1    3      1.25      0.00
    5    1    3      0.54      0.00
    7    1    3     -0.02      0.00
    9    1    3     -0.05      0.00
   11    1    3      0.26      0.00
   13    1    3      0.52      0.00
   15    1    3      0.54      0.00
   17    1    3      0.31      0.00
   19    1    3     -0.05      0.00
   21    1    3     -0.34      0.00
  -22    2    3      0.50      0.00
  -20    2    3      0.53      0.00
  -18    2    3      0.32      0.00
  -16    2    3     -0.01      0.00
  -14    2    3     -0.24      0.00
  -12    2    3     -0.27      0.00
  -10    2    3     -0.22      0.00
   -8    2    3     -0.24      0.00
   -6    2    3     -0.28      0.00
   -4    2    3      0.08      0.00
   -2    2    3      1.11      0.00
    0    2    3      2.29      0.00
    2    2    3      2.56      0.00
    4    2    3      1.60      0.00
    6    2    3      0.33      0.00
    8    2    3     -0.18      0.00
   10    2    3      0.18      0.00
   12    2    3      0.74      0.00
   14    2    3      0.97      0.00
   16    2    3      0.72      0.00
   18    2    3      0.13      0.00
   20    2    3     -0.49      0.00
  -23    3    3      0.49      0.00
  -21    3    3      0.61      0.00
  -19    3    3      0.47      0.00
  -17    3    3      0.09      0.00
  -15    3    3     -0.26      0.00
  -13    3    3     -0.34      0.00
  -11    3    3     -0.22      0.00
   -9    3    3     -0.18      0.00
   -7    3    3     -0.31      0.00
   -5    3    3     -0.28      0.00
   -3    3    3      0.53      0.00
   -1    3    3      2.07      0.00
    1    3    3      3.15      0.00
    3    3    3      2.66      0.00
    5    3    3      1.07      0.00
    7    3    3     -0.11      0.00
    9    3    3     -0.08      0.00
   11    3    3      0.61      0.00
   13    3    3      1.09      0.00
   15    3    3      0.99      0.00
   17    3    3      0.36      0.00
   19    3    3     -0.49      0.00
   21    3    3     -1.08      0.00
  -22    4    3      0.51      0.00
  -20    4    3      0.49      0.00
  -18    4    3      0.15      0.00
  -16    4    3     -0.27      0.00
  -14    4    3     -0.41      0.00
  -12    4    3     -0.23      0.00
  -10    4    3     -0.04      0.00
   -8    4    3     -0.14      0.00
   -6    4    3     -0.39      0.00
   -4    4    3     -0.12      0.00
   -2    4    3      1.15      0.00
    0    4    3      2.72      0.00
    2    4    3      3.10      0.00
    4    4    3      1.84      0.00
    6    4    3      0.25      0.00
    8    4    3     -0.26      0.00
   10    4    3      0.29      0.00
   12    4    3      0.93      0.00
   14    4    3      1.02      0.00
   16    4    3      0.51      0.00
   18    4    3     -0.40      0.00
   20    4    3     -1.21      0.00
  -23    5    3      0.29      0.00
  -21    5    3      0.37      0.00
  -19    5    3      0.16      0.00
  -17    5    3     -0.28      0.00
  -15    5    3     -0.52      0.00
  -13    5    3     -0.32      0.00
  -11    5    3      0.02      0.00
   -9    5    3      0.08      0.00
   -7    5    3     -0.22      0.00
   -5    5    3     -0.42      0.00
   -3    5    3      0.23      0.00
   -1    5    3      1.68      0.00
    1    5    3      2.72      0.00
    3    5    3      2.22      0.00
    5    5    3      0.72      0.00
    7    5    3     -0.22      0.00
    9    5    3     -0.01      0.00
   11    5    3      0.63      0.00
   13    5    3      0.87      0.00
   15    5    3      0.54      0.00
   17    5    3     -0.25      0.00
   19    5    3     -1.16      0.00
  -22    6    3      0.15      0.00
  -20    6    3      0.10      0.00
  -18    6    3     -0.25      0.00
  -16    6    3     -0.60      0.00
  -14    6    3     -0.51      0.00
  -12    6    3     -0.10      0.00
  -10    6    3      0.15      0.00
   -8    6    3     -0.03      0.00
   -6    6    3     -0.38      0.00
   -4    6    3     -0.27      0.00
   -2    6    3      0.68      0.00
    0    6    3      1.86      0.00
    2    6    3      2.05      0.00
    4    6    3      1.03      0.00
    6    6    3     -0.04      0.00
    8    6    3     -0.16      0.00
   10    6    3      0.34      0.00
   12    6    3      0.67      0.00
   14    6    3      0.52      0.00
   16    6    3     -0.05      0.00
   18    6    3     -0.89      0.00
   20    6    3     -1.55      0.00
  -21    7    3     -0.03      0.00
  -19    7    3     -0.20      0.00
  -17    7    3     -0.58      0.00
  -15    7    3     -0.69      0.00
  -13    7    3     -0.36      0.00
  -11    7    3      0.00      0.00
   -9    7    3     -0.02      0.00
   -7    7    3     -0.30      0.00
   -5    7    3     -0.40      0.00
   -3    7    3      0.11      0.00
   -1    7    3      1.06      0.00
    1    7    3      1.57      0.00
    3    7    3      1.07      0.00
    5    7    3      0.15      0.00
    7    7    3     -0.17      0.00
    9    7    3      0.17      0.00
   11    7    3      0.51      0.00
   13    7    3      0.49      0.00
   15    7    3      0.17      0.00
   17    7    3     -0.43      0.00
   19    7    3     -1.13      0.00
  -22    8    3     -0.23      0.00
  -20    8    3     -0.19      0.00
  -18    8    3     -0.46      0.00
  -16    8    3     -0.74      0.00
  -14    8    3     -0.63      0.00
  -12    8    3     -0.30      0.00
  -10    8    3     -0.21      0.00
   -8    8    3     -0.39      0.00
   -6    8    3     -0.47      0.00
   -4    8    3     -0.12      0.00
   -2    8    3      0.60      0.00
    0    8    3      1.13      0.00
    2    8    3      0.93      0.00
    4    8    3      0.25      0.00
    6    8    3     -0.12      0.00
    8    8    3      0.10      0.00
   10    8    3      0.42      0.00
   12    8    3      0.47      0.00
   14    8    3      0.35      0.00
   16    8    3      0.07      0.00
   18    8    3     -0.48      0.00
   20    8    3     -0.97      0.00
  -21    9    3     -0.29      0.00
  -19    9    3     -0.33      0.00
  -17    9    3     -0.64      0.00
  -15    9    3     -0.77      0.00
  -13    9    3     -0.58      0.00
  -11    9    3     -0.44      0.00
   -9    9    3     -0.58      0.00
   -7    9    3     -0.65      0.00
   -5    9    3     -0.30      0.00
   -3    9    3      0.38      0.00
   -1    9    3      0.89      0.00
    1    9    3      0.81      0.00
    3    9    3      0.27      0.00
    5    9    3     -0.10      0.00
    7    9    3      0.07      0.00
    9    9    3      0.39      0.00
   11    9    3      0.48      0.00
   13    9    3      0.45      0.00
   15    9    3      0.44      0.00
   17    9    3      0.18      0.00
   19    9    3     -0.33      0.00
  -20   10    3     -0.28      0.00
  -18   10    3     -0.45      0.00
  -16   10    3     -0.74      0.00
  -14   10    3     -0.74      0.00
  -12   10    3     -0.60      0.00
  -10   10    3     -0.67      0.00
   -8   10    3     -0.80      0.00
   -6   10    3     -0.52      0.00
   -4   10    3      0.18      0.00
   -2   10    3      0.78      0.00
    0   10    3      0.79      0.00
    2   10    3      0.30      0.00
    4   10    3     -0.11      0.00
    6   10    3      0.00      0.00
    8   10    3      0.35      0.00
   10   10    3      0.47      0.00
   12   10    3      0.45      0.00
   14   10    3      0.56      0.00
   16   10    3      0.61      0.00
   18   10    3      0.28      0.00
  -21   11    3     -0.33      0.00
  -19   11    3     -0.28      0.00
  -17   11    3     -0.55      0.00
  -15   11    3     -0.73      0.00
  -13   11    3     -0.63      0.00
  -11   11    3     -0.56      0.00
   -9   11    3     -0.69      0.00
   -7   11    3     -0.62      0.00
   -5   11    3     -0.05      0.00
   -3   11    3      0.64      0.00
   -1   11    3      0.82      0.00
    1   11    3      0.40      0.00
    3   11    3     -0.08      0.00
    5   11    3     -0.09      0.00
    7   11    3      0.25      0.00
    9   11    3      0.43      0.00
   11   11    3      0.37      0.00
   13   11    3      0.46      0.00
   15   11    3      0.70      0.00
   17   11    3      0.64      0.00
   19   11    3      0.22      0.00
  -20   12    3     -0.16      0.00
  -18   12    3     -0.29      0.00
  -16   12    3     -0.56      0.00
  -14   12    3     -0.56      0.00
  -12   12    3     -0.34      0.00
  -10   12    3     -0.31      0.00
   -8   12    3     -0.38      0.00
   -6   12    3     -0.13      0.00
   -4   12    3      0.45      0.00
   -2   12    3      0.79      0.00
    0   12    3      0.54      0.00
    2   12    3      0.05      0.00
    4   12    3     -0.11      0.00
    6   12    3      0.14      0.00
    8   12    3      0.33      0.00
   10   12    3      0.25      0.00
   12   12    3      0.23      0.00
   14   12    3      0.51      0.00
   16   12    3      0.68      0.00
   18   12    3      0.40      0.00
  -19   13    3     -0.03      0.00
  -17   13    3     -0.26      0.00
  -15   13    3     -0.38      0.00
  -13   13    3     -0.13      0.00
  -11   13    3      0.16      0.00
   -9   13    3      0.17      0.00
   -7   13    3      0.11      0.00
   -5   13    3      0.34      0.00
   -3   13    3      0.67      0.00
   -1   13    3      0.65      0.00
    1   13    3      0.30      0.00
    3   13    3      0.05      0.00
    5   13    3      0.13      0.00
    7   13    3      0.25      0.00
    9   13    3      0.11      0.00
   11   13    3     -0.04      0.00
   13   13    3      0.16      0.00
   15   13    3      0.48      0.00
   17   13    3      0.41      0.00
  -18   14    3      0.08      0.00
  -16   14    3     -0.09      0.00
  -14   14    3      0.06      0.00
  -12   14    3      0.50      0.00
  -10   14    3      0.75      0.00
   -8   14    3      0.61      0.00
   -6   14    3      0.45      0.00
   -4   14    3      0.53      0.00
   -2   14    3      0.64      0.00
    0   14    3      0.54      0.00
    2   14    3      0.38      0.00
    4   14    3      0.34      0.00
    6   14    3      0.31      0.00
    8   14    3      0.05      0.00
   10   14    3     -0.26      0.00
   12   14    3     -0.20      0.00
   14   14    3      0.18      0.00
   16   14    3      0.34      0.00
  -17   15    3      0.25      0.00
  -15   15    3      0.28      0.00
  -13   15    3      0.67      0.00
  -11   15    3      1.11      0.00
   -9   15    3      1.11      0.00
   -7   15    3      0.74      0.00
   -5   15    3      0.46      0.00
   -3   15    3      0.49      0.00
   -1   15    3      0.64      0.00
    1   15    3      0.73      0.00
    3   15    3      0.75      0.00
    5   15    3      0.62      0.00
    7   15    3      0.19      0.00
    9   15    3     -0.34      0.00
   11   15    3     -0.48      0.00
   13   15    3     -0.11      0.00
   15   15    3      0.27      0.00
  -18   16    3      0.50      0.00
  -16   16    3      0.53      0.00
  -14   16    3      0.77      0.00
  -12   16    3      1.20      0.00
  -10   16    3      1.39      0.00
   -8   16    3      1.05      0.00
   -6   16    3      0.50      0.00
   -4   16    3      0.28      0.00
   -2   16    3      0.51      0.00
    0   16    3      0.90      0.00
    2   16    3      1.17      0.00
    4   16    3      1.08      0.00
    6   16    3      0.56      0.00
    8   16    3     -0.17      0.00
   10   16    3     -0.57      0.00
   12   16    3     -0.32      0.00
   14   16    3      0.21      0.00
   16   16    3      0.38      0.00
  -17   17    3      0.70      0.00
  -15   17    3      0.87      0.00
  -13   17    3      1.18      0.00
  -11   17    3      1.42      0.00
   -9   17    3      1.23      0.00
   -7   17    3      0.63      0.00
   -5   17    3      0.16      0.00
   -3   17    3      0.25      0.00
   -1   17    3      0.80      0.00
    1   17    3      1.36      0.00
    3   17    3      1.49      0.00
    5   17    3      1.03      0.00
    7   17    3      0.20      0.00
    9   17    3     -0.43      0.00
   11   17    3     -0.39      0.00
   13   17    3      0.18      0.00
   15   17    3      0.59      0.00
  -16   18    3      0.94      0.00
  -14   18    3      1.15      0.00
  -12   18    3      1.33      0.00
  -10   18    3      1.26      0.00
   -8   18    3      0.78      0.00
   -6   18    3      0.22      0.00
   -4   18    3      0.09      0.00
   -2   18    3      0.56      0.00
    0   18    3      1.27      0.00
    2   18    3      1.65      0.00
    4   18    3      1.39      0.00
    6   18    3      0.61      0.00
    8   18    3     -0.13      0.00
   10   18    3     -0.29      0.00
   12   18    3      0.18      0.00
   14   18    3      0.74      0.00
  -15   19    3      1.12      0.00
  -13   19    3      1.24      0.00
  -11   19    3      1.21      0.00
   -9   19    3      0.91      0.00
   -7   19    3      0.45      0.00
   -5   19    3      0.20      0.00
   -3   19    3      0.46      0.00
   -1   19    3      1.08      0.00
    1   19    3      1.56      0.00
    3   19    3      1.48      0.00
    5   19    3      0.86      0.00
    7   19    3      0.16      0.00
    9   19    3     -0.11      0.00
   11   19    3      0.22      0.00
   13   19    3      0.79      0.00
  -14   20    3      1.15      0.00
  -12   20    3      1.15      0.00
  -10   20    3      0.99      0.00
   -8   20    3      0.73      0.00
   -6   20    3      0.54      0.00
   -4   20    3      0.64      0.00
   -2   20    3      1.04      0.00
    0   20    3      1.42      0.00
    2   20    3      1.37      0.00
    4   20    3      0.85      0.00
    6   20    3      0.24      0.00
    8   20    3      0.00      0.00
   10   20    3      0.26      0.00
   12   20    3      0.76      0.00
  -11   21    3      0.98      0.00
   -9   21    3      0.91      0.00
   -7   21    3      0.91      0.00
   -5   21    3      1.03      0.00
   -3   21    3      1.26      0.00
   -1   21    3      1.44      0.00
    1   21    3      1.28      0.00
    3   21    3      0.73      0.00
    5   21    3      0.12      0.00
    7   21    3     -0.09      0.00
    9   21    3      0.19      0.00
  -10   22    3      0.89      0.00
   -8   22    3      1.06      0.00
   -6   22    3      1.33      0.00
   -4   22    3      1.57      0.00
   -2   22    3      1.62      0.00
    0   22    3      1.35      0.00
    2   22    3      0.70      0.00
    4   22    3     -0.04      0.00
    6   22    3     -0.34      0.00
    8   22    3     -0.06      0.00
   -9   23    3      0.92      0.00
   -7   23    3      1.32      0.00
   -5   23    3      1.67      0.00
   -3   23    3      1.75      0.00
   -1   23    3      1.49      0.00
    1   23    3      0.84      0.00
    3   23    3     -0.01      0.00
    5   23    3     -0.54      0.00
    7   23    3     -0.40      0.00
   -6   24    3      1.40      0.00
   -4   24    3      1.60      0.00
   -2   24    3      1.45      0.00
    0   24    3      0.97      0.00
    2   24    3      0.21      0.00
    4   24    3     -0.49      0.00
  -22    0    4     -0.67      0.00
  -20    0    4      0.35      0.00
  -18    0    4      1.44      0.00
  -16    0    4      1.40      0.00
  -14    0    4      0.25      0.00
  -12    0    4     -0.52      0.00
  -10    0    4     -0.04      0.00
   -8    0    4      0.49      0.00
   -6    0    4     -0.05      0.00
   -4    0    4     -0.63      0.00
   -2    0    4     -0.02      0.00
    0    0    4      0.86      0.00
    2    0    4      0.69      0.00
    4    0    4      0.13      0.00
    6    0    4      0.28      0.00
    8    0    4      0.46      0.00
   10    0    4     -0.39      0.00
   12    0    4     -1.61      0.00
   14    0    4     -1.96      0.00
   16    0    4     -1.48      0.00
   18    0    4     -0.99      0.00
   20    0    4     -0.75      0.00
  -23    1    4     -0.81      0.00
  -21    1    4     -0.22      0.00
  -19    1    4      0.92      0.00
  -17    1    4      1.51      0.00
  -15    1    4      0.80      0.00
  -13    1    4     -0.35      0.00
  -11    1    4     -0.47      0.00
   -9    1    4      0.25      0.00
   -7    1    4      0.28      0.00
   -5    1    4     -0.45      0.00
   -3    1    4     -0.44      0.00
   -1    1    4      0.53      0.00
    1    1    4      0.94      0.00
    3    1    4      0.41      0.00
    5    1    4      0.18      0.00
    7    1    4      0.51      0.00
    9    1    4      0.21      0.00
   11    1    4     -0.96      0.00
   13    1    4     -1.79      0.00
   15    1    4     -1.60      0.00
   17    1    4     -1.04      0.00
   19    1    4     -0.72      0.00
  -22    2    4     -0.49      0.00
  -20    2    4      0.31      0.00
  -18    2    4      1.14      0.00
  -16    2    4      1.02      0.00
  -14    2    4     -0.04      0.00
  -12    2    4     -0.75      0.00
  -10    2    4     -0.31      0.00
   -8    2    4      0.23      0.00
   -6    2    4     -0.15      0.00
   -4    2    4     -0.57      0.00
   -2    2    4      0.06      0.00
    0    2    4      0.91      0.00
    2    2    4      0.81      0.00
    4    2    4      0.34      0.00
    6    2    4      0.49      0.00
    8    2    4      0.61      0.00
   10    2    4     -0.16      0.00
   12    2    4     -1.19      0.00
   14    2    4     -1.38      0.00
   16    2    4     -0.88      0.00
   18    2    4     -0.47      0.00
   20    2    4     -0.33      0.00
  -23    3    4     -0.35      0.00
  -21    3    4      0.02      0.00
  -19    3    4      0.63      0.00
  -17    3    4      0.86      0.00
  -15    3    4      0.21      0.00
  -13    3    4     -0.74      0.00
  -11    3    4     -0.84      0.00
   -9    3    4     -0.19      0.00
   -7    3    4     -0.03      0.00
   -5    3    4     -0.47      0.00
   -3    3    4     -0.34      0.00
   -1    3    4      0.54      0.00
    1    3    4      0.97      0.00
    3    3    4      0.65      0.00
    5    3    4      0.53      0.00
    7    3    4      0.77      0.00
    9    3    4      0.46      0.00
   11    3    4     -0.46      0.00
   13    3    4     -0.95      0.00
   15    3    4     -0.62      0.00
   17    3    4     -0.13      0.00
   19    3    4      0.05      0.00
  -22    4    4      0.22      0.00
  -20    4    4      0.42      0.00
  -18    4    4      0.55      0.00
  -16    4    4      0.25      0.00
  -14    4    4     -0.54      0.00
  -12    4    4     -1.02      0.00
  -10    4    4     -0.66      0.00
   -8    4    4     -0.16      0.00
   -6    4    4     -0.31      0.00
   -4    4    4     -0.54      0.00
   -2    4    4     -0.02      0.00
    0    4    4      0.70      0.00
    2    4    4      0.78      0.00
    4    4    4      0.61      0.00
    6    4    4      0.79      0.00
    8    4    4      0.79      0.00
   10    4    4      0.13      0.00
   12    4    4     -0.53      0.00
   14    4    4     -0.43      0.00
   16    4    4      0.09      0.00
   18    4    4      0.39      0.00
   20    4    4      0.41      0.00
  -21    5    4      0.70      0.00
  -19    5    4      0.45      0.00
  -17    5    4      0.13      0.00
  -15    5    4     -0.37      0.00
  -13    5    4     -0.89      0.00
  -11    5    4     -0.86      0.00
   -9    5    4     -0.36      0.00
   -7    5    4     -0.21      0.00
   -5    5    4     -0.52      0.00
   -3    5    4     -0.49      0.00
   -1    5    4      0.09      0.00
    1    5    4      0.51      0.00
    3    5    4      0.55      0.00
    5    5    4      0.69      0.00
    7    5    4      0.86      0.00
    9    5    4      0.49      0.00
   11    5    4     -0.19      0.00
   13    5    4     -0.38      0.00
   15    5    4      0.05      0.00
   17    5    4      0.48      0.00
   19    5    4      0.62      0.00
  -22    6    4      1.30      0.00
  -20    6    4      0.80      0.00
  -18    6    4      0.15      0.00
  -16    6    4     -0.32      0.00
  -14    6    4     -0.66      0.00
  -12    6    4     -0.75      0.00
  -10    6    4     -0.42      0.00
   -8    6    4     -0.12      0.00
   -6    6    4     -0.34      0.00
   -4    6    4     -0.68      0.00
   -2    6    4     -0.53      0.00
    0    6    4     -0.09      0.00
    2    6    4      0.19      0.00
    4    6    4      0.44      0.00
    6    6    4      0.75      0.00
    8    6    4      0.66      0.00
   10    6    4      0.06      0.00
   12    6    4     -0.38      0.00
   14    6    4     -0.19      0.00
   16    6    4      0.26      0.00
   18    6    4      0.55      0.00
  -21    7    4      1.42      0.00
  -19    7    4      0.49      0.00
  -17    7    4     -0.25      0.00
  -15    7    4     -0.54      0.00
  -13    7    4     -0.54      0.00
  -11    7    4     -0.29      0.00
   -9    7    4      0.01      0.00
   -7    7    4     -0.08      0.00
   -5    7    4     -0.56      0.00
   -3    7    4     -0.85      0.00
   -1    7    4     -0.68      0.00
    1    7    4     -0.34      0.00
    3    7    4      0.03      0.00
    5    7    4      0.47      0.00
    7    7    4      0.67      0.00
    9    7    4      0.28      0.00
   11    7    4     -0.29      0.00
   13    7    4     -0.42      0.00
   15    7    4     -0.11      0.00
   17    7    4      0.23      0.00
   19    7    4      0.45      0.00
  -22    8    4      1.87      0.00
  -20    8    4      1.06      0.00
  -18    8    4      0.04      0.00
  -16    8    4     -0.46      0.00
  -14    8    4     -0.43      0.00
  -12    8    4     -0.15      0.00
  -10    8    4      0.17      0.00
   -8    8    4      0.20      0.00
   -6    8    4     -0.22      0.00
   -4    8    4     -0.76      0.00
   -2    8    4     -0.94      0.00
    0    8    4     -0.76      0.00
    2    8    4     -0.39      0.00
    4    8    4      0.11      0.00
    6    8    4      0.53      0.00
    8    8    4      0.46      0.00
   10    8    4     -0.06      0.00
   12    8    4     -0.45      0.00
   14    8    4     -0.40      0.00
   16    8    4     -0.14      0.00
   18    8    4      0.11      0.00
  -21    9    4      1.48      0.00
  -19    9    4      0.50      0.00
  -17    9    4     -0.26      0.00
  -15    9    4     -0.42      0.00
  -13    9    4     -0.15      0.00
  -11    9    4      0.23      0.00
   -9    9    4      0.42      0.00
   -7    9    4      0.18      0.00
   -5    9    4     -0.37      0.00
   -3    9    4     -0.76      0.00
   -1    9    4     -0.78      0.00
    1    9    4     -0.56      0.00
    3    9    4     -0.17      0.00
    5    9    4      0.30      0.00
    7    9    4      0.50      0.00
    9    9    4      0.22      0.00
   11    9    4     -0.23      0.00
   13    9    4     -0.44      0.00
   15    9    4     -0.36      0.00
   17    9    4     -0.18      0.00
  -20   10    4      0.89      0.00
  -18   10    4      0.09      0.00
  -16   10    4     -0.34      0.00
  -14   10    4     -0.27      0.00
  -12   10    4      0.10      0.00
  -10   10    4      0.45      0.00
   -8   10    4      0.48      0.00
   -6   10    4      0.12      0.00
   -4   10    4     -0.27      0.00
   -2   10    4     -0.40      0.00
    0   10    4     -0.32      0.00
    2   10    4     -0.14      0.00
    4   10    4      0.16      0.00
    6   10    4      0.44      0.00
    8   10    4      0.41      0.00
   10   10    4      0.07      0.00
   12   10    4     -0.25      0.00
   14   10    4     -0.35      0.00
   16   10    4     -0.28      0.00
   18   10    4     -0.14      0.00
  -21   11    4      0.91      0.00
  -19   11    4      0.42      0.00
  -17   11    4     -0.10      0.00
  -15   11    4     -0.32      0.00
  -13   11    4     -0.16      0.00
  -11   11    4      0.25      0.00
   -9   11    4      0.57      0.00
   -7   11    4      0.52      0.00
   -5   11    4      0.27      0.00
   -3   11    4      0.17      0.00
   -1   11    4      0.24      0.00
    1   11    4      0.28      0.00
    3   11    4      0.29      0.00
    5   11    4      0.39      0.00
    7   11    4      0.44      0.00
    9   11    4      0.27      0.00
   11   11    4     -0.02      0.00
   13   11    4     -0.21      0.00
   15   11    4     -0.24      0.00
   17   11    4     -0.17      0.00
  -20   12    4      0.50      0.00
  -18   12    4      0.19      0.00
  -16   12    4     -0.18      0.00
  -14   12    4     -0.34      0.00
  -12   12    4     -0.09      0.00
  -10   12    4      0.40      0.00
   -8   12    4      0.71      0.00
   -6   12    4      0.70      0.00
   -4   12    4      0.67      0.00
   -2   12    4      0.80      0.00
    0   12    4      0.86      0.00
    2   12    4      0.69      0.00
    4   12    4      0.49      0.00
    6   12    4      0.41      0.00
    8   12    4      0.32      0.00
   10   12    4      0.10      0.00
   12   12    4     -0.10      0.00
   14   12    4     -0.18      0.00
   16   12    4     -0.13      0.00
  -19   13    4      0.32      0.00
  -17   13    4      0.09      0.00
  -15   13    4     -0.27      0.00
  -13   13    4     -0.35      0.00
  -11   13    4      0.08      0.00
   -9   13    4      0.67      0.00
   -7   13    4      0.95      0.00
   -5   13    4      0.98      0.00
   -3   13    4      1.12      0.00
   -1   13    4      1.28      0.00
    1   13    4      1.14      0.00
    3   13    4      0.74      0.00
    5   13    4      0.43      0.00
    7   13    4      0.27      0.00
    9   13    4      0.11      0.00
   11   13    4     -0.11      0.00
   13   13    4     -0.22      0.00
   15   13    4     -0.16      0.00
   17   13    4     -0.05      0.00
  -18   14    4      0.28      0.00
  -16   14    4      0.01      0.00
  -14   14    4     -0.34      0.00
  -12   14    4     -0.20      0.00
  -10   14    4      0.45      0.00
   -8   14    4      1.01      0.00
   -6   14    4      1.14      0.00
   -4   14    4      1.16      0.00
   -2   14    4      1.31      0.00
    0   14    4      1.31      0.00
    2   14    4      0.95      0.00
    4   14    4      0.50      0.00
    6   14    4      0.24      0.00
    8   14    4      0.08      0.00
   10   14    4     -0.15      0.00
   12   14    4     -0.33      0.00
   14   14    4     -0.30      0.00
   16   14    4     -0.13      0.00
  -17   15    4      0.29      0.00
  -15   15    4     -0.05      0.00
  -13   15    4     -0.24      0.00
  -11   15    4      0.20      0.00
   -9   15    4      0.91      0.00
   -7   15    4      1.21      0.00
   -5   15    4      1.10      0.00
   -3   15    4      1.04      0.00
   -1   15    4      1.08      0.00
    1   15    4      0.89      0.00
    3   15    4      0.50      0.00
    5   15    4      0.23      0.00
    7   15    4      0.10      0.00
    9   15    4     -0.11      0.00
   11   15    4     -0.38      0.00
   13   15    4     -0.46      0.00
   15   15    4     -0.29      0.00
  -16   16    4      0.34      0.00
  -14   16    4      0.02      0.00
  -12   16    4      0.10      0.00
  -10   16    4      0.72      0.00
   -8   16    4      1.20      0.00
   -6   16    4      1.09      0.00
   -4   16    4      0.74      0.00
   -2   16    4      0.60      0.00
    0   16    4      0.52      0.00
    2   16    4      0.31      0.00
    4   16    4      0.14      0.00
    6   16    4      0.13      0.00
    8   16    4      0.04      0.00
   10   16    4     -0.26      0.00
   12   16    4     -0.48      0.00
   14   16    4     -0.40      0.00
  -17   17    4      0.58      0.00
  -15   17    4      0.44      0.00
  -13   17    4      0.25      0.00
  -11   17    4      0.55      0.00
   -9   17    4      1.08      0.00
   -7   17    4      1.13      0.00
   -5   17    4      0.64      0.00
   -3   17    4      0.19      0.00
   -1   17    4      0.03      0.00
    1   17    4     -0.05      0.00
    3   17    4     -0.08      0.00
    5   17    4      0.08      0.00
    7   17    4      0.22      0.00
    9   17    4      0.05      0.00
   11   17    4     -0.27      0.00
   13   17    4     -0.34      0.00
  -16   18    4      0.76      0.00
  -14   18    4      0.57      0.00
  -12   18    4      0.51      0.00
  -10   18    4      0.87      0.00
   -8   18    4      1.10      0.00
   -6   18    4      0.73      0.00
   -4   18    4      0.08      0.00
   -2   18    4     -0.30      0.00
    0   18    4     -0.41      0.00
    2   18    4     -0.38      0.00
    4   18    4     -0.10      0.00
    6   18    4      0.29      0.00
    8   18    4      0.38      0.00
   10   18    4      0.11      0.00
   12   18    4     -0.10      0.00
  -15   19    4      0.86      0.00
  -13   19    4      0.62      0.00
  -11   19    4      0.65      0.00
   -9   19    4      0.91      0.00
   -7   19    4      0.80      0.00
   -5   19    4      0.23      0.00
   -3   19    4     -0.32      0.00
   -1   19    4     -0.56      0.00
    1   19    4     -0.58      0.00
    3   19    4     -0.34      0.00
    5   19    4      0.18      0.00
    7   19    4      0.58      0.00
    9   19    4      0.50      0.00
   11   19    4      0.24      0.00
  -12   20    4      0.51      0.00
  -10   20    4      0.59      0.00
   -8   20    4      0.69      0.00
   -6   20    4      0.40      0.00
   -4   20    4     -0.11      0.00
   -2   20    4     -0.45      0.00
    0   20    4     -0.58      0.00
    2   20    4     -0.49      0.00
    4   20    4     -0.04      0.00
    6   20    4      0.55      0.00
    8   20    4      0.76      0.00
   10   20    4      0.56      0.00
  -11   21    4      0.28      0.00
   -9   21    4      0.38      0.00
   -7   21    4      0.38      0.00
   -5   21    4      0.11      0.00
   -3   21    4     -0.20      0.00
   -1   21    4     -0.39      0.00
    1   21    4     -0.47      0.00
    3   21    4     -0.24      0.00
    5   21    4      0.34      0.00
    7   21    4      0.79      0.00
    9   21    4      0.76      0.00
  -10   22    4      0.03      0.00
   -8   22    4      0.16      0.00
   -6   22    4      0.15      0.00
   -4   22    4      0.01      0.00
   -2   22    4     -0.14      0.00
    0   22    4     -0.29      0.00
    2   22    4     -0.30      0.00
    4   22    4      0.07      0.00
    6   22    4      0.61      0.00
   -7   23    4      0.03      0.00
   -5   23    4      0.07      0.00
   -3   23    4      0.05      0.00
   -1   23    4     -0.06      0.00
    1   23    4     -0.20      0.00
    3   23    4     -0.10      0.00
    5   23    4      0.32      0.00
   -4   24    4      0.11      0.00
   -2   24    4      0.13      0.00
    0   24    4     -0.01      0.00
  -23    1    5     -0.62      0.00
  -21    1    5     -0.46      0.00
  -19    1    5     -0.17      0.00
  -17    1    5      0.04      0.00
  -15    1    5      0.09      0.00
  -13    1    5      0.05      0.00
  -11    1    5     -0.02      0.00
   -9    1    5     -0.14      0.00
   -7    1    5     -0.42      0.00
   -5    1    5     -0.81      0.00
   -3    1    5     -1.03      0.00
   -1    1    5     -0.86      0.00
    1    1    5     -0.50      0.00
    3    1    5     -0.28      0.00
    5    1    5     -0.26      0.00
    7    1    5     -0.20      0.00
    9    1    5      0.00      0.00
   11    1    5      0.20      0.00
   13    1    5      0.31      0.00
   15    1    5      0.32      0.00
   17    1    5      0.27      0.00
   19    1    5      0.13      0.00
  -22    2    5     -0.98      0.00
  -20    2    5     -0.55      0.00
  -18    2    5     -0.09      0.00
  -16    2    5      0.10      0.00
  -14    2    5      0.05      0.00
  -12    2    5     -0.02      0.00
  -10    2    5     -0.11      0.00
   -8    2    5     -0.42      0.00
   -6    2    5     -1.04      0.00
   -4    2    5     -1.65      0.00
   -2    2    5     -1.70      0.00
    0    2    5     -1.15      0.00
    2    2    5     -0.59      0.00
    4    2    5     -0.44      0.00
    6    2    5     -0.43      0.00
    8    2    5     -0.16      0.00
   10    2    5      0.28      0.00
   12    2    5      0.59      0.00
   14    2    5      0.69      0.00
   16    2    5      0.64      0.00
   18    2    5      0.42      0.00
  -23    3    5     -1.26      0.00
  -21    3    5     -0.92      0.00
  -19    3    5     -0.37      0.00
  -17    3    5     -0.05      0.00
  -15    3    5     -0.07      0.00
  -13    3    5     -0.17      0.00
  -11    3    5     -0.17      0.00
   -9    3    5     -0.26      0.00
   -7    3    5     -0.78      0.00
   -5    3    5     -1.60      0.00
   -3    3    5     -2.05      0.00
   -1    3    5     -1.67      0.00
    1    3    5     -0.89      0.00
    3    3    5     -0.49      0.00
    5    3    5     -0.51      0.00
    7    3    5     -0.34      0.00
    9    3    5      0.22      0.00
   11    3    5      0.80      0.00
   13    3    5      1.08      0.00
   15    3    5      1.09      0.00
   17    3    5      0.85      0.00
   19    3    5      0.37      0.00
  -22    4    5     -1.07      0.00
  -20    4    5     -0.61      0.00
  -18    4    5     -0.27      0.00
  -16    4    5     -0.31      0.00
  -14    4    5     -0.46      0.00
  -12    4    5     -0.41      0.00
  -10    4    5     -0.25      0.00
   -8    4    5     -0.41      0.00
   -6    4    5     -1.08      0.00
   -4    4    5     -1.80      0.00
   -2    4    5     -1.80      0.00
    0    4    5     -1.08      0.00
    2    4    5     -0.44      0.00
    4    4    5     -0.38      0.00
    6    4    5     -0.39      0.00
    8    4    5      0.10      0.00
   10    4    5      0.86      0.00
   12    4    5      1.38      0.00
   14    4    5      1.53      0.00
   16    4    5      1.36      0.00
   18    4    5      0.82      0.00
  -21    5    5     -0.64      0.00
  -19    5    5     -0.39      0.00
  -17    5    5     -0.51      0.00
  -15    5    5     -0.80      0.00
  -13    5    5     -0.80      0.00
  -11    5    5     -0.48      0.00
   -9    5    5     -0.25      0.00
   -7    5    5     -0.55      0.00
   -5    5    5     -1.21      0.00
   -3    5    5     -1.54      0.00
   -1    5    5     -1.09      0.00
    1    5    5     -0.36      0.00
    3    5    5     -0.12      0.00
    5    5    5     -0.24      0.00
    7    5    5      0.01      0.00
    9    5    5      0.74      0.00
   11    5    5      1.44      0.00
   13    5    5      1.78      0.00
   15    5    5      1.76      0.00
   17    5    5      1.33      0.00
   19    5    5      0.51      0.00
  -22    6    5     -0.46      0.00
  -20    6    5     -0.32      0.00
  -18    6    5     -0.54      0.00
  -16    6    5     -1.01      0.00
  -14    6    5     -1.19      0.00
  -12    6    5     -0.84      0.00
  -10    6    5     -0.35      0.00
   -8    6    5     -0.27      0.00
   -6    6    5     -0.71      0.00
   -4    6    5     -1.14      0.00
   -2    6    5     -0.99      0.00
    0    6    5     -0.34      0.00
    2    6    5      0.09      0.00
    4    6    5      0.02      0.00
    6    6    5      0.03      0.00
    8    6    5      0.54      0.00
   10    6    5      1.22      0.00
   12    6    5      1.68      0.00
   14    6    5      1.85      0.00
   16    6    5      1.65      0.00
   18    6    5      0.95      0.00
  -21    7    5     -0.08      0.00
  -19    7    5     -0.32      0.00
  -17    7    5     -0.95      0.00
  -15    7    5     -1.38      0.00
  -13    7    5     -1.16      0.00
  -11    7    5     -0.56      0.00
   -9    7    5     -0.24      0.00
   -7    7    5     -0.46      0.00
   -5    7    5     -0.89      0.00
   -3    7    5     -0.93      0.00
   -1    7    5     -0.43      0.00
    1    7    5      0.10      0.00
    3    7    5      0.21      0.00
    5    7    5      0.12      0.00
    7    7    5      0.35      0.00
    9    7    5      0.85      0.00
   11    7    5      1.26      0.00
   13    7    5      1.51      0.00
   15    7    5      1.59      0.00
   17    7    5      1.22      0.00
  -20    8    5      0.05      0.00
  -18    8    5     -0.58      0.00
  -16    8    5     -1.27      0.00
  -14    8    5     -1.32      0.00
  -12    8    5     -0.75      0.00
  -10    8    5     -0.27      0.00
   -8    8    5     -0.38      0.00
   -6    8    5     -0.82      0.00
   -4    8    5     -1.01      0.00
   -2    8    5     -0.67      0.00
    0    8    5     -0.11      0.00
    2    8    5      0.18      0.00
    4    8    5      0.16      0.00
    6    8    5      0.22      0.00
    8    8    5      0.48      0.00
   10    8    5      0.70      0.00
   12    8    5      0.86      0.00
   14    8    5      1.09      0.00
   16    8    5      1.13      0.00
   18    8    5      0.64      0.00
  -21    9    5      0.41      0.00
  -19    9    5     -0.03      0.00
  -17    9    5     -0.83      0.00
  -15    9    5     -1.23      0.00
  -13    9    5     -0.85      0.00
  -11    9    5     -0.28      0.00
   -9    9    5     -0.27      0.00
   -7    9    5     -0.77      0.00
   -5    9    5     -1.14      0.00
   -3    9    5     -0.98      0.00
   -1    9    5     -0.46      0.00
    1    9    5     -0.06      0.00
    3    9    5      0.06      0.00
    5    9    5      0.11      0.00
    7    9    5      0.21      0.00
    9    9    5      0.23      0.00
   11    9    5      0.17      0.00
   13    9    5      0.35      0.00
   15    9    5      0.69      0.00
   17    9    5      0.65      0.00
  -20   10    5      0.48      0.00
  -18   10    5     -0.16      0.00
  -16   10    5     -0.85      0.00
  -14   10    5     -0.86      0.00
  -12   10    5     -0.32      0.00
  -10   10    5     -0.11      0.00
   -8   10    5     -0.57      0.00
   -6   10    5     -1.14      0.00
   -4   10    5     -1.20      0.00
   -2   10    5     -0.78      0.00
    0   10    5     -0.34      0.00
    2   10    5     -0.13      0.00
    4   10    5     -0.03      0.00
    6   10    5      0.06      0.00
    8   10    5     -0.01      0.00
   10   10    5     -0.28      0.00
   12   10    5     -0.32      0.00
   14   10    5      0.09      0.00
   16   10    5      0.45      0.00
  -19   11    5      0.46      0.00
  -17   11    5     -0.26      0.00
  -15   11    5     -0.70      0.00
  -13   11    5     -0.44      0.00
  -11   11    5     -0.06      0.00
   -9   11    5     -0.27      0.00
   -7   11    5     -0.90      0.00
   -5   11    5     -1.20      0.00
   -3   11    5     -0.93      0.00
   -1   11    5     -0.50      0.00
    1   11    5     -0.27      0.00
    3   11    5     -0.15      0.00
    5   11    5      0.00      0.00
    7   11    5     -0.02      0.00
    9   11    5     -0.36      0.00
   11   11    5     -0.65      0.00
   13   11    5     -0.39      0.00
   15   11    5      0.17      0.00
   17   11    5      0.35      0.00
  -20   12    5      0.76      0.00
  -18   12    5      0.34      0.00
  -16   12    5     -0.35      0.00
  -14   12    5     -0.56      0.00
  -12   12    5     -0.24      0.00
  -10   12    5     -0.10      0.00
   -8   12    5     -0.52      0.00
   -6   12    5     -0.95      0.00
   -4   12    5     -0.88      0.00
   -2   12    5     -0.50      0.00
    0   12    5     -0.25      0.00
    2   12    5     -0.15      0.00
    4   12    5      0.01      0.00
    6   12    5      0.12      0.00
    8   12    5     -0.13      0.00
   10   12    5     -0.56      0.00
   12   12    5     -0.57      0.00
   14   12    5     -0.04      0.00
   16   12    5      0.40      0.00
  -19   13    5      0.65      0.00
  -17   13    5      0.08      0.00
  -15   13    5     -0.53      0.00
  -13   13    5     -0.55      0.00
  -11   13    5     -0.24      0.00
   -9   13    5     -0.25      0.00
   -7   13    5     -0.58      0.00
   -5   13    5     -0.68      0.00
   -3   13    5     -0.40      0.00
   -1   13    5     -0.13      0.00
    1   13    5     -0.03      0.00
    3   13    5      0.11      0.00
    5   13    5      0.32      0.00
    7   13    5      0.25      0.00
    9   13    5     -0.18      0.00
   11   13    5     -0.43      0.00
   13   13    5     -0.10      0.00
   15   13    5      0.43      0.00
  -18   14    5      0.34      0.00
  -16   14    5     -0.34      0.00
  -14   14    5     -0.79      0.00
  -12   14    5     -0.60      0.00
  -10   14    5     -0.28      0.00
   -8   14    5     -0.29      0.00
   -6   14    5     -0.42      0.00
   -4   14    5     -0.30      0.00
   -2   14    5     -0.03      0.00
    0   14    5      0.12      0.00
    2   14    5      0.26      0.00
    4   14    5      0.51      0.00
    6   14    5      0.61      0.00
    8   14    5      0.30      0.00
   10   14    5     -0.11      0.00
   12   14    5     -0.06      0.00
   14   14    5      0.41      0.00
  -17   15    5     -0.13      0.00
  -15   15    5     -0.79      0.00
  -13   15    5     -0.95      0.00
  -11   15    5     -0.56      0.00
   -9   15    5     -0.23      0.00
   -7   15    5     -0.23      0.00
   -5   15    5     -0.24      0.00
   -3   15    5     -0.07      0.00
   -1   15    5      0.15      0.00
    1   15    5      0.33      0.00
    3   15    5      0.61      0.00
    5   15    5      0.84      0.00
    7   15    5      0.67      0.00
    9   15    5      0.19      0.00
   11   15    5     -0.03      0.00
   13   15    5      0.26      0.00
  -16   16    5     -0.62      0.00
  -14   16    5     -1.06      0.00
  -12   16    5     -0.88      0.00
  -10   16    5     -0.39      0.00
   -8   16    5     -0.16      0.00
   -6   16    5     -0.23      0.00
   -4   16    5     -0.22      0.00
   -2   16    5     -0.02      0.00
    0   16    5      0.24      0.00
    2   16    5      0.56      0.00
    4   16    5      0.86      0.00
    6   16    5      0.83      0.00
    8   16    5      0.37      0.00
   10   16    5     -0.08      0.00
   12   16    5     -0.04      0.00
  -15   17    5     -0.91      0.00
  -13   17    5     -1.02      0.00
  -11   17    5     -0.61      0.00
   -9   17    5     -0.23      0.00
   -7   17    5     -0.24      0.00
   -5   17    5     -0.39      0.00
   -3   17    5     -0.31      0.00
   -1   17    5     -0.02      0.00
    1   17    5      0.35      0.00
    3   17    5      0.68      0.00
    5   17    5      0.75      0.00
    7   17    5      0.36      0.00
    9   17    5     -0.21      0.00
   11   17    5     -0.43      0.00
   13   17    5     -0.17      0.00
  -14   18    5     -0.89      0.00
  -12   18    5     -0.72      0.00
  -10   18    5     -0.36      0.00
   -8   18    5     -0.29      0.00
   -6   18    5     -0.51      0.00
   -4   18    5     -0.60      0.00
   -2   18    5     -0.36      0.00
    0   18    5      0.04      0.00
    2   18    5      0.38      0.00
    4   18    5      0.48      0.00
    6   18    5      0.19      0.00
    8   18    5     -0.39      0.00
   10   18    5     -0.79      0.00
   12   18    5     -0.68      0.00
  -13   19    5     -0.61      0.00
  -11   19    5     -0.40      0.00
   -9   19    5     -0.33      0.00
   -7   19    5     -0.56      0.00
   -5   19    5     -0.79      0.00
   -3   19    5     -0.68      0.00
   -1   19    5     -0.28      0.00
    1   19    5      0.07      0.00
    3   19    5      0.16      0.00
    5   19    5     -0.09      0.00
    7   19    5     -0.59      0.00
    9   19    5     -1.02      0.00
  -12   20    5     -0.29      0.00
  -10   20    5     -0.29      0.00
   -8   20    5     -0.54      0.00
   -6   20    5     -0.87      0.00
   -4   20    5     -0.90      0.00
   -2   20    5     -0.56      0.00
    0   20    5     -0.19      0.00
    2   20    5     -0.11      0.00
    4   20    5     -0.36      0.00
    6   20    5     -0.78      0.00
    8   20    5     -1.13      0.00
  -11   21    5     -0.12      0.00
   -9   21    5     -0.41      0.00
   -7   21    5     -0.83      0.00
   -5   21    5     -1.01      0.00
   -3   21    5     -0.78      0.00
   -1   21    5     -0.40      0.00
    1   21    5     -0.27      0.00
    3   21    5     -0.53      0.00
    5   21    5     -0.93      0.00
    7   21    5     -1.17      0.00
   -8   22    5     -0.63      0.00
   -6   22    5     -0.97      0.00
   -4   22    5     -0.91      0.00
   -2   22    5     -0.57      0.00
    0   22    5     -0.37      0.00
    2   22    5     -0.57      0.00
    4   22    5     -0.98      0.00
    6   22    5     -1.19      0.00
   -5   23    5     -0.90      0.00
   -3   23    5     -0.71      0.00
   -1   23    5     -0.47      0.00
    1   23    5     -0.54      0.00
    3   23    5     -0.90      0.00
  -22    0    6     -2.04      0.00
  -20    0    6     -2.52      0.00
  -18    0    6     -1.59      0.00
  -16    0    6     -0.27      0.00
  -14    0    6      0.20      0.00
  -12    0    6     -0.04      0.00
  -10    0    6     -0.07      0.00
   -8    0    6      0.09      0.00
   -6    0    6     -0.17      0.00
   -4    0    6     -0.62      0.00
   -2    0    6     -0.73      0.00
    0    0    6     -0.81      0.00
    2    0    6     -1.21      0.00
    4    0    6     -1.24      0.00
    6    0    6     -0.43      0.00
    8    0    6      0.12      0.00
   10    0    6     -0.69      0.00
   12    0    6     -2.17      0.00
   14    0    6     -2.76      0.00
   16    0    6     -2.04      0.00
   18    0    6     -0.91      0.00
  -21    1    6     -2.31      0.00
  -19    1    6     -2.01      0.00
  -17    1    6     -0.70      0.00
  -15    1    6      0.25      0.00
  -13    1    6      0.21      0.00
  -11    1    6     -0.07      0.00
   -9    1    6      0.00      0.00
   -7    1    6     -0.05      0.00
   -5    1    6     -0.51      0.00
   -3    1    6     -0.80      0.00
   -1    1    6     -0.78      0.00
    1    1    6     -1.01      0.00
    3    1    6     -1.31      0.00
    5    1    6     -0.87      0.00
    7    1    6      0.00      0.00
    9    1    6     -0.07      0.00
   11    1    6     -1.35      0.00
   13    1    6     -2.48      0.00
   15    1    6     -2.37      0.00
   17    1    6     -1.36      0.00
  -22    2    6     -1.59      0.00
  -20    2    6     -1.84      0.00
  -18    2    6     -0.88      0.00
  -16    2    6      0.35      0.00
  -14    2    6      0.69      0.00
  -12    2    6      0.27      0.00
  -10    2    6     -0.02      0.00
   -8    2    6     -0.09      0.00
   -6    2    6     -0.45      0.00
   -4    2    6     -0.91      0.00
   -2    2    6     -0.97      0.00
    0    2    6     -0.94      0.00
    2    2    6     -1.18      0.00
    4    2    6     -1.10      0.00
    6    2    6     -0.32      0.00
    8    2    6      0.22      0.00
   10    2    6     -0.43      0.00
   12    2    6     -1.66      0.00
   14    2    6     -2.15      0.00
   16    2    6     -1.57      0.00
   18    2    6     -0.67      0.00
  -21    3    6     -1.27      0.00
  -19    3    6     -0.76      0.00
  -17    3    6      0.44      0.00
  -15    3    6      1.19      0.00
  -13    3    6      0.92      0.00
  -11    3    6      0.30      0.00
   -9    3    6     -0.05      0.00
   -7    3    6     -0.39      0.00
   -5    3    6     -0.92      0.00
   -3    3    6     -1.19      0.00
   -1    3    6     -1.08      0.00
    1    3    6     -1.07      0.00
    3    3    6     -1.10      0.00
    5    3    6     -0.59      0.00
    7    3    6      0.20      0.00
    9    3    6      0.26      0.00
   11    3    6     -0.61      0.00
   13    3    6     -1.40      0.00
   15    3    6     -1.37      0.00
   17    3    6     -0.78      0.00
  -22    4    6     -0.66      0.00
  -20    4    6     -0.45      0.00
  -18    4    6      0.46      0.00
  -16    4    6      1.43      0.00
  -14    4    6      1.56      0.00
  -12    4    6      0.90      0.00
  -10    4    6      0.24      0.00
   -8    4    6     -0.21      0.00
   -6    4    6     -0.75      0.00
   -4    4    6     -1.23      0.00
   -2    4    6     -1.26      0.00
    0    4    6     -1.08      0.00
    2    4    6     -0.99      0.00
    4    4    6     -0.69      0.00
    6    4    6      0.05      0.00
    8    4    6      0.59      0.00
   10    4    6      0.32      0.00
   12    4    6     -0.37      0.00
   14    4    6     -0.73      0.00
   16    4    6     -0.61      0.00
   18    4    6     -0.31      0.00
  -21    5    6     -0.12      0.00
  -19    5    6      0.46      0.00
  -17    5    6      1.32      0.00
  -15    5    6      1.80      0.00
  -13    5    6      1.47      0.00
  -11    5    6      0.74      0.00
   -9    5    6      0.14      0.00
   -7    5    6     -0.39      0.00
   -5    5    6     -0.96      0.00
   -3    5    6     -1.23      0.00
   -1    5    6     -1.09      0.00
    1    5    6     -0.87      0.00
    3    5    6     -0.63      0.00
    5    5    6     -0.09      0.00
    7    5    6      0.60      0.00
    9    5    6      0.87      0.00
   11    5    6      0.58      0.00
   13    5    6      0.15      0.00
   15    5    6     -0.12      0.00
   17    5    6     -0.22      0.00
  -22    6    6      0.04      0.00
  -20    6    6      0.44      0.00
  -18    6    6      0.99      0.00
  -16    6    6      1.53      0.00
  -14    6    6      1.59      0.00
  -12    6    6      1.13      0.00
  -10    6    6      0.56      0.00
   -8    6    6      0.07      0.00
   -6    6    6     -0.45      0.00
   -4    6    6     -0.88      0.00
   -2    6    6     -0.93      0.00
    0    6    6     -0.73      0.00
    2    6    6     -0.50      0.00
    4    6    6     -0.15      0.00
    6    6    6      0.42      0.00
    8    6    6      0.94      0.00
   10    6    6      1.09      0.00
   12    6    6      0.91      0.00
   14    6    6      0.53      0.00
   16    6    6      0.09      0.00
  -21    7    6      0.42      0.00
  -19    7    6      0.68      0.00
  -17    7    6      0.96      0.00
  -15    7    6      1.17      0.00
  -13    7    6      1.10      0.00
  -11    7    6      0.80      0.00
   -9    7    6      0.47      0.00
   -7    7    6      0.08      0.00
   -5    7    6     -0.34      0.00
   -3    7    6     -0.55      0.00
   -1    7    6     -0.46      0.00
    1    7    6     -0.28      0.00
    3    7    6     -0.11      0.00
    5    7    6      0.20      0.00
    7    7    6      0.64      0.00
    9    7    6      1.03      0.00
   11    7    6      1.19      0.00
   13    7    6      1.02      0.00
   15    7    6      0.50      0.00
   17    7    6     -0.09      0.00
  -20    8    6      0.53      0.00
  -18    8    6      0.48      0.00
  -16    8    6      0.50      0.00
  -14    8    6      0.60      0.00
  -12    8    6      0.65      0.00
  -10    8    6      0.61      0.00
   -8    8    6      0.44      0.00
   -6    8    6      0.13      0.00
   -4    8    6     -0.11      0.00
   -2    8    6     -0.10      0.00
    0    8    6      0.02      0.00
    2    8    6      0.06      0.00
    4    8    6      0.07      0.00
    6    8    6      0.20      0.00
    8    8    6      0.51      0.00
   10    8    6      0.88      0.00
   12    8    6      1.04      0.00
   14    8    6      0.74      0.00
   16    8    6      0.12      0.00
  -21    9    6      0.48      0.00
  -19    9    6      0.31      0.00
  -17    9    6      0.01      0.00
  -15    9    6     -0.04      0.00
  -13    9    6      0.17      0.00
  -11    9    6      0.43      0.00
   -9    9    6      0.52      0.00
   -7    9    6      0.38      0.00
   -5    9    6      0.18      0.00
   -3    9    6      0.16      0.00
   -1    9    6      0.30      0.00
    1    9    6      0.31      0.00
    3    9    6      0.11      0.00
    5    9    6     -0.11      0.00
    7    9    6     -0.12      0.00
    9    9    6      0.16      0.00
   11    9    6      0.53      0.00
   13    9    6      0.60      0.00
   15    9    6      0.21      0.00
  -20   10    6      0.37      0.00
  -18   10    6     -0.06      0.00
  -16   10    6     -0.41      0.00
  -14   10    6     -0.36      0.00
  -12   10    6      0.01      0.00
  -10   10    6      0.35      0.00
   -8   10    6      0.39      0.00
   -6   10    6      0.23      0.00
   -4   10    6      0.18      0.00
   -2   10    6      0.36      0.00
    0   10    6      0.47      0.00
    2   10    6      0.27      0.00
    4   10    6     -0.18      0.00
    6   10    6     -0.54      0.00
    8   10    6     -0.56      0.00
   10   10    6     -0.24      0.00
   12   10    6      0.07      0.00
   14   10    6      0.04      0.00
   16   10    6     -0.22      0.00
  -19   11    6      0.18      0.00
  -17   11    6     -0.31      0.00
  -15   11    6     -0.57      0.00
  -13   11    6     -0.38      0.00
  -11   11    6      0.05      0.00
   -9   11    6      0.28      0.00
   -7   11    6      0.16      0.00
   -5   11    6      0.00      0.00
   -3   11    6      0.13      0.00
   -1   11    6      0.36      0.00
    1   11    6      0.32      0.00
    3   11    6     -0.09      0.00
    5   11    6     -0.62      0.00
    7   11    6     -0.92      0.00
    9   11    6     -0.85      0.00
   11   11    6     -0.55      0.00
   13   11    6     -0.35      0.00
   15   11    6     -0.34      0.00
  -18   12    6      0.10      0.00
  -16   12    6     -0.32      0.00
  -14   12    6     -0.47      0.00
  -12   12    6     -0.21      0.00
  -10   12    6      0.12      0.00
   -8   12    6      0.13      0.00
   -6   12    6     -0.14      0.00
   -4   12    6     -0.24      0.00
   -2   12    6     -0.04      0.00
    0   12    6      0.10      0.00
    2   12    6     -0.10      0.00
    4   12    6     -0.53      0.00
    6   12    6     -0.89      0.00
    8   12    6     -1.01      0.00
   10   12    6     -0.89      0.00
   12   12    6     -0.70      0.00
   14   12    6     -0.55      0.00
  -19   13    6      0.48      0.00
  -17   13    6      0.20      0.00
  -15   13    6     -0.17      0.00
  -13   13    6     -0.26      0.00
  -11   13    6     -0.01      0.00
   -9   13    6      0.15      0.00
   -7   13    6     -0.08      0.00
   -5   13    6     -0.43      0.00
   -3   13    6     -0.49      0.00
   -1   13    6     -0.36      0.00
    1   13    6     -0.36      0.00
    3   13    6     -0.55      0.00
    5   13    6     -0.72      0.00
    7   13    6     -0.77      0.00
    9   13    6     -0.76      0.00
   11   13    6     -0.73      0.00
   13   13    6     -0.66      0.00
  -18   14    6      0.63      0.00
  -16   14    6      0.34      0.00
  -14   14    6     -0.04      0.00
  -12   14    6     -0.08      0.00
  -10   14    6      0.15      0.00
   -8   14    6      0.15      0.00
   -6   14    6     -0.26      0.00
   -4   14    6     -0.66      0.00
   -2   14    6     -0.79      0.00
    0   14    6     -0.81      0.00
    2   14    6     -0.82      0.00
    4   14    6     -0.71      0.00
    6   14    6     -0.48      0.00
    8   14    6     -0.33      0.00
   10   14    6     -0.39      0.00
   12   14    6     -0.52      0.00
   14   14    6     -0.46      0.00
  -17   15    6      0.76      0.00
  -15   15    6      0.36      0.00
  -13   15    6     -0.01      0.00
  -11   15    6      0.06      0.00
   -9   15    6      0.29      0.00
   -7   15    6      0.14      0.00
   -5   15    6     -0.40      0.00
   -3   15    6     -0.89      0.00
   -1   15    6     -1.14      0.00
    1   15    6     -1.21      0.00
    3   15    6     -0.98      0.00
    5   15    6     -0.44      0.00
    7   15    6      0.05      0.00
    9   15    6      0.13      0.00
   11   15    6     -0.13      0.00
   13   15    6     -0.31      0.00
  -16   16    6      0.70      0.00
  -14   16    6      0.19      0.00
  -12   16    6     -0.06      0.00
  -10   16    6      0.20      0.00
   -8   16    6      0.42      0.00
   -6   16    6      0.11      0.00
   -4   16    6     -0.54      0.00
   -2   16    6     -1.11      0.00
    0   16    6     -1.43      0.00
    2   16    6     -1.34      0.00
    4   16    6     -0.72      0.00
    6   16    6      0.11      0.00
    8   16    6      0.51      0.00
   10   16    6      0.31      0.00
   12   16    6     -0.05      0.00
  -15   17    6      0.43      0.00
  -13   17    6     -0.07      0.00
  -11   17    6     -0.06      0.00
   -9   17    6      0.37      0.00
   -7   17    6      0.50      0.00
   -5   17    6      0.04      0.00
   -3   17    6     -0.67      0.00
   -1   17    6     -1.27      0.00
    1   17    6     -1.49      0.00
    3   17    6     -1.08      0.00
    5   17    6     -0.17      0.00
    7   17    6      0.56      0.00
    9   17    6      0.59      0.00
   11   17    6      0.19      0.00
  -14   18    6      0.07      0.00
  -12   18    6     -0.26      0.00
  -10   18    6      0.04      0.00
   -8   18    6      0.51      0.00
   -6   18    6      0.48      0.00
   -4   18    6     -0.07      0.00
   -2   18    6     -0.75      0.00
    0   18    6     -1.23      0.00
    2   18    6     -1.21      0.00
    4   18    6     -0.54      0.00
    6   18    6      0.31      0.00
    8   18    6      0.62      0.00
   10   18    6      0.31      0.00
  -13   19    6     -0.22      0.00
  -11   19    6     -0.28      0.00
   -9   19    6      0.20      0.00
   -7   19    6      0.56      0.00
   -5   19    6      0.39      0.00
   -3   19    6     -0.13      0.00
   -1   19    6     -0.67      0.00
    1   19    6     -0.97      0.00
    3   19    6     -0.71      0.00
    5   19    6     -0.02      0.00
    7   19    6      0.44      0.00
    9   19    6      0.29      0.00
  -12   20    6     -0.34      0.00
  -10   20    6     -0.15      0.00
   -8   20    6      0.32      0.00
   -6   20    6      0.51      0.00
   -4   20    6      0.30      0.00
   -2   20    6     -0.07      0.00
    0   20    6     -0.44      0.00
    2   20    6     -0.56      0.00
    4   20    6     -0.22      0.00
    6   20    6      0.21      0.00
   -9   21    6      0.03      0.00
   -7   21    6      0.36      0.00
   -5   21    6      0.44      0.00
   -3   21    6      0.32      0.00
   -1   21    6      0.10      0.00
    1   21    6     -0.16      0.00
    3   21    6     -0.19      0.00
    5   21    6      0.05      0.00
   -6   22    6      0.33      0.00
   -4   22    6      0.41      0.00
   -2   22    6      0.41      0.00
    0   22    6      0.25      0.00
    2   22    6      0.03      0.00
  -21    1    7     -0.41      0.00
  -19    1    7     -0.26      0.00
  -17    1    7      0.09      0.00
  -15    1    7      0.38      0.00
  -13    1    7      0.48      0.00
  -11    1    7      0.41      0.00
   -9    1    7      0.29      0.00
   -7    1    7      0.20      0.00
   -5    1    7      0.14      0.00
   -3    1    7      0.13      0.00
   -1    1    7      0.18      0.00
    1    1    7      0.12      0.00
    3    1    7     -0.17      0.00
    5    1    7     -0.57      0.00
    7    1    7     -0.82      0.00
    9    1    7     -0.83      0.00
   11    1    7     -0.72      0.00
   13    1    7     -0.56      0.00
   15    1    7     -0.32      0.00
   17    1    7     -0.05      0.00
  -22    2    7     -0.66      0.00
  -20    2    7     -0.66      0.00
  -18    2    7     -0.15      0.00
  -16    2    7      0.46      0.00
  -14    2    7      0.78      0.00
  -12    2    7      0.75      0.00
  -10    2    7      0.55      0.00
   -8    2    7      0.37      0.00
   -6    2    7      0.25      0.00
   -4    2    7      0.22      0.00
   -2    2    7      0.31      0.00
    0    2    7      0.36      0.00
    2    2    7      0.06      0.00
    4    2    7     -0.62      0.00
    6    2    7     -1.26      0.00
    8    2    7     -1.48      0.00
   10    2    7     -1.36      0.00
   12    2    7     -1.10      0.00
   14    2    7     -0.72      0.00
   16    2    7     -0.21      0.00
  -21    3    7     -0.85      0.00
  -19    3    7     -0.45      0.00
  -17    3    7      0.29      0.00
  -15    3    7      0.84      0.00
  -13    3    7      0.94      0.00
  -11    3    7      0.72      0.00
   -9    3    7      0.47      0.00
   -7    3    7      0.30      0.00
   -5    3    7      0.24      0.00
   -3    3    7      0.34      0.00
   -1    3    7      0.54      0.00
    1    3    7      0.47      0.00
    3    3    7     -0.19      0.00
    5    3    7     -1.12      0.00
    7    3    7     -1.71      0.00
    9    3    7     -1.73      0.00
   11    3    7     -1.47      0.00
   13    3    7     -1.05      0.00
   15    3    7     -0.42      0.00
   17    3    7      0.22      0.00
  -20    4    7     -0.54      0.00
  -18    4    7      0.10      0.00
  -16    4    7      0.71      0.00
  -14    4    7      0.91      0.00
  -12    4    7      0.74      0.00
  -10    4    7      0.46      0.00
   -8    4    7      0.26      0.00
   -6    4    7      0.20      0.00
   -4    4    7      0.28      0.00
   -2    4    7      0.55      0.00
    0    4    7      0.75      0.00
    2    4    7      0.40      0.00
    4    4    7     -0.51      0.00
    6    4    7     -1.38      0.00
    8    4    7     -1.70      0.00
   10    4    7     -1.56      0.00
   12    4    7     -1.20      0.00
   14    4    7     -0.59      0.00
   16    4    7      0.18      0.00
  -21    5    7     -0.28      0.00
  -19    5    7      0.15      0.00
  -17    5    7      0.61      0.00
  -15    5    7      0.76      0.00
  -13    5    7      0.60      0.00
  -11    5    7      0.34      0.00
   -9    5    7      0.15      0.00
   -7    5    7      0.09      0.00
   -5    5    7      0.16      0.00
   -3    5    7      0.40      0.00
   -1    5    7      0.74      0.00
    1    5    7      0.78      0.00
    3    5    7      0.20      0.00
    5    5    7     -0.67      0.00
    7    5    7     -1.23      0.00
    9    5    7     -1.31      0.00
   11    5    7     -1.12      0.00
   13    5    7     -0.66      0.00
   15    5    7      0.11      0.00
  -20    6    7      0.50      0.00
  -18    6    7      0.76      0.00
  -16    6    7      0.67      0.00
  -14    6    7      0.36      0.00
  -12    6    7      0.10      0.00
  -10    6    7     -0.01      0.00
   -8    6    7     -0.02      0.00
   -6    6    7      0.03      0.00
   -4    6    7      0.20      0.00
   -2    6    7      0.51      0.00
    0    6    7      0.77      0.00
    2    6    7      0.63      0.00
    4    6    7      0.06      0.00
    6    6    7     -0.50      0.00
    8    6    7     -0.77      0.00
   10    6    7     -0.81      0.00
   12    6    7     -0.62      0.00
   14    6    7     -0.02      0.00
   16    6    7      0.72      0.00
  -21    7    7      0.96      0.00
  -19    7    7      1.18      0.00
  -17    7    7      0.85      0.00
  -15    7    7      0.22      0.00
  -13    7    7     -0.19      0.00
  -11    7    7     -0.23      0.00
   -9    7    7     -0.13      0.00
   -7    7    7     -0.04      0.00
   -5    7    7      0.04      0.00
   -3    7    7      0.22      0.00
   -1    7    7      0.48      0.00
    1    7    7      0.61      0.00
    3    7    7      0.47      0.00
    5    7    7      0.18      0.00
    7    7    7     -0.07      0.00
    9    7    7     -0.30      0.00
   11    7    7     -0.44      0.00
   13    7    7     -0.17      0.00
   15    7    7      0.51      0.00
  -20    8    7      1.64      0.00
  -18    8    7      1.31      0.00
  -16    8    7      0.36      0.00
  -14    8    7     -0.40      0.00
  -12    8    7     -0.51      0.00
  -10    8    7     -0.24      0.00
   -8    8    7     -0.05      0.00
   -6    8    7     -0.02      0.00
   -4    8    7      0.00      0.00
   -2    8    7      0.13      0.00
    0    8    7      0.30      0.00
    2    8    7      0.44      0.00
    4    8    7      0.53      0.00
    6    8    7      0.54      0.00
    8    8    7      0.32      0.00
   10    8    7     -0.10      0.00
   12    8    7     -0.26      0.00
   14    8    7      0.17      0.00
  -19    9    7      1.80      0.00
  -17    9    7      0.83      0.00
  -15    9    7     -0.33      0.00
  -13    9    7     -0.73      0.00
  -11    9    7     -0.40      0.00
   -9    9    7     -0.03      0.00
   -7    9    7      0.02      0.00
   -5    9    7     -0.09      0.00
   -3    9    7     -0.11      0.00
   -1    9    7     -0.03      0.00
    1    9    7      0.16      0.00
    3    9    7      0.48      0.00
    5    9    7      0.82      0.00
    7    9    7      0.84      0.00
    9    9    7      0.35      0.00
   11    9    7     -0.21      0.00
   13    9    7     -0.18      0.00
   15    9    7      0.39      0.00
  -20   10    7      1.93      0.00
  -18   10    7      1.36      0.00
  -16   10    7      0.08      0.00
  -14   10    7     -0.75      0.00
  -12   10    7     -0.59      0.00
  -10   10    7     -0.06      0.00
   -8   10    7      0.11      0.00
   -6   10    7     -0.07      0.00
   -4   10    7     -0.22      0.00
   -2   10    7     -0.23      0.00
    0   10    7     -0.12      0.00
    2   10    7      0.21      0.00
    4   10    7      0.74      0.00
    6   10    7      1.07      0.00
    8   10    7      0.74      0.00
   10   10    7     -0.03      0.00
   12   10    7     -0.44      0.00
   14   10    7     -0.09      0.00
  -19   11    7      1.59      0.00
  -17   11    7      0.64      0.00
  -15   11    7     -0.46      0.00
  -13   11    7     -0.69      0.00
  -11   11    7     -0.17      0.00
   -9   11    7      0.18      0.00
   -7   11    7      0.02      0.00
   -5   11    7     -0.25      0.00
   -3   11    7     -0.30      0.00
   -1   11    7     -0.22      0.00
    1   11    7      0.00      0.00
    3   11    7      0.47      0.00
    5   11    7      0.96      0.00
    7   11    7      0.91      0.00
    9   11    7      0.17      0.00
   11   11    7     -0.55      0.00
   13   11    7     -0.52      0.00
  -18   12    7      1.00      0.00
  -16   12    7      0.03      0.00
  -14   12    7     -0.57      0.00
  -12   12    7     -0.29      0.00
  -10   12    7      0.18      0.00
   -8   12    7      0.14      0.00
   -6   12    7     -0.21      0.00
   -4   12    7     -0.33      0.00
   -2   12    7     -0.20      0.00
    0   12    7     -0.04      0.00
    2   12    7      0.23      0.00
    4   12    7      0.66      0.00
    6   12    7      0.80      0.00
    8   12    7      0.27      0.00
   10   12    7     -0.56      0.00
   12   12    7     -0.83      0.00
   14   12    7     -0.38      0.00
  -17   13    7      0.46      0.00
  -15   13    7     -0.24      0.00
  -13   13    7     -0.33      0.00
  -11   13    7      0.11      0.00
   -9   13    7      0.24      0.00
   -7   13    7     -0.11      0.00
   -5   13    7     -0.36      0.00
   -3   13    7     -0.20      0.00
   -1   13    7      0.05      0.00
    1   13    7      0.19      0.00
    3   13    7      0.37      0.00
    5   13    7      0.51      0.00
    7   13    7      0.19      0.00
    9   13    7     -0.55      0.00
   11   13    7     -1.01      0.00
   13   13    7     -0.72      0.00
  -16   14    7      0.13      0.00
  -14   14    7     -0.21      0.00
  -12   14    7      0.02      0.00
  -10   14    7      0.29      0.00
   -8   14    7      0.06      0.00
   -6   14    7     -0.33      0.00
   -4   14    7     -0.28      0.00
   -2   14    7      0.08      0.00
    0   14    7      0.26      0.00
    2   14    7      0.26      0.00
    4   14    7      0.24      0.00
    6   14    7      0.02      0.00
    8   14    7     -0.56      0.00
   10   14    7     -1.05      0.00
   12   14    7     -0.94      0.00
  -15   15    7      0.02      0.00
  -13   15    7      0.00      0.00
  -11   15    7      0.28      0.00
   -9   15    7      0.26      0.00
   -7   15    7     -0.16      0.00
   -5   15    7     -0.34      0.00
   -3   15    7     -0.03      0.00
   -1   15    7      0.30      0.00
    1   15    7      0.28      0.00
    3   15    7      0.10      0.00
    5   15    7     -0.13      0.00
    7   15    7     -0.54      0.00
    9   15    7     -0.98      0.00
   11   15    7     -0.99      0.00
  -14   16    7      0.08      0.00
  -12   16    7      0.26      0.00
  -10   16    7      0.42      0.00
   -8   16    7      0.12      0.00
   -6   16    7     -0.28      0.00
   -4   16    7     -0.21      0.00
   -2   16    7      0.17      0.00
    0   16    7      0.31      0.00
    2   16    7      0.11      0.00
    4   16    7     -0.16      0.00
    6   16    7     -0.45      0.00
    8   16    7     -0.78      0.00
   10   16    7     -0.86      0.00
  -13   17    7      0.26      0.00
  -11   17    7      0.50      0.00
   -9   17    7      0.43      0.00
   -7   17    7     -0.03      0.00
   -5   17    7     -0.28      0.00
   -3   17    7     -0.06      0.00
   -1   17    7      0.21      0.00
    1   17    7      0.14      0.00
    3   17    7     -0.11      0.00
    5   17    7     -0.32      0.00
    7   17    7     -0.51      0.00
    9   17    7     -0.59      0.00
  -12   18    7      0.52      0.00
  -10   18    7      0.65      0.00
   -8   18    7      0.32      0.00
   -6   18    7     -0.16      0.00
   -4   18    7     -0.24      0.00
   -2   18    7      0.01      0.00
    0   18    7      0.12      0.00
    2   18    7     -0.04      0.00
    4   18    7     -0.20      0.00
    6   18    7     -0.26      0.00
    8   18    7     -0.28      0.00
  -11   19    7      0.74      0.00
   -9   19    7      0.63      0.00
   -7   19    7      0.13      0.00
   -5   19    7     -0.23      0.00
   -3   19    7     -0.16      0.00
   -1   19    7      0.02      0.00
    1   19    7      0.01      0.00
    3   19    7     -0.11      0.00
    5   19    7     -0.13      0.00
    7   19    7     -0.07      0.00
  -10   20    7      0.80      0.00
   -8   20    7      0.46      0.00
   -6   20    7     -0.03      0.00
   -4   20    7     -0.19      0.00
   -2   20    7     -0.05      0.00
    0   20    7      0.03      0.00
    2   20    7     -0.06      0.00
    4   20    7     -0.10      0.00
   -7   21    7      0.26      0.00
   -5   21    7     -0.04      0.00
   -3   21    7     -0.02      0.00
   -1   21    7      0.09      0.00
    1   21    7      0.02      0.00
    3   21    7     -0.11      0.00
  -20    0    8     -0.84      0.00
  -18    0    8     -0.36      0.00
  -16    0    8      0.46      0.00
  -14    0    8      0.64      0.00
  -12    0    8      0.09      0.00
  -10    0    8     -0.29      0.00
   -8    0    8     -0.05      0.00
   -6    0    8      0.48      0.00
   -4    0    8      0.98      0.00
   -2    0    8      1.29      0.00
    0    0    8      0.98      0.00
    2    0    8      0.04      0.00
    4    0    8     -0.50      0.00
    6    0    8      0.15      0.00
    8    0    8      1.16      0.00
   10    0    8      0.98      0.00
   12    0    8     -0.56      0.00
   14    0    8     -2.00      0.00
  -21    1    8     -0.76      0.00
  -19    1    8     -0.72      0.00
  -17    1    8      0.06      0.00
  -15    1    8      0.68      0.00
  -13    1    8      0.47      0.00
  -11    1    8     -0.11      0.00
   -9    1    8     -0.22      0.00
   -7    1    8      0.16      0.00
   -5    1    8      0.62      0.00
   -3    1    8      1.00      0.00
   -1    1    8      1.06      0.00
    1    1    8      0.43      0.00
    3    1    8     -0.40      0.00
    5    1    8     -0.33      0.00
    7    1    8      0.66      0.00
    9    1    8      1.19      0.00
   11    1    8      0.24      0.00
   13    1    8     -1.42      0.00
   15    1    8     -2.21      0.00
  -20    2    8     -0.92      0.00
  -18    2    8     -0.48      0.00
  -16    2    8      0.38      0.00
  -14    2    8      0.70      0.00
  -12    2    8      0.27      0.00
  -10    2    8     -0.16      0.00
   -8    2    8     -0.12      0.00
   -6    2    8      0.14      0.00
   -4    2    8      0.40      0.00
   -2    2    8      0.59      0.00
    0    2    8      0.40      0.00
    2    2    8     -0.24      0.00
    4    2    8     -0.58      0.00
    6    2    8      0.02      0.00
    8    2    8      0.87      0.00
   10    2    8      0.67      0.00
   12    2    8     -0.67      0.00
   14    2    8     -1.94      0.00
  -21    3    8     -0.86      0.00
  -19    3    8     -0.94      0.00
  -17    3    8     -0.23      0.00
  -15    3    8      0.53      0.00
  -13    3    8      0.55      0.00
  -11    3    8      0.07      0.00
   -9    3    8     -0.22      0.00
   -7    3    8     -0.23      0.00
   -5    3    8     -0.20      0.00
   -3    3    8     -0.12      0.00
   -1    3    8     -0.08      0.00
    1    3    8     -0.32      0.00
    3    3    8     -0.66      0.00
    5    3    8     -0.47      0.00
    7    3    8      0.25      0.00
    9    3    8      0.60      0.00
   11    3    8     -0.10      0.00
   13    3    8     -1.31      0.00
   15    3    8     -1.93      0.00
  -20    4    8     -1.08      0.00
  -18    4    8     -0.86      0.00
  -16    4    8     -0.07      0.00
  -14    4    8      0.44      0.00
  -12    4    8      0.26      0.00
  -10    4    8     -0.16      0.00
   -8    4    8     -0.41      0.00
   -6    4    8     -0.56      0.00
   -4    4    8     -0.70      0.00
   -2    4    8     -0.70      0.00
    0    4    8     -0.65      0.00
    2    4    8     -0.73      0.00
    4    4    8     -0.71      0.00
    6    4    8     -0.31      0.00
    8    4    8      0.16      0.00
   10    4    8      0.08      0.00
   12    4    8     -0.63      0.00
   14    4    8     -1.37      0.00
  -19    5    8     -1.16      0.00
  -17    5    8     -0.78      0.00
  -15    5    8     -0.11      0.00
  -13    5    8      0.13      0.00
  -11    5    8     -0.12      0.00
   -9    5    8     -0.45      0.00
   -7    5    8     -0.69      0.00
   -5    5    8     -0.95      0.00
   -3    5    8     -1.10      0.00
   -1    5    8     -1.02      0.00
    1    5    8     -0.84      0.00
    3    5    8     -0.73      0.00
    5    5    8     -0.58      0.00
    7    5    8     -0.31      0.00
    9    5    8     -0.12      0.00
   11    5    8     -0.23      0.00
   13    5    8     -0.61      0.00
   15    5    8     -0.93      0.00
  -20    6    8     -0.96      0.00
  -18    6    8     -1.17      0.00
  -16    6    8     -0.79      0.00
  -14    6    8     -0.34      0.00
  -12    6    8     -0.27      0.00
  -10    6    8     -0.48      0.00
   -8    6    8     -0.69      0.00
   -6    6    8     -0.92      0.00
   -4    6    8     -1.14      0.00
   -2    6    8     -1.14      0.00
    0    6    8     -0.88      0.00
    2    6    8     -0.60      0.00
    4    6    8     -0.48      0.00
    6    6    8     -0.48      0.00
    8    6    8     -0.40      0.00
   10    6    8     -0.19      0.00
   12    6    8     -0.05      0.00
   14    6    8     -0.13      0.00
  -19    7    8     -1.00      0.00
  -17    7    8     -1.17      0.00
  -15    7    8     -0.90      0.00
  -13    7    8     -0.63      0.00
  -11    7    8     -0.59      0.00
   -9    7    8     -0.67      0.00
   -7    7    8     -0.78      0.00
   -5    7    8     -0.93      0.00
   -3    7    8     -0.98      0.00
   -1    7    8     -0.75      0.00
    1    7    8     -0.34      0.00
    3    7    8     -0.11      0.00
    5    7    8     -0.22      0.00
    7    7    8     -0.43      0.00
    9    7    8     -0.32      0.00
   11    7    8      0.13      0.00
   13    7    8      0.48      0.00
  -20    8    8     -0.43      0.00
  -18    8    8     -0.99      0.00
  -16    8    8     -1.18      0.00
  -14    8    8     -1.01      0.00
  -12    8    8     -0.79      0.00
  -10    8    8     -0.68      0.00
   -8    8    8     -0.65      0.00
   -6    8    8     -0.67      0.00
   -4    8    8     -0.66      0.00
   -2    8    8     -0.47      0.00
    0    8    8     -0.04      0.00
    2    8    8      0.36      0.00
    4    8    8      0.34      0.00
    6    8    8     -0.05      0.00
    8    8    8     -0.29      0.00
   10    8    8      0.05      0.00
   12    8    8      0.67      0.00
   14    8    8      0.91      0.00
  -19    9    8     -0.39      0.00
  -17    9    8     -0.97      0.00
  -15    9    8     -1.17      0.00
  -13    9    8     -1.00      0.00
  -11    9    8     -0.74      0.00
   -9    9    8     -0.55      0.00
   -7    9    8     -0.45      0.00
   -5    9    8     -0.37      0.00
   -3    9    8     -0.18      0.00
   -1    9    8      0.23      0.00
    1    9    8      0.71      0.00
    3    9    8      0.89      0.00
    5    9    8      0.55      0.00
    7    9    8      0.04      0.00
    9    9    8     -0.01      0.00
   11    9    8      0.52      0.00
   13    9    8      1.00      0.00
  -18   10    8     -0.37      0.00
  -16   10    8     -0.92      0.00
  -14   10    8     -1.06      0.00
  -12   10    8     -0.83      0.00
  -10   10    8     -0.50      0.00
   -8   10    8     -0.29      0.00
   -6   10    8     -0.16      0.00
   -4   10    8      0.03      0.00
   -2   10    8      0.39      0.00
    0   10    8      0.86      0.00
    2   10    8      1.18      0.00
    4   10    8      1.05      0.00
    6   10    8      0.52      0.00
    8   10    8      0.13      0.00
   10   10    8      0.29      0.00
   12   10    8      0.73      0.00
  -17   11    8     -0.35      0.00
  -15   11    8     -0.84      0.00
  -13   11    8     -0.87      0.00
  -11   11    8     -0.55      0.00
   -9   11    8     -0.22      0.00
   -7   11    8     -0.02      0.00
   -5   11    8      0.15      0.00
   -3   11    8      0.45      0.00
   -1   11    8      0.83      0.00
    1   11    8      1.15      0.00
    3   11    8      1.18      0.00
    5   11    8      0.83      0.00
    7   11    8      0.36      0.00
    9   11    8      0.18      0.00
   11   11    8      0.37      0.00
   13   11    8      0.51      0.00
  -16   12    8     -0.34      0.00
  -14   12    8     -0.73      0.00
  -12   12    8     -0.65      0.00
  -10   12    8     -0.28      0.00
   -8   12    8      0.04      0.00
   -6   12    8      0.24      0.00
   -4   12    8      0.47      0.00
   -2   12    8      0.75      0.00
    0   12    8      0.96      0.00
    2   12    8      0.98      0.00
    4   12    8      0.79      0.00
    6   12    8      0.45      0.00
    8   12    8      0.19      0.00
   10   12    8      0.14      0.00
   12   12    8      0.15      0.00
  -17   13    8      0.24      0.00
  -15   13    8     -0.35      0.00
  -13   13    8     -0.64      0.00
  -11   13    8     -0.44      0.00
   -9   13    8     -0.04      0.00
   -7   13    8      0.27      0.00
   -5   13    8      0.50      0.00
   -3   13    8      0.71      0.00
   -1   13    8      0.80      0.00
    1   13    8      0.69      0.00
    3   13    8      0.48      0.00
    5   13    8      0.30      0.00
    7   13    8      0.16      0.00
    9   13    8      0.07      0.00
   11   13    8     -0.03      0.00
  -16   14    8      0.17      0.00
  -14   14    8     -0.39      0.00
  -12   14    8     -0.56      0.00
  -10   14    8     -0.24      0.00
   -8   14    8      0.20      0.00
   -6   14    8      0.53      0.00
   -4   14    8      0.74      0.00
   -2   14    8      0.77      0.00
    0   14    8      0.53      0.00
    2   14    8      0.16      0.00
    4   14    8     -0.03      0.00
    6   14    8      0.01      0.00
    8   14    8      0.07      0.00
   10   14    8      0.00      0.00
  -15   15    8      0.06      0.00
  -13   15    8     -0.43      0.00
  -11   15    8     -0.43      0.00
   -9   15    8      0.01      0.00
   -7   15    8      0.47      0.00
   -5   15    8      0.76      0.00
   -3   15    8      0.83      0.00
   -1   15    8      0.56      0.00
    1   15    8      0.05      0.00
    3   15    8     -0.29      0.00
    5   15    8     -0.22      0.00
    7   15    8      0.04      0.00
    9   15    8      0.13      0.00
  -14   16    8     -0.05      0.00
  -12   16    8     -0.40      0.00
  -10   16    8     -0.19      0.00
   -8   16    8      0.31      0.00
   -6   16    8      0.70      0.00
   -4   16    8      0.84      0.00
   -2   16    8      0.65      0.00
    0   16    8      0.14      0.00
    2   16    8     -0.35      0.00
    4   16    8     -0.39      0.00
    6   16    8     -0.03      0.00
    8   16    8      0.25      0.00
  -13   17    8     -0.11      0.00
  -11   17    8     -0.25      0.00
   -9   17    8      0.11      0.00
   -7   17    8      0.55      0.00
   -5   17    8      0.74      0.00
   -3   17    8      0.65      0.00
   -1   17    8      0.26      0.00
    1   17    8     -0.25      0.00
    3   17    8     -0.44      0.00
    5   17    8     -0.13      0.00
    7   17    8      0.28      0.00
  -10   18    8     -0.01      0.00
   -8   18    8      0.36      0.00
   -6   18    8      0.56      0.00
   -4   18    8      0.50      0.00
   -2   18    8      0.25      0.00
    0   18    8     -0.15      0.00
    2   18    8     -0.41      0.00
    4   18    8     -0.21      0.00
    6   18    8      0.23      0.00
   -9   19    8      0.20      0.00
   -7   19    8      0.38      0.00
   -5   19    8      0.30      0.00
   -3   19    8      0.09      0.00
   -1   19    8     -0.17      0.00
    1   19    8     -0.37      0.00
    3   19    8     -0.27      0.00
   -6   20    8      0.14      0.00
   -4   20    8     -0.11      0.00
   -2   20    8     -0.29      0.00
    0   20    8     -0.38      0.00
  -19    1    9     -0.44      0.00
  -17    1    9     -0.37      0.00
  -15    1    9     -0.18      0.00
  -13    1    9      0.01      0.00
  -11    1    9      0.18      0.00
   -9    1    9      0.32      0.00
   -7    1    9      0.41      0.00
   -5    1    9      0.41      0.00
   -3    1    9      0.38      0.00
   -1    1    9      0.36      0.00
    1    1    9      0.33      0.00
    3    1    9      0.25      0.00
    5    1    9      0.23      0.00
    7    1    9      0.35      0.00
    9    1    9      0.52      0.00
   11    1    9      0.47      0.00
   13    1    9      0.18      0.00
  -20    2    9     -0.68      0.00
  -18    2    9     -0.69      0.00
  -16    2    9     -0.43      0.00
  -14    2    9     -0.08      0.00
  -12    2    9      0.22      0.00
  -10    2    9      0.45      0.00
   -8    2    9      0.63      0.00
   -6    2    9      0.69      0.00
   -4    2    9      0.65      0.00
   -2    2    9      0.60      0.00
    0    2    9      0.58      0.00
    2    2    9      0.48      0.00
    4    2    9      0.34      0.00
    6    2    9      0.41      0.00
    8    2    9      0.71      0.00
   10    2    9      0.83      0.00
   12    2    9      0.49      0.00
   14    2    9     -0.09      0.00
  -19    3    9     -0.81      0.00
  -17    3    9     -0.59      0.00
  -15    3    9     -0.17      0.00
  -13    3    9      0.19      0.00
  -11    3    9      0.44      0.00
   -9    3    9      0.61      0.00
   -7    3    9      0.69      0.00
   -5    3    9      0.66      0.00
   -3    3    9      0.60      0.00
   -1    3    9      0.60      0.00
    1    3    9      0.56      0.00
    3    3    9      0.38      0.00
    5    3    9      0.27      0.00
    7    3    9      0.50      0.00
    9    3    9      0.81      0.00
   11    3    9      0.66      0.00
   13    3    9      0.02      0.00
  -20    4    9     -0.69      0.00
  -18    4    9     -0.56      0.00
  -16    4    9     -0.16      0.00
  -14    4    9      0.22      0.00
  -12    4    9      0.43      0.00
  -10    4    9      0.48      0.00
   -8    4    9      0.48      0.00
   -6    4    9      0.42      0.00
   -4    4    9      0.35      0.00
   -2    4    9      0.37      0.00
    0    4    9      0.42      0.00
    2    4    9      0.32      0.00
    4    4    9      0.11      0.00
    6    4    9      0.13      0.00
    8    4    9      0.44      0.00
   10    4    9      0.52      0.00
   12    4    9      0.04      0.00
  -19    5    9     -0.39      0.00
  -17    5    9     -0.03      0.00
  -15    5    9      0.33      0.00
  -13    5    9      0.50      0.00
  -11    5    9      0.43      0.00
   -9    5    9      0.24      0.00
   -7    5    9      0.06      0.00
   -5    5    9     -0.06      0.00
   -3    5    9     -0.04      0.00
   -1    5    9      0.10      0.00
    1    5    9      0.17      0.00
    3    5    9      0.03      0.00
    5    5    9     -0.09      0.00
    7    5    9      0.05      0.00
    9    5    9      0.21      0.00
   11    5    9     -0.05      0.00
   13    5    9     -0.61      0.00
  -18    6    9      0.13      0.00
  -16    6    9      0.48      0.00
  -14    6    9      0.63      0.00
  -12    6    9      0.50      0.00
  -10    6    9      0.17      0.00
   -8    6    9     -0.20      0.00
   -6    6    9     -0.44      0.00
   -4    6    9     -0.47      0.00
   -2    6    9     -0.29      0.00
    0    6    9     -0.07      0.00
    2    6    9     -0.01      0.00
    4    6    9     -0.07      0.00
    6    6    9     -0.04      0.00
    8    6    9      0.06      0.00
   10    6    9     -0.11      0.00
   12    6    9     -0.57      0.00
  -19    7    9      0.18      0.00
  -17    7    9      0.56      0.00
  -15    7    9      0.71      0.00
  -13    7    9      0.61      0.00
  -11    7    9      0.27      0.00
   -9    7    9     -0.21      0.00
   -7    7    9     -0.63      0.00
   -5    7    9     -0.76      0.00
   -3    7    9     -0.60      0.00
   -1    7    9     -0.30      0.00
    1    7    9     -0.06      0.00
    3    7    9      0.06      0.00
    5    7    9      0.17      0.00
    7    7    9      0.25      0.00
    9    7    9      0.09      0.00
   11    7    9     -0.35      0.00
   13    7    9     -0.73      0.00
  -18    8    9      0.49      0.00
  -16    8    9      0.67      0.00
  -14    8    9      0.61      0.00
  -12    8    9      0.40      0.00
  -10    8    9      0.00      0.00
   -8    8    9     -0.50      0.00
   -6    8    9     -0.80      0.00
   -4    8    9     -0.73      0.00
   -2    8    9     -0.42      0.00
    0    8    9     -0.11      0.00
    2    8    9      0.17      0.00
    4    8    9      0.46      0.00
    6    8    9      0.67      0.00
    8    8    9      0.58      0.00
   10    8    9      0.11      0.00
   12    8    9     -0.38      0.00
  -17    9    9      0.48      0.00
  -15    9    9      0.44      0.00
  -13    9    9      0.37      0.00
  -11    9    9      0.22      0.00
   -9    9    9     -0.15      0.00
   -7    9    9     -0.56      0.00
   -5    9    9     -0.66      0.00
   -3    9    9     -0.41      0.00
   -1    9    9     -0.08      0.00
    1    9    9      0.22      0.00
    3    9    9      0.62      0.00
    5    9    9      1.04      0.00
    7    9    9      1.16      0.00
    9    9    9      0.75      0.00
   11    9    9      0.12      0.00
  -16   10    9      0.19      0.00
  -14   10    9      0.14      0.00
  -12   10    9      0.26      0.00
  -10   10    9      0.23      0.00
   -8   10    9     -0.12      0.00
   -6   10    9     -0.40      0.00
   -4   10    9     -0.30      0.00
   -2   10    9      0.01      0.00
    0   10    9      0.29      0.00
    2   10    9      0.63      0.00
    4   10    9      1.15      0.00
    6   10    9      1.53      0.00
    8   10    9      1.32      0.00
   10   10    9      0.65      0.00
  -17   11    9      0.00      0.00
  -15   11    9     -0.12      0.00
  -13   11    9      0.07      0.00
  -11   11    9      0.40      0.00
   -9   11    9      0.35      0.00
   -7   11    9     -0.01      0.00
   -5   11    9     -0.15      0.00
   -3   11    9      0.09      0.00
   -1   11    9      0.37      0.00
    1   11    9      0.62      0.00
    3   11    9      1.04      0.00
    5   11    9      1.54      0.00
    7   11    9      1.60      0.00
    9   11    9      1.03      0.00
   11   11    9      0.38      0.00
  -16   12    9     -0.24      0.00
  -14   12    9     -0.19      0.00
  -12   12    9      0.30      0.00
  -10   12    9      0.65      0.00
   -8   12    9      0.41      0.00
   -6   12    9      0.03      0.00
   -4   12    9      0.08      0.00
   -2   12    9      0.41      0.00
    0   12    9      0.65      0.00
    2   12    9      0.91      0.00
    4   12    9      1.32      0.00
    6   12    9      1.55      0.00
    8   12    9      1.17      0.00
   10   12    9      0.49      0.00
  -15   13    9     -0.30      0.00
  -13   13    9      0.05      0.00
  -11   13    9      0.66      0.00
   -9   13    9      0.74      0.00
   -7   13    9      0.26      0.00
   -5   13    9      0.00      0.00
   -3   13    9      0.28      0.00
   -1   13    9      0.66      0.00
    1   13    9      0.88      0.00
    3   13    9      1.11      0.00
    5   13    9      1.32      0.00
    7   13    9      1.11      0.00
    9   13    9      0.48      0.00
  -14   14    9     -0.14      0.00
  -12   14    9      0.41      0.00
  -10   14    9      0.81      0.00
   -8   14    9      0.49      0.00
   -6   14    9     -0.05      0.00
   -4   14    9      0.00      0.00
   -2   14    9      0.51      0.00
    0   14    9      0.89      0.00
    2   14    9      1.05      0.00
    4   14    9      1.13      0.00
    6   14    9      0.98      0.00
    8   14    9      0.43      0.00
  -13   15    9      0.09      0.00
  -11   15    9      0.61      0.00
   -9   15    9      0.59      0.00
   -7   15    9      0.00      0.00
   -5   15    9     -0.30      0.00
   -3   15    9      0.15      0.00
   -1   15    9      0.78      0.00
    1   15    9      1.07      0.00
    3   15    9      1.08      0.00
    5   15    9      0.91      0.00
    7   15    9      0.44      0.00
  -12   16    9      0.22      0.00
  -10   16    9      0.47      0.00
   -8   16    9      0.08      0.00
   -6   16    9     -0.45      0.00
   -4   16    9     -0.29      0.00
   -2   16    9      0.45      0.00
    0   16    9      1.02      0.00
    2   16    9      1.11      0.00
    4   16    9      0.92      0.00
    6   16    9      0.52      0.00
  -11   17    9      0.16      0.00
   -9   17    9      0.09      0.00
   -7   17    9     -0.42      0.00
   -5   17    9     -0.59      0.00
   -3   17    9      0.00      0.00
   -1   17    9      0.77      0.00
    1   17    9      1.08      0.00
    3   17    9      0.95      0.00
   -8   18    9     -0.30      0.00
   -6   18    9     -0.65      0.00
   -4   18    9     -0.39      0.00
   -2   18    9      0.37      0.00
    0   18    9      0.90      0.00
    2   18    9      0.92      0.00
   -5   19    9     -0.54      0.00
   -3   19    9     -0.01      0.00
   -1   19    9      0.60      0.00
  -18    0   10      0.37      0.00
  -16    0   10      0.29      0.00
  -14    0   10     -0.15      0.00
  -12    0   10     -0.97      0.00
  -10    0   10     -1.62      0.00
   -8    0   10     -1.79      0.00
   -6    0   10     -1.67      0.00
   -4    0   10     -1.30      0.00
   -2    0   10     -0.76      0.00
    0    0   10     -0.53      0.00
    2    0   10     -1.01      0.00
    4    0   10     -1.41      0.00
    6    0   10     -0.47      0.00
    8    0   10      1.68      0.00
   10    0   10      3.25      0.00
   12    0   10      2.81      0.00
  -19    1   10      0.29      0.00
  -17    1   10      0.25      0.00
  -15    1   10      0.08      0.00
  -13    1   10     -0.55      0.00
  -11    1   10     -1.30      0.00
   -9    1   10     -1.67      0.00
   -7    1   10     -1.63      0.00
   -5    1   10     -1.37      0.00
   -3    1   10     -0.89      0.00
   -1    1   10     -0.45      0.00
    1    1   10     -0.61      0.00
    3    1   10     -1.21      0.00
    5    1   10     -1.08      0.00
    7    1   10      0.54      0.00
    9    1   10      2.59      0.00
   11    1   10      3.22      0.00
  -18    2   10      0.00      0.00
  -16    2   10      0.04      0.00
  -14    2   10     -0.22      0.00
  -12    2   10     -0.86      0.00
  -10    2   10     -1.36      0.00
   -8    2   10     -1.39      0.00
   -6    2   10     -1.12      0.00
   -4    2   10     -0.73      0.00
   -2    2   10     -0.28      0.00
    0    2   10     -0.15      0.00
    2    2   10     -0.62      0.00
    4    2   10     -1.03      0.00
    6    2   10     -0.31      0.00
    8    2   10      1.51      0.00
   10    2   10      2.91      0.00
   12    2   10      2.62      0.00
  -19    3   10     -0.29      0.00
  -17    3   10     -0.20      0.00
  -15    3   10     -0.10      0.00
  -13    3   10     -0.41      0.00
  -11    3   10     -0.92      0.00
   -9    3   10     -1.08      0.00
   -7    3   10     -0.80      0.00
   -5    3   10     -0.38      0.00
   -3    3   10      0.03      0.00
   -1    3   10      0.29      0.00
    1    3   10      0.09      0.00
    3    3   10     -0.46      0.00
    5    3   10     -0.51      0.00
    7    3   10      0.52      0.00
    9    3   10      2.01      0.00
   11    3   10      2.61      0.00
  -18    4   10     -0.45      0.00
  -16    4   10     -0.15      0.00
  -14    4   10     -0.06      0.00
  -12    4   10     -0.41      0.00
  -10    4   10     -0.73      0.00
   -8    4   10     -0.57      0.00
   -6    4   10     -0.10      0.00
   -4    4   10      0.35      0.00
   -2    4   10      0.64      0.00
    0    4   10      0.66      0.00
    2    4   10      0.29      0.00
    4    4   10     -0.12      0.00
    6    4   10      0.06      0.00
    8    4   10      1.00      0.00
   10    4   10      1.92      0.00
  -17    5   10     -0.24      0.00
  -15    5   10      0.15      0.00
  -13    5   10      0.10      0.00
  -11    5   10     -0.29      0.00
   -9    5   10     -0.41      0.00
   -7    5   10     -0.04      0.00
   -5    5   10      0.49      0.00
   -3    5   10      0.83      0.00
   -1    5   10      0.95      0.00
    1    5   10      0.83      0.00
    3    5   10      0.48      0.00
    5    5   10      0.18      0.00
    7    5   10      0.34      0.00
    9    5   10      0.95      0.00
   11    5   10      1.41      0.00
  -18    6   10     -0.25      0.00
  -16    6   10      0.23      0.00
  -14    6   10      0.49      0.00
  -12    6   10      0.21      0.00
  -10    6   10     -0.19      0.00
   -8    6   10     -0.13      0.00
   -6    6   10      0.34      0.00
   -4    6   10      0.77      0.00
   -2    6   10      0.95      0.00
    0    6   10      0.97      0.00
    2    6   10      0.85      0.00
    4    6   10      0.54      0.00
    6    6   10      0.19      0.00
    8    6   10      0.18      0.00
   10    6   10      0.54      0.00
  -17    7   10      0.23      0.00
  -15    7   10      0.66      0.00
  -13    7   10      0.63      0.00
  -11    7   10      0.16      0.00
   -9    7   10     -0.16      0.00
   -7    7   10      0.04      0.00
   -5    7   10      0.47      0.00
   -3    7   10      0.71      0.00
   -1    7   10      0.76      0.00
    1    7   10      0.79      0.00
    3    7   10      0.71      0.00
    5    7   10      0.33      0.00
    7    7   10     -0.12      0.00
    9    7   10     -0.21      0.00
  -16    8   10      0.63      0.00
  -14    8   10      0.81      0.00
  -12    8   10      0.49      0.00
  -10    8   10     -0.03      0.00
   -8    8   10     -0.19      0.00
   -6    8   10      0.09      0.00
   -4    8   10      0.36      0.00
   -2    8   10      0.40      0.00
    0    8   10      0.41      0.00
    2    8   10      0.50      0.00
    4    8   10      0.39      0.00
    6    8   10     -0.10      0.00
    8    8   10     -0.54      0.00
   10    8   10     -0.49      0.00
  -17    9   10      0.49      0.00
  -15    9   10      0.72      0.00
  -13    9   10      0.63      0.00
  -11    9   10      0.18      0.00
   -9    9   10     -0.20      0.00
   -7    9   10     -0.19      0.00
   -5    9   10      0.04      0.00
   -3    9   10      0.09      0.00
   -1    9   10      0.00      0.00
    1    9   10      0.04      0.00
    3    9   10      0.16      0.00
    5    9   10     -0.02      0.00
    7    9   10     -0.49      0.00
    9    9   10     -0.72      0.00
  -16   10   10      0.49      0.00
  -14   10   10      0.52      0.00
  -12   10   10      0.29      0.00
  -10   10   10     -0.07      0.00
   -8   10   10     -0.24      0.00
   -6   10   10     -0.14      0.00
   -4   10   10     -0.07      0.00
   -2   10   10     -0.21      0.00
    0   10   10     -0.33      0.00
    2   10   10     -0.22      0.00
    4   10   10     -0.11      0.00
    6   10   10     -0.30      0.00
    8   10   10     -0.57      0.00
  -15   11   10      0.30      0.00
  -13   11   10      0.22      0.00
  -11   11   10      0.03      0.00
   -9   11   10     -0.14      0.00
   -7   11   10     -0.15      0.00
   -5   11   10     -0.09      0.00
   -3   11   10     -0.19      0.00
   -1   11   10     -0.42      0.00
    1   11   10     -0.49      0.00
    3   11   10     -0.30      0.00
    5   11   10     -0.18      0.00
    7   11   10     -0.25      0.00
  -14   12   10      0.08      0.00
  -12   12   10      0.01      0.00
  -10   12   10     -0.04      0.00
   -8   12   10     -0.06      0.00
   -6   12   10     -0.04      0.00
   -4   12   10     -0.08      0.00
   -2   12   10     -0.28      0.00
    0   12   10     -0.49      0.00
    2   12   10     -0.45      0.00
    4   12   10     -0.20      0.00
    6   12   10     -0.01      0.00
  -13   13   10     -0.07      0.00
  -11   13   10     -0.05      0.00
   -9   13   10      0.00      0.00
   -7   13   10      0.01      0.00
   -5   13   10      0.00      0.00
   -3   13   10     -0.11      0.00
   -1   13   10     -0.32      0.00
    1   13   10     -0.43      0.00
    3   13   10     -0.28      0.00
    5   13   10      0.04      0.00
    7   13   10      0.29      0.00
  -12   14   10     -0.14      0.00
  -10   14   10     -0.04      0.00
   -8   14   10      0.02      0.00
   -6   14   10     -0.01      0.00
   -4   14   10     -0.06      0.00
   -2   14   10     -0.18      0.00
    0   14   10     -0.33      0.00
    2   14   10     -0.34      0.00
    4   14   10     -0.08      0.00
  -11   15   10     -0.16      0.00
   -9   15   10     -0.04      0.00
   -7   15   10     -0.05      0.00
   -5   15   10     -0.12      0.00
   -3   15   10     -0.19      0.00
   -1   15   10     -0.28      0.00
    1   15   10     -0.36      0.00
    3   15   10     -0.26      0.00
   -8   16   10     -0.08      0.00
   -6   16   10     -0.17      0.00
   -4   16   10     -0.28      0.00
   -2   16   10     -0.33      0.00
    0   16   10     -0.40      0.00
    2   16   10     -0.41      0.00
   -5   17   10     -0.29      0.00
   -3   17   10     -0.40      0.00
   -1   17   10     -0.44      0.00
  -17    1   11      0.68      0.00
  -15    1   11      0.68      0.00
  -13    1   11      0.38      0.00
  -11    1   11     -0.11      0.00
   -9    1   11     -0.56      0.00
   -7    1   11     -0.82      0.00
   -5    1   11     -0.82      0.00
   -3    1   11     -0.62      0.00
   -1    1   11     -0.42      0.00
    1    1   11     -0.53      0.00
    3    1   11     -1.05      0.00
    5    1   11     -1.66      0.00
    7    1   11     -1.80      0.00
    9    1   11     -1.32      0.00
  -16    2   11      1.32      0.00
  -14    2   11      1.07      0.00
  -12    2   11      0.32      0.00
  -10    2   11     -0.59      0.00
   -8    2   11     -1.28      0.00
   -6    2   11     -1.54      0.00
   -4    2   11     -1.34      0.00
   -2    2   11     -0.88      0.00
    0    2   11     -0.68      0.00
    2    2   11     -1.23      0.00
    4    2   11     -2.35      0.00
    6    2   11     -3.14      0.00
    8    2   11     -2.83      0.00
  -17    3   11      1.60      0.00
  -15    3   11      1.68      0.00
  -13    3   11      1.04      0.00
  -11    3   11     -0.08      0.00
   -9    3   11     -1.18      0.00
   -7    3   11     -1.85      0.00
   -5    3   11     -1.90      0.00
   -3    3   11     -1.38      0.00
   -1    3   11     -0.78      0.00
    1    3   11     -0.84      0.00
    3    3   11     -1.93      0.00
    5    3   11     -3.29      0.00
    7    3   11     -3.68      0.00
    9    3   11     -2.69      0.00
  -16    4   11      1.87      0.00
  -14    4   11      1.63      0.00
  -12    4   11      0.68      0.00
  -10    4   11     -0.58      0.00
   -8    4   11     -1.62      0.00
   -6    4   11     -2.06      0.00
   -4    4   11     -1.77      0.00
   -2    4   11     -0.98      0.00
    0    4   11     -0.44      0.00
    2    4   11     -0.92      0.00
    4    4   11     -2.30      0.00
    6    4   11     -3.37      0.00
    8    4   11     -3.09      0.00
  -15    5   11      1.73      0.00
  -13    5   11      1.22      0.00
  -11    5   11      0.16      0.00
   -9    5   11     -1.00      0.00
   -7    5   11     -1.78      0.00
   -5    5   11     -1.86      0.00
   -3    5   11     -1.23      0.00
   -1    5   11     -0.35      0.00
    1    5   11     -0.06      0.00
    3    5   11     -0.84      0.00
    5    5   11     -2.06      0.00
    7    5   11     -2.54      0.00
    9    5   11     -1.86      0.00
  -16    6   11      1.31      0.00
  -14    6   11      1.26      0.00
  -12    6   11      0.64      0.00
  -10    6   11     -0.31      0.00
   -8    6   11     -1.20      0.00
   -6    6   11     -1.63      0.00
   -4    6   11     -1.34      0.00
   -2    6   11     -0.51      0.00
    0    6   11      0.27      0.00
    2    6   11      0.28      0.00
    4    6   11     -0.51      0.00
    6    6   11     -1.28      0.00
    8    6   11     -1.30      0.00
  -15    7   11      0.82      0.00
  -13    7   11      0.63      0.00
  -11    7   11      0.10      0.00
   -9    7   11     -0.62      0.00
   -7    7   11     -1.19      0.00
   -5    7   11     -1.24      0.00
   -3    7   11     -0.69      0.00
   -1    7   11      0.15      0.00
    1    7   11      0.68      0.00
    3    7   11      0.55      0.00
    5    7   11      0.03      0.00
    7    7   11     -0.33      0.00
  -14    8   11      0.24      0.00
  -12    8   11      0.10      0.00
  -10    8   11     -0.26      0.00
   -8    8   11     -0.74      0.00
   -6    8   11     -0.99      0.00
   -4    8   11     -0.75      0.00
   -2    8   11     -0.11      0.00
    0    8   11      0.53      0.00
    2    8   11      0.85      0.00
    4    8   11      0.79      0.00
    6    8   11      0.56      0.00
  -13    9   11     -0.18      0.00
  -11    9   11     -0.18      0.00
   -9    9   11     -0.40      0.00
   -7    9   11     -0.69      0.00
   -5    9   11     -0.68      0.00
   -3    9   11     -0.29      0.00
   -1    9   11      0.23      0.00
    1    9   11      0.62      0.00
    3    9   11      0.87      0.00
    5    9   11      0.98      0.00
    7    9   11      0.86      0.00
  -14   10   11     -0.47      0.00
  -12   10   11     -0.29      0.00
  -10   10   11     -0.20      0.00
   -8   10   11     -0.39      0.00
   -6   10   11     -0.54      0.00
   -4   10   11     -0.35      0.00
   -2   10   11      0.01      0.00
    0   10   11      0.30      0.00
    2   10   11      0.55      0.00
    4   10   11      0.86      0.00
    6   10   11      1.03      0.00
  -13   11   11     -0.42      0.00
  -11   11   11     -0.11      0.00
   -9   11   11     -0.08      0.00
   -7   11   11     -0.32      0.00
   -5   11   11     -0.35      0.00
   -3   11   11     -0.10      0.00
   -1   11   11      0.12      0.00
    1   11   11      0.22      0.00
    3   11   11      0.46      0.00
    5   11   11      0.81      0.00
  -12   12   11     -0.08      0.00
  -10   12   11      0.20      0.00
   -8   12   11      0.03      0.00
   -6   12   11     -0.24      0.00
   -4   12   11     -0.17      0.00
   -2   12   11      0.05      0.00
    0   12   11      0.08      0.00
    2   12   11      0.12      0.00
    4   12   11      0.40      0.00
  -11   13   11      0.38      0.00
   -9   13   11      0.43      0.00
   -7   13   11      0.03      0.00
   -5   13   11     -0.19      0.00
   -3   13   11     -0.03      0.00
   -1   13   11      0.09      0.00
    1   13   11      0.01      0.00
    3   13   11      0.07      0.00
   -8   14   11      0.44      0.00
   -6   14   11     -0.05      0.00
   -4   14   11     -0.12      0.00
   -2   14   11      0.08      0.00
    0   14   11      0.08      0.00
   -5   15   11     -0.13      0.00
   -3   15   11     -0.02      0.00
  -14    0   12     -0.31      0.00
  -12    0   12     -0.14      0.00
  -10    0   12      0.48      0.00
   -8    0   12      1.40      0.00
   -6    0   12      2.25      0.00
   -4    0   12      2.97      0.00
   -2    0   12      3.68      0.00
    0    0   12      3.85      0.00
    2    0   12      2.64      0.00
    4    0   12      0.40      0.00
    6    0   12     -1.29      0.00
  -15    1   12     -0.25      0.00
  -13    1   12     -0.20      0.00
  -11    1   12      0.11      0.00
   -9    1   12      0.84      0.00
   -7    1   12      1.68      0.00
   -5    1   12      2.37      0.00
   -3    1   12      3.05      0.00
   -1    1   12      3.59      0.00
    1    1   12      3.18      0.00
    3    1   12      1.44      0.00
    5    1   12     -0.62      0.00
    7    1   12     -1.46      0.00
  -14    2   12     -0.04      0.00
  -12    2   12      0.01      0.00
  -10    2   12      0.32      0.00
   -8    2   12      0.90      0.00
   -6    2   12      1.47      0.00
   -4    2   12      1.97      0.00
   -2    2   12      2.54      0.00
    0    2   12      2.76      0.00
    2    2   12      1.92      0.00
    4    2   12      0.20      0.00
    6    2   12     -1.13      0.00
  -15    3   12      0.20      0.00
  -13    3   12      0.21      0.00
  -11    3   12      0.15      0.00
   -9    3   12      0.28      0.00
   -7    3   12      0.55      0.00
   -5    3   12      0.82      0.00
   -3    3   12      1.16      0.00
   -1    3   12      1.56      0.00
    1    3   12      1.53      0.00
    3    3   12      0.63      0.00
    5    3   12     -0.58      0.00
  -14    4   12      0.52      0.00
  -12    4   12      0.36      0.00
  -10    4   12      0.07      0.00
   -8    4   12     -0.08      0.00
   -6    4   12     -0.10      0.00
   -4    4   12     -0.06      0.00
   -2    4   12      0.17      0.00
    0    4   12      0.48      0.00
    2    4   12      0.40      0.00
    4    4   12     -0.21      0.00
    6    4   12     -0.77      0.00
  -13    5   12      0.73      0.00
  -11    5   12      0.29      0.00
   -9    5   12     -0.25      0.00
   -7    5   12     -0.61      0.00
   -5    5   12     -0.81      0.00
   -3    5   12     -0.86      0.00
   -1    5   12     -0.65      0.00
    1    5   12     -0.32      0.00
    3    5   12     -0.24      0.00
    5    5   12     -0.48      0.00
  -14    6   12      0.93      0.00
  -12    6   12      0.71      0.00
  -10    6   12     -0.02      0.00
   -8    6   12     -0.70      0.00
   -6    6   12     -1.09      0.00
   -4    6   12     -1.29      0.00
   -2    6   12     -1.32      0.00
    0    6   12     -1.03      0.00
    2    6   12     -0.57      0.00
    4    6   12     -0.34      0.00
  -13    7   12      0.99      0.00
  -11    7   12      0.40      0.00
   -9    7   12     -0.48      0.00
   -7    7   12     -1.05      0.00
   -5    7   12     -1.28      0.00
   -3    7   12     -1.38      0.00
   -1    7   12     -1.28      0.00
    1    7   12     -0.85      0.00
    3    7   12     -0.32      0.00
    5    7   12     -0.13      0.00
  -12    8   12      0.70      0.00
  -10    8   12     -0.15      0.00
   -8    8   12     -0.89      0.00
   -6    8   12     -1.14      0.00
   -4    8   12     -1.11      0.00
   -2    8   12     -1.04      0.00
    0    8   12     -0.79      0.00
    2    8   12     -0.28      0.00
    4    8   12      0.11      0.00
  -11    9   12      0.10      0.00
   -9    9   12     -0.72      0.00
   -7    9   12     -1.07      0.00
   -5    9   12     -0.89      0.00
   -3    9   12     -0.62      0.00
   -1    9   12     -0.41      0.00
    1    9   12     -0.07      0.00
    3    9   12      0.33      0.00
  -10   10   12     -0.59      0.00
   -8   10   12     -1.08      0.00
   -6   10   12     -0.92      0.00
   -4   10   12     -0.41      0.00
   -2   10   12     -0.02      0.00
    0   10   12      0.23      0.00
    2   10   12      0.51      0.00
   -9   11   12     -1.08      0.00
   -7   11   12     -1.09      0.00
   -5   11   12     -0.53      0.00
   -3   11   12      0.10      0.00
   -1   11   12      0.45      0.00
    1   11   12      0.62      0.00
   -6   12   12     -0.80      0.00
   -4   12   12     -0.10      0.00
   -2   12   12      0.41      0.00
  -11    1   13      0.62      0.00
   -9    1   13      0.71      0.00
   -7    1   13      0.54      0.00
   -5    1   13      0.20      0.00
   -3    1   13      0.05      0.00
   -1    1   13      0.30      0.00
    1    1   13      0.74      0.00
  -10    2   13      1.22      0.00
   -8    2   13      1.19      0.00
   -6    2   13      0.67      0.00
   -4    2   13      0.11      0.00
   -2    2   13      0.17      0.00
    0    2   13      0.89      0.00
    2    2   13      1.50      0.00
  -11    3   13      1.22      0.00
   -9    3   13      1.53      0.00
   -7    3   13      1.18      0.00
   -5    3   13      0.37      0.00
   -3    3   13     -0.06      0.00
   -1    3   13      0.47      0.00
    1    3   13      1.47      0.00
  -10    4   13      1.35      0.00
   -8    4   13      1.42      0.00
   -6    4   13      0.74      0.00
   -4    4   13     -0.09      0.00
   -2    4   13     -0.10      0.00
    0    4   13      0.82      0.00
    2    4   13      1.66      0.00
   -9    5   13      1.20      0.00
   -7    5   13      0.94      0.00
   -5    5   13      0.10      0.00
   -3    5   13     -0.42      0.00
   -1    5   13      0.02      0.00
    1    5   13      0.97      0.00
   -8    6   13      0.80      0.00
   -6    6   13      0.28      0.00
   -4    6   13     -0.41      0.00
   -2    6   13     -0.50      0.00
    0    6   13      0.15      0.00
   -7    7   13      0.27      0.00
   -5    7   13     -0.26      0.00
   -3    7   13     -0.60      0.00
   -1    7   13     -0.38      0.00
   -6    8   13     -0.18      0.00
   -4    8   13     -0.48      0.00
    2    0    0     22.89      0.00
    1    1    0     24.56      0.00
   23    1    0     -1.14      0.00
    0    2    0     20.82      0.00
   23    3    0     -0.75      0.00
   22    8    0      0.12      0.00
   18   16    0     -0.77      0.00
   13   21    0     -1.25      0.00
    8   24    0     -0.54      0.00
    5   25    0     -0.02      0.00
   -1    1    1      2.23      0.00
  -23    5    1     -0.61      0.00
   22    6    1     -0.03      0.00
   20   12    1     -0.64      0.00
  -19   15    1      0.28      0.00
   16   18    1      0.55      0.00
   15   19    1      0.58      0.00
   14   20    1      0.30      0.00
  -12   22    1      0.48      0.00
   -8   24    1      0.83      0.00
   -5   25    1      0.36      0.00
   22    2    2     -1.26      0.00
  -23    5    2      0.34      0.00
   19   13    2     -0.32      0.00
  -19   15    2     -0.38      0.00
  -12   22    2      0.34      0.00
    9   23    2      0.62      0.00
   -8   24    2      0.89      0.00
    6   24    2      0.61      0.00
   -3   25    2      0.56      0.00
    3   25    2      0.52      0.00
   21    5    3     -1.63      0.00
  -19   15    3      0.34      0.00
   17   15    3      0.18      0.00
  -13   21    3      1.05      0.00
   11   21    3      0.66      0.00
   -1   25    3      0.86      0.00
  -23    5    4      0.71      0.00
   20    6    4      0.64      0.00
   19    9    4      0.04      0.00
   18   12    4     -0.06      0.00
  -18   16    4      0.39      0.00
  -14   20    4      0.76      0.00
    8   22    4      0.79      0.00
   -9   23    4     -0.12      0.00
   -6   24    4      0.02      0.00
    2   24    4     -0.11      0.00
  -22    8    5      0.20      0.00
   15   15    5      0.61      0.00
   14   16    5      0.32      0.00
  -16   18    5     -0.64      0.00
   11   19    5     -1.05      0.00
   10   20    5     -1.18      0.00
  -10   22    5     -0.15      0.00
   -7   23    5     -0.75      0.00
   18    6    6     -0.21      0.00
   17    9    6     -0.25      0.00
   15   13    6     -0.45      0.00
    8   20    6      0.21      0.00
   -8   22    6      0.15      0.00
    4   22    6      0.00      0.00
   -3   23    6      0.42      0.00
   -1   23    6      0.47      0.00
  -22    4    7     -0.69      0.00
   17    5    7      0.77      0.00
   16    8    7      0.78      0.00
  -17   15    7      0.35      0.00
  -16   16    7      0.22      0.00
  -15   17    7      0.20      0.00
  -14   18    7      0.30      0.00
    6   20    7     -0.03      0.00
   -4   22    7      0.11      0.00
   -2   22    7      0.20      0.00
    0   22    7      0.16      0.00
   16    0    8     -2.03      0.00
   16    2    8     -2.00      0.00
  -21    5    8     -0.82      0.00
   15    7    8      0.39      0.00
  -18   12    8      0.28      0.00
  -12   18    8     -0.09      0.00
    5   19    8      0.11      0.00
   -8   20    8      0.23      0.00
    2   20    8     -0.32      0.00
   14    4    9     -0.59      0.00
  -18   10    9      0.23      0.00
   12   10    9      0.14      0.00
    5   17    9      0.62      0.00
  -10   18    9     -0.03      0.00
   -7   19    9     -0.51      0.00
    1   19    9      0.77      0.00
   12    4   10      1.94      0.00
   11    7   10      0.12      0.00
    9   11   10     -0.27      0.00
    8   12   10      0.08      0.00
    6   14   10      0.27      0.00
    5   15   10      0.06      0.00
  -10   16   10     -0.17      0.00
   -7   17   10     -0.12      0.00
    1   17   10     -0.48      0.00
   10    2   11     -1.65      0.00
  -17    5   11      1.52      0.00
  -16    8   11      0.24      0.00
    8    8   11      0.34      0.00
  -15    9   11     -0.21      0.00
  -10   14   11      0.72      0.00
    2   14   11     -0.04      0.00
   -7   15   11      0.27      0.00
   -1   15   11      0.15      0.00
    7    3   12     -1.05      0.00
  -15    5   12      0.65      0.00
    6    6   12     -0.39      0.00
   -8   12   12     -1.17      0.00
    0   12   12      0.60      0.00
    3    1   13      0.88      0.00
  -12    2   13      0.86      0.00
    3    3   13      1.79      0.00
  -11    5   13      0.76      0.00
  -10    6   13      0.67      0.00
   -9    7   13      0.45      0.00
   -8    8   13      0.12      0.00
   -2    8   13     -0.49      0.00
   -5    9   13     -0.37      0.00
   -3    9   13     -0.38      0.00
    0    0    0      0.00      0.00
# SQUEEZE RESULTS (Version = 230318)
# Note: Data are Listed for all Voids in the P1 Unit Cell
# i.e. Centre of Gravity, Solvent Accessible Volume,
# Recovered number of Electrons in the Void and
# Details about the Squeezed Material
loop_
  _platon_squeeze_void_nr
  _platon_squeeze_void_average_x
  _platon_squeeze_void_average_y
  _platon_squeeze_void_average_z
  _platon_squeeze_void_volume
  _platon_squeeze_void_count_electrons
  _platon_squeeze_void_content
   1  0.000  0.000 -0.012       171         9 ' '
   2  0.500  0.500  0.007       171         9 ' '
# Missing Reflections Below sin(th)/lambda = 0.25
loop_
  _platon_missing_refln_index_h
  _platon_missing_refln_index_k
  _platon_missing_refln_index_l
  _platon_missing_refln_theta
    2    0    0     2.119
    1    1    0     1.428
    0    2    0     1.915
   -1    1    1     2.124
_platon_squeeze_void_probe_radius                  1.20
_platon_squeeze_details
)
TITL 1         C 1 2/c 1    R = 0.03
CELL   19.6366   21.2636   11.5383     90.00    101.74     90.00
SPGR C2/c
# Solvent Accessible Volume =       342
# Electrons Found in S.A.V. =        18
# Note: Atoms in Void are Labelled as Cxxx and Qxxx for all Others
Q101 0.724 0.423 0.085 !       1.32 eA-3
Q102 0.408 0.418 0.256 !       1.25 eA-3
Q103 0.088 0.047 0.239 !       1.23 eA-3
Q104 0.330 0.420 0.297 !       1.18 eA-3
Q105 0.770 0.045 0.390 !       1.00 eA-3
Q106 0.921 0.359 0.021 !       1.00 eA-3
Q107 0.451 0.374 0.487 !       0.96 eA-3
Q108 0.702 0.436 0.419 !       0.93 eA-3
Q109 0.268 0.184 0.614 !       0.89 eA-3
Q110 0.563 0.313 0.015 !       0.85 eA-3
Q111 0.689 0.436 0.858 !       0.85 eA-3
Q112 0.575 0.298 0.243 !       0.85 eA-3
Q113 0.300 0.048 0.052 !       0.80 eA-3
Q114 0.927 0.453 0.329 !       0.79 eA-3
Q115 0.572 0.203 0.294 !       0.77 eA-3
Q116 0.166 0.047 0.165 !       0.76 eA-3
Q117 0.214 0.254 0.389 !       0.75 eA-3
Q118 0.801 0.404 0.263 !       0.74 eA-3
Q119 0.373 0.282 0.443 !       0.72 eA-3
Q120 0.202 0.440 0.467 !       0.70 eA-3
Q121 0.534 0.265 0.255 !       0.69 eA-3
Q122 0.303 0.361 0.628 !       0.68 eA-3
Q123 0.247 0.266 0.345 !       0.67 eA-3
Q124 0.436 0.311 0.152 !       0.67 eA-3
Q125 0.294 0.358 0.080 !       0.66 eA-3
Q126 0.933 0.140 0.419 !       0.65 eA-3
Q127 0.562 0.249 0.000 !       0.64 eA-3
Q128 0.642 0.175 0.034 !       0.63 eA-3
Q129 0.623 0.191 0.018 !       0.63 eA-3
Q130 0.917 0.433 0.021 !       0.62 eA-3
Q131 0.245 0.169 0.434 !       0.61 eA-3
Q132 0.977 0.501 0.858 !       0.59 eA-3
Q133 0.191 0.281 0.325 !       0.57 eA-3
Q134 0.562 0.097 0.236 !       0.56 eA-3
Q135 0.180 0.174 0.417 !       0.55 eA-3
Q136 0.869 0.344 0.935 !       0.53 eA-3
Q137 0.276 0.328 0.175 !       0.53 eA-3
Q138 0.267 0.346 0.137 !       0.51 eA-3
Q139 0.427 0.098 0.148 !       0.51 eA-3
Q140 0.858 0.502 0.296 !       0.51 eA-3
)
;
_shelx_fab_checksum              23832
_olex2_submission_special_instructions 'No special instructions were received'
loop_
_space_group_symop_operation_xyz
'x, y, z'
'-x, y, -z+1/2'
'x+1/2, y+1/2, z'
'-x+1/2, y+1/2, -z+1/2'
'-x, -y, -z'
'x, -y, z-1/2'
'-x+1/2, -y+1/2, -z'
'x+1/2, -y+1/2, z-1/2'
loop_
_atom_site_label
_atom_site_type_symbol
_atom_site_fract_x
_atom_site_fract_y
_atom_site_fract_z
_atom_site_U_iso_or_equiv
_atom_site_adp_type
_atom_site_occupancy
_atom_site_site_symmetry_order
_atom_site_calc_flag
_atom_site_refinement_flags_posn
_atom_site_refinement_flags_adp
_atom_site_refinement_flags_occupancy
_atom_site_disorder_assembly
_atom_site_disorder_group
Tb1 Tb 0.69553(2) 0.25508(2) 0.64600(2) 0.01705(8) Uani 1 1 d . U . . .
O1 O 0.72825(17) 0.33009(14) 0.3517(3) 0.0264(6) Uani 1 1 d . U . . .
F1 F 0.56811(15) 0.31273(12) 0.2950(3) 0.0401(7) Uani 1 1 d . U . . .
F2 F 0.56835(14) 0.09153(12) 0.2951(3) 0.0425(7) Uani 1 1 d . U . . .
O2 O 0.68746(17) 0.34198(14) 0.5185(3) 0.0275(6) Uani 1 1 d . U . . .
O3 O 0.66903(17) 0.21362(14) 0.4559(3) 0.0289(6) Uani 1 1 d . U . . .
O4 O 0.68966(16) 0.20133(15) 0.2755(3) 0.0282(6) Uani 1 1 d . U . . .
O5 O 0.67264(18) 0.65705(14) 0.2573(3) 0.0287(7) Uani 1 1 d . U . . .
O6 O 0.7183(2) 0.66783(15) 0.4476(3) 0.0436(9) Uani 1 1 d . U . . .
O7 O 0.71565(19) 0.22188(15) 0.8451(3) 0.0331(8) Uani 1 1 d . U . . .
H7A H 0.685388 0.193984 0.854356 0.050 Uiso 1 1 d GR . . . .
H7B H 0.707976 0.252585 0.889576 0.050 Uiso 1 1 d GR . . . .
F3 F 0.7727(2) 0.44938(15) 0.5927(3) 0.0653(10) Uani 1 1 d . U . . .
F4 F 0.7704(2) 0.57065(15) 0.5633(3) 0.0687(10) Uani 1 1 d . U . . .
F5 F 0.6246(2) 0.54439(15) 0.1864(3) 0.0716(11) Uani 1 1 d . U . . .
C1 C 0.5724(2) 0.2023(2) 0.2973(4) 0.0233(7) Uani 1 1 d . U . . .
F6 F 0.6306(2) 0.42270(14) 0.2170(3) 0.0682(10) Uani 1 1 d . U . . .
C2 C 0.5353(2) 0.1472(2) 0.2735(4) 0.0254(8) Uani 1 1 d . U . . .
C3 C 0.5351(2) 0.2573(2) 0.2735(4) 0.0287(7) Uani 1 1 d . U . . .
N1 N 0.6205(2) 0.15525(18) 0.6553(4) 0.0302(7) Uani 1 1 d . U . . .
C4 C 0.6501(2) 0.2052(2) 0.3465(4) 0.0233(7) Uani 1 1 d . U . . .
N2 N 0.5641(2) 0.2695(2) 0.5914(4) 0.0319(6) Uani 1 1 d . U . . .
C5 C 0.7050(2) 0.3610(2) 0.4272(4) 0.0256(7) Uani 1 1 d . U . . .
C6 C 0.6998(3) 0.4317(2) 0.4071(4) 0.0301(8) Uani 1 1 d . U . . .
C7 C 0.6953(3) 0.5650(2) 0.3746(4) 0.0312(8) Uani 1 1 d . U . . .
C8 C 0.5214(3) 0.2180(2) 0.5723(4) 0.0319(7) Uani 1 1 d . U . . .
C9 C 0.6954(3) 0.6358(2) 0.3583(4) 0.0277(8) Uani 1 1 d . U . . .
C10 C 0.7320(3) 0.5365(2) 0.4759(4) 0.0357(8) Uani 1 1 d . U . . .
C11 C 0.5518(2) 0.1574(2) 0.6076(4) 0.0318(7) Uani 1 1 d . U . . .
C12 C 0.6479(3) 0.0995(2) 0.6925(4) 0.0322(8) Uani 1 1 d . U . . .
H12 H 0.695035 0.097616 0.726527 0.039 Uiso 1 1 calc R . . . .
C13 C 0.6643(3) 0.4592(2) 0.3046(5) 0.0363(8) Uani 1 1 d . U . . .
C14 C 0.4507(3) 0.2217(3) 0.5206(5) 0.0361(8) Uani 1 1 d . U . . .
C15 C 0.7342(3) 0.4722(2) 0.4915(4) 0.0347(8) Uani 1 1 d . U . . .
C16 C 0.6617(3) 0.5235(2) 0.2894(5) 0.0381(9) Uani 1 1 d . U . . .
C17 C 0.4236(3) 0.2818(3) 0.4875(5) 0.0410(8) Uani 1 1 d . U . . .
H17 H 0.377040 0.286403 0.451169 0.049 Uiso 1 1 calc R . . . .
C18 C 0.4092(3) 0.1652(3) 0.5041(5) 0.0403(8) Uani 1 1 d . U . . .
H18 H 0.362261 0.167651 0.468952 0.048 Uiso 1 1 calc R . . . .
C19 C 0.5357(3) 0.3250(2) 0.5613(5) 0.0361(8) Uani 1 1 d . U . . .
H19 H 0.563809 0.360558 0.575831 0.043 Uiso 1 1 calc R . . . .
C20 C 0.5402(3) 0.0461(3) 0.6326(5) 0.0383(8) Uani 1 1 d . U . . .
H20 H 0.513675 0.009481 0.624955 0.046 Uiso 1 1 calc R . . . .
C21 C 0.4372(3) 0.1095(3) 0.5387(5) 0.0393(8) Uani 1 1 d . U . . .
H21 H 0.409327 0.073748 0.527472 0.047 Uiso 1 1 calc R . . . .
C22 C 0.5092(3) 0.1034(2) 0.5926(5) 0.0350(8) Uani 1 1 d . U . . .
C23 C 0.4656(3) 0.3330(3) 0.5088(5) 0.0428(9) Uani 1 1 d . U . . .
H23 H 0.447911 0.372961 0.488605 0.051 Uiso 1 1 calc R . . . .
C24 C 0.6092(3) 0.0438(3) 0.6828(5) 0.0384(9) Uani 1 1 d . U . . .
H24 H 0.630176 0.005922 0.710221 0.046 Uiso 1 1 calc R . . . .
loop_
_atom_site_aniso_label
_atom_site_aniso_U_11
_atom_site_aniso_U_22
_atom_site_aniso_U_33
_atom_site_aniso_U_23
_atom_site_aniso_U_13
_atom_site_aniso_U_12
Tb1 0.01944(12) 0.01200(11) 0.01799(12) 0.00026(8) -0.00027(8) -0.00019(8)
O1 0.0324(13) 0.0176(12) 0.0267(13) 0.0003(10) 0.0004(11) 0.0020(11)
F1 0.0336(14) 0.0223(12) 0.0562(16) -0.0019(12) -0.0102(13) -0.0049(11)
F2 0.0284(14) 0.0213(13) 0.071(2) 0.0005(13) -0.0065(14) 0.0068(11)
O2 0.0338(12) 0.0196(11) 0.0271(12) 0.0027(10) 0.0018(11) 0.0011(10)
O3 0.0310(11) 0.0244(11) 0.0277(11) -0.0029(10) -0.0028(10) 0.0010(10)
O4 0.0245(13) 0.0281(13) 0.0301(14) -0.0029(12) 0.0014(12) -0.0019(11)
O5 0.0424(16) 0.0155(13) 0.0255(14) 0.0044(11) 0.0006(13) -0.0046(12)
O6 0.075(2) 0.0189(16) 0.0299(18) -0.0016(14) -0.0063(18) -0.0040(16)
O7 0.055(2) 0.0200(16) 0.0230(17) 0.0000(13) 0.0058(15) -0.0005(15)
F3 0.091(2) 0.0335(15) 0.0498(18) 0.0107(14) -0.0367(17) -0.0059(16)
F4 0.102(2) 0.0301(15) 0.0514(19) -0.0008(14) -0.0366(18) -0.0105(16)
F5 0.106(2) 0.0293(15) 0.0534(19) 0.0090(14) -0.0441(18) -0.0073(16)
C1 0.0221(15) 0.0216(14) 0.0250(15) -0.0022(13) 0.0016(13) -0.0006(13)
F6 0.104(2) 0.0258(15) 0.0521(18) 0.0008(14) -0.0374(18) -0.0083(16)
C2 0.0240(16) 0.0200(16) 0.0298(17) -0.0012(14) 0.0001(15) 0.0022(14)
C3 0.0260(13) 0.0257(13) 0.0323(14) -0.0027(12) 0.0013(12) -0.0023(12)
N1 0.0315(13) 0.0293(13) 0.0299(13) -0.0001(12) 0.0065(12) -0.0055(12)
C4 0.0248(14) 0.0165(13) 0.0257(14) -0.0005(12) -0.0021(13) -0.0004(12)
N2 0.0288(12) 0.0311(12) 0.0347(12) -0.0027(11) 0.0035(11) -0.0001(11)
C5 0.0328(14) 0.0150(13) 0.0252(14) 0.0014(12) -0.0031(13) -0.0003(13)
C6 0.0426(15) 0.0163(14) 0.0273(15) 0.0010(13) -0.0026(14) 0.0001(13)
C7 0.0475(16) 0.0144(14) 0.0272(15) 0.0020(13) -0.0031(14) -0.0019(14)
C8 0.0294(12) 0.0341(12) 0.0321(13) -0.0037(12) 0.0057(11) -0.0032(11)
C9 0.0413(19) 0.0128(16) 0.0264(18) 0.0017(15) 0.0006(16) -0.0025(15)
C10 0.0517(16) 0.0185(14) 0.0300(15) -0.0002(13) -0.0080(14) -0.0038(14)
C11 0.0310(13) 0.0335(13) 0.0311(13) -0.0029(12) 0.0069(12) -0.0062(12)
C12 0.0349(15) 0.0294(15) 0.0318(16) 0.0020(14) 0.0054(14) -0.0054(14)
C13 0.0509(16) 0.0192(14) 0.0311(15) 0.0009(13) -0.0100(14) -0.0031(14)
C14 0.0314(14) 0.0405(15) 0.0361(15) -0.0039(13) 0.0061(13) -0.0028(13)
C15 0.0487(16) 0.0195(14) 0.0288(15) 0.0042(13) -0.0088(15) -0.0018(14)
C16 0.0550(17) 0.0198(15) 0.0308(16) 0.0037(14) -0.0114(15) -0.0020(15)
C17 0.0333(15) 0.0459(16) 0.0420(16) -0.0043(15) 0.0034(15) 0.0008(15)
C18 0.0330(15) 0.0472(16) 0.0398(16) -0.0049(15) 0.0055(14) -0.0082(15)
C19 0.0325(15) 0.0338(15) 0.0396(15) -0.0032(14) 0.0019(14) 0.0023(14)
C20 0.0409(16) 0.0367(16) 0.0373(16) -0.0016(15) 0.0078(15) -0.0125(15)
C21 0.0359(16) 0.0433(16) 0.0388(16) -0.0039(15) 0.0075(14) -0.0121(14)
C22 0.0345(15) 0.0372(15) 0.0338(15) -0.0027(14) 0.0079(14) -0.0105(14)
C23 0.0369(17) 0.0425(17) 0.0455(18) -0.0025(16) 0.0004(16) 0.0061(16)
C24 0.0430(18) 0.0341(17) 0.0376(18) 0.0024(16) 0.0073(16) -0.0071(16)
loop_
_atom_type_symbol
_atom_type_description
_atom_type_scat_dispersion_real
_atom_type_scat_dispersion_imag
_atom_type_scat_source
C C 0.0033 0.0016 'International Tables Vol C Tables 4.2.6.8 and 6.1.1.4'
H H 0.0000 0.0000 'International Tables Vol C Tables 4.2.6.8 and 6.1.1.4'
F F 0.0171 0.0103 'International Tables Vol C Tables 4.2.6.8 and 6.1.1.4'
N N 0.0061 0.0033 'International Tables Vol C Tables 4.2.6.8 and 6.1.1.4'
O O 0.0106 0.0060 'International Tables Vol C Tables 4.2.6.8 and 6.1.1.4'
Tb Tb -0.1723 4.1537 'International Tables Vol C Tables 4.2.6.8 and 6.1.1.4'
loop_
_geom_angle_atom_site_label_1
_geom_angle_atom_site_label_2
_geom_angle_atom_site_label_3
_geom_angle
_geom_angle_site_symmetry_1
_geom_angle_site_symmetry_3
_geom_angle_publ_flag
O1 Tb1 O2 125.20(11) 7_656 . ?
O1 Tb1 O4 75.49(11) 7_656 7_656 ?
O1 Tb1 O5 142.76(11) 7_656 6_566 ?
O1 Tb1 O7 77.17(11) 7_656 . ?
O1 Tb1 N1 74.61(12) 7_656 . ?
O1 Tb1 N2 135.04(12) 7_656 . ?
O2 Tb1 O4 82.69(11) . 7_656 ?
O2 Tb1 O5 73.85(11) . 6_566 ?
O2 Tb1 O7 145.35(11) . . ?
O2 Tb1 N1 134.64(12) . . ?
O2 Tb1 N2 79.30(13) . . ?
O3 Tb1 O1 74.78(11) . 7_656 ?
O3 Tb1 O2 74.54(11) . . ?
O3 Tb1 O4 120.55(11) . 7_656 ?
O3 Tb1 O5 141.54(11) . 6_566 ?
O3 Tb1 O7 140.10(11) . . ?
O3 Tb1 N1 73.10(12) . . ?
O3 Tb1 N2 77.94(12) . . ?
O4 Tb1 N1 141.73(12) 7_656 . ?
O4 Tb1 N2 149.40(12) 7_656 . ?
O5 Tb1 O4 76.16(11) 6_566 7_656 ?
O5 Tb1 N1 116.84(12) 6_566 . ?
O5 Tb1 N2 75.16(12) 6_566 . ?
O7 Tb1 O4 78.04(12) . 7_656 ?
O7 Tb1 O5 73.73(11) . 6_566 ?
O7 Tb1 N1 72.49(12) . . ?
O7 Tb1 N2 103.74(13) . . ?
N2 Tb1 N1 63.53(13) . . ?
C5 O1 Tb1 136.2(3) . 7_656 ?
C5 O2 Tb1 142.6(3) . . ?
C4 O3 Tb1 165.5(3) . . ?
C4 O4 Tb1 112.7(3) . 7_656 ?
C9 O5 Tb1 136.4(3) . 6_565 ?
C2 C1 C4 124.0(4) . . ?
C3 C1 C2 116.4(4) . . ?
C3 C1 C4 119.6(4) . . ?
F2 C2 C1 119.7(4) . . ?
F2 C2 C2 118.6(2) . 2_655 ?
C1 C2 C2 121.7(3) . 2_655 ?
F1 C3 C1 119.4(4) . . ?
F1 C3 C3 118.7(2) . 2_655 ?
C1 C3 C3 121.9(3) . 2_655 ?
C11 N1 Tb1 118.9(3) . . ?
C12 N1 Tb1 122.9(3) . . ?
C12 N1 C11 117.7(4) . . ?
O3 C4 C1 116.9(4) . . ?
O4 C4 O3 125.2(4) . . ?
O4 C4 C1 117.9(4) . . ?
C8 N2 Tb1 120.0(3) . . ?
C19 N2 Tb1 121.6(3) . . ?
C19 N2 C8 117.4(4) . . ?
O1 C5 C6 115.9(4) . . ?
O2 C5 O1 128.6(4) . . ?
O2 C5 C6 115.5(4) . . ?
C13 C6 C5 123.8(4) . . ?
C15 C6 C5 120.3(4) . . ?
C15 C6 C13 115.8(4) . . ?
C10 C7 C9 121.8(4) . . ?
C10 C7 C16 114.4(4) . . ?
C16 C7 C9 123.8(4) . . ?
N2 C8 C11 117.6(4) . . ?
N2 C8 C14 123.1(5) . . ?
C14 C8 C11 119.3(5) . . ?
O5 C9 C7 117.8(4) . . ?
O6 C9 O5 125.5(4) . . ?
O6 C9 C7 116.7(4) . . ?
F4 C10 C7 121.0(4) . . ?
F4 C10 C15 116.1(4) . . ?
C15 C10 C7 122.9(5) . . ?
N1 C11 C8 117.9(4) . . ?
N1 C11 C22 122.6(5) . . ?
C22 C11 C8 119.5(5) . . ?
N1 C12 C24 123.3(5) . . ?
F6 C13 C6 119.3(4) . . ?
F6 C13 C16 118.7(4) . . ?
C6 C13 C16 122.0(5) . . ?
C8 C14 C17 117.2(5) . . ?
C8 C14 C18 119.6(5) . . ?
C17 C14 C18 123.2(5) . . ?
F3 C15 C6 119.9(4) . . ?
F3 C15 C10 117.9(4) . . ?
C6 C15 C10 122.1(4) . . ?
F5 C16 C7 120.9(4) . . ?
F5 C16 C13 116.3(4) . . ?
C13 C16 C7 122.8(5) . . ?
C23 C17 C14 119.7(5) . . ?
C21 C18 C14 120.9(5) . . ?
N2 C19 C23 123.2(5) . . ?
C24 C20 C22 120.0(5) . . ?
C18 C21 C22 121.5(5) . . ?
C11 C22 C21 119.2(5) . . ?
C20 C22 C11 117.6(5) . . ?
C20 C22 C21 123.2(5) . . ?
C17 C23 C19 119.4(5) . . ?
C20 C24 C12 118.8(5) . . ?
loop_
_geom_bond_atom_site_label_1
_geom_bond_atom_site_label_2
_geom_bond_distance
_geom_bond_site_symmetry_2
_geom_bond_publ_flag
Tb1 O1 2.346(3) 7_656 ?
Tb1 O2 2.347(3) . ?
Tb1 O3 2.323(3) . ?
Tb1 O4 2.435(3) 7_656 ?
Tb1 O5 2.362(3) 6_566 ?
Tb1 O7 2.359(3) . ?
Tb1 N1 2.598(4) . ?
Tb1 N2 2.547(4) . ?
O1 C5 1.250(6) . ?
F1 C3 1.344(5) . ?
F2 C2 1.349(5) . ?
O2 C5 1.241(6) . ?
O3 C4 1.254(5) . ?
O4 C4 1.242(6) . ?
O5 C9 1.244(5) . ?
O6 C9 1.241(6) . ?
F3 C15 1.345(5) . ?
F4 C10 1.343(6) . ?
F5 C16 1.337(6) . ?
C1 C2 1.377(6) . ?
C1 C3 1.376(6) . ?
C1 C4 1.516(6) . ?
F6 C13 1.338(6) . ?
C2 C2 1.383(9) 2_655 ?
C3 C3 1.376(9) 2_655 ?
N1 C11 1.351(6) . ?
N1 C12 1.336(6) . ?
N2 C8 1.370(7) . ?
N2 C19 1.322(6) . ?
C5 C6 1.521(6) . ?
C6 C13 1.375(7) . ?
C6 C15 1.370(7) . ?
C7 C9 1.518(6) . ?
C7 C10 1.381(7) . ?
C7 C16 1.385(7) . ?
C8 C11 1.442(7) . ?
C8 C14 1.397(7) . ?
C10 C15 1.380(7) . ?
C11 C22 1.411(7) . ?
C12 C24 1.400(7) . ?
C13 C16 1.378(7) . ?
C14 C17 1.406(8) . ?
C14 C18 1.444(7) . ?
C17 C23 1.358(8) . ?
C18 C21 1.332(8) . ?
C19 C23 1.397(7) . ?
C20 C22 1.398(8) . ?
C20 C24 1.361(7) . ?
C21 C22 1.430(7) . ?
