#------------------------------------------------------------------------------
#$Date: 2020-03-17 04:32:56 +0200 (Tue, 17 Mar 2020) $
#$Revision: 249423 $
#$URL: file:///home/coder/svn-repositories/cod/cif/7/24/01/7240134.cif $
#------------------------------------------------------------------------------
#
# This file is available in the Crystallography Open Database (COD),
# http://www.crystallography.net/
#
# All data on this site have been placed in the public domain by the
# contributors.
#
data_7240134
loop_
_publ_author_name
'Zhang, Yuanbin'
'Wang, Lingyao'
'Hu, Jianbo'
'Duttwyler, Simon'
'Cui, Xili'
'Xing, Huabin'
_publ_section_title
;
 Solvent dependant supramolecular self-assembly of boron cage pillared
 metal-organic frameworks for selective gas separation
;
_journal_name_full               CrystEngComm
_journal_paper_doi               10.1039/D0CE00142B
_journal_year                    2020
_chemical_formula_sum            'C20 H28 B12 Cu N8'
_chemical_formula_weight         573.76
_space_group_crystal_system      monoclinic
_space_group_IT_number           15
_space_group_name_Hall           '-C 2yc'
_space_group_name_H-M_alt        'C 1 2/c 1'
_atom_sites_solution_hydrogens   geom
_audit_creation_method           SHELXL-2018/3
_audit_update_record
;
2020-01-26 deposited with the CCDC.	2020-03-16 downloaded from the CCDC.
;
_cell_angle_alpha                90
_cell_angle_beta                 134.052(4)
_cell_angle_gamma                90
_cell_formula_units_Z            8
_cell_length_a                   28.360(3)
_cell_length_b                   16.0571(15)
_cell_length_c                   20.1217(19)
_cell_measurement_reflns_used    7643
_cell_measurement_temperature    193(2)
_cell_measurement_theta_max      56.90
_cell_measurement_theta_min      3.05
_cell_volume                     6585.5(12)
_computing_structure_refinement  'SHELXL-2018/3 (Sheldrick, 2018)'
_diffrn_ambient_temperature      193(2)
_diffrn_measured_fraction_theta_full 0.997
_diffrn_measured_fraction_theta_max 0.997
_diffrn_measurement_device_type  'BRUKER D8 VENTURE PHOTON II'
_diffrn_radiation_type           GaK\a
_diffrn_radiation_wavelength     1.34139
_diffrn_reflns_av_R_equivalents  0.09
_diffrn_reflns_av_unetI/netI     0.1335
_diffrn_reflns_Laue_measured_fraction_full 0.997
_diffrn_reflns_Laue_measured_fraction_max 0.997
_diffrn_reflns_limit_h_max       33
_diffrn_reflns_limit_h_min       -33
_diffrn_reflns_limit_k_max       19
_diffrn_reflns_limit_k_min       -19
_diffrn_reflns_limit_l_max       23
_diffrn_reflns_limit_l_min       -23
_diffrn_reflns_number            24884
_diffrn_reflns_point_group_measured_fraction_full 0.997
_diffrn_reflns_point_group_measured_fraction_max 0.997
_diffrn_reflns_theta_full        52.982
_diffrn_reflns_theta_max         52.982
_diffrn_reflns_theta_min         3.048
_exptl_absorpt_coefficient_mu    3.695
_exptl_absorpt_correction_T_max  0.3704
_exptl_absorpt_correction_T_min  0.2026
_exptl_absorpt_correction_type   multi-scan
_exptl_crystal_density_diffrn    1.157
_exptl_crystal_description       block
_exptl_crystal_F_000             2344
_exptl_crystal_size_max          0.200
_exptl_crystal_size_mid          0.200
_exptl_crystal_size_min          0.200
_refine_diff_density_max         2.553
_refine_diff_density_min         -1.076
_refine_diff_density_rms         0.140
_refine_ls_extinction_method     none
_refine_ls_goodness_of_fit_ref   1.078
_refine_ls_hydrogen_treatment    constr
_refine_ls_matrix_type           full
_refine_ls_number_parameters     371
_refine_ls_number_reflns         24884
_refine_ls_number_restraints     0
_refine_ls_restrained_S_all      1.078
_refine_ls_R_factor_all          0.1500
_refine_ls_R_factor_gt           0.1116
_refine_ls_shift/su_max          0.000
_refine_ls_shift/su_mean         0.000
_refine_ls_structure_factor_coef Fsqd
_refine_ls_weighting_details
'w=1/[\s^2^(Fo^2^)+(0.0810P)^2^+91.5696P] where P=(Fo^2^+2Fc^2^)/3'
_refine_ls_weighting_scheme      calc
_refine_ls_wR_factor_gt          0.2910
_refine_ls_wR_factor_ref         0.3138
_reflns_Friedel_coverage         0.000
_reflns_number_gt                15416
_reflns_number_total             24884
_reflns_threshold_expression     'I > 2\s(I)'
_cod_data_source_file            d0ce00142b2.cif
_cod_data_source_block           zybb8_0m_sq
_cod_original_cell_volume        6585.5(11)
_cod_original_sg_symbol_H-M      'C 2/c'
_cod_database_code               7240134
_shelx_shelxl_version_number     2018/3
_shelx_space_group_comment
;
The symmetry employed for this shelxl refinement is uniquely defined
by the following loop, which should always be used as a source of
symmetry information in preference to the above space-group names.
They are only intended as comments.
;
_shelx_estimated_absorpt_t_min   0.525
_shelx_estimated_absorpt_t_max   0.525
_shelx_res_file
;
TITL ZYBB8_0m_a.res in C2/c
    zybb8_0m_sq.res
    created by SHELXL-2018/3 at 23:04:59 on 20-Mar-2019
REM Old TITL ZYBB8_0m in C2/c
REM SHELXT solution in C2/c
REM R1 0.211,  Rweak 0.009,  Alpha 0.074,  Orientation as input
REM Formula found by SHELXT:  C24 B12 Cu N6
CELL  1.34139  28.3600  16.0571  20.1217   90.000  134.052   90.000
ZERR   8   0.0025   0.0015   0.0019    0.000    0.004    0.000
LATT  7
SYMM -X, Y, 1/2-Z
SFAC C B CU N H
UNIT 160 96 8 64 224
LIST 6 ! automatically inserted. Change 6 to 4 for CHECKCIF!!
TEMP -80.120
L.S. 5 0   33
TWIN 0.961 0 1.961 0 -1 0 0.039 0 -0.961
BOND $H
ACTA
FMAP 2
size 0.2 0.2 0.2
shel 999 0.84
PLAN 20
merg 0
ABIN
WGHT    0.081000   91.569603
BASF   0.20215
FVAR       0.25047
CU1   3    0.199315    0.499372    0.072293    11.00000    0.02816    0.01420 =
         0.02782   -0.00034    0.01944   -0.00057
B1    2    0.158176    0.424470    0.322700    11.00000    0.05963    0.02380 =
         0.04776   -0.00521    0.04588   -0.00330
AFIX 153
H1    5    0.131641    0.373959    0.324100    11.00000   -1.20000
AFIX   0
B10   2    0.151456    0.574621    0.238976    11.00000    0.05056    0.03655 =
         0.04224    0.01738    0.03840    0.01455
AFIX 153
H10   5    0.120279    0.623277    0.184066    11.00000   -1.20000
AFIX   0
B11   2    0.194772    0.499367    0.235322    11.00000    0.03920    0.02586 =
         0.03007   -0.00277    0.02835    0.00265
AFIX 153
H11   5    0.192625    0.498757    0.177602    11.00000   -1.20000
AFIX   0
B12   2    0.238200    0.577271    0.319710    11.00000    0.05347    0.02060 =
         0.04848   -0.01022    0.04103   -0.01803
AFIX 153
H12   5    0.264722    0.628284    0.318883    11.00000   -1.20000
AFIX   0
B9    2    0.197755    0.595643    0.357411    11.00000    0.05381    0.02554 =
         0.04208   -0.00110    0.04097    0.00271
AFIX 153
H9    5    0.197439    0.658341    0.381491    11.00000   -1.20000
AFIX   0
B8    2    0.269732    0.531844    0.424765    11.00000    0.04080    0.05097 =
         0.04298   -0.01127    0.02793   -0.00365
AFIX 153
H8    5    0.317453    0.552268    0.493799    11.00000   -1.20000
AFIX   0
B7    2    0.267516    0.472344    0.347778    11.00000    0.03793    0.04599 =
         0.03989   -0.00674    0.02889    0.00425
AFIX 153
H7    5    0.312906    0.453430    0.364759    11.00000   -1.20000
AFIX   0
B6    2    0.197556    0.406895    0.284985    11.00000    0.05635    0.03610 =
         0.04765   -0.00294    0.04435   -0.00096
AFIX 153
H6    5    0.196810    0.343863    0.260429    11.00000   -1.20000
AFIX   0
B5    2    0.126731    0.467530    0.217258    11.00000    0.03928    0.05765 =
         0.02956   -0.00834    0.02836   -0.01072
AFIX 153
H5    5    0.079632    0.445221    0.148628    11.00000   -1.20000
AFIX   0
B4    2    0.129819    0.529638    0.294421    11.00000    0.03965    0.05356 =
         0.04038    0.01440    0.03402    0.01296
AFIX 153
H4    5    0.084062    0.548689    0.276389    11.00000   -1.20000
AFIX   0
B3    2    0.245500    0.427059    0.403891    11.00000    0.05116    0.03416 =
         0.04628    0.00397    0.03941    0.01089
AFIX 153
H3    5    0.276651    0.378230    0.458588    11.00000   -1.20000
AFIX   0
B2    2    0.202688    0.504396    0.408178    11.00000    0.03616    0.02125 =
         0.02731   -0.00267    0.02436    0.00160
AFIX 153
H2    5    0.205594    0.506819    0.466576    11.00000   -1.20000
AFIX   0
RESI 1
N1    4    0.629715    0.090025    0.504493    11.00000    0.02848    0.01852 =
         0.03387    0.00068    0.02250    0.00033
C1    1    0.626169    0.144223    0.448448    11.00000    0.03392    0.02968 =
         0.03977    0.01270    0.02714    0.00958
AFIX  43
H1    5    0.661042    0.145908    0.451328    11.00000   -1.20000
AFIX   0
N2    4    0.468045    0.246055    0.316661    11.00000    0.04463    0.04154 =
         0.03765    0.00600    0.03152    0.00199
C2    1    0.573704    0.195637    0.388792    11.00000    0.04574    0.04230 =
         0.03672    0.01194    0.03356    0.00737
AFIX  43
H2    5    0.572086    0.232180    0.350112    11.00000   -1.20000
AFIX   0
N3    4    0.435461    0.261405    0.335014    11.00000    0.03970    0.03184 =
         0.04591    0.00109    0.03333    0.00314
C3    1    0.524065    0.194952    0.384337    11.00000    0.03237    0.03094 =
         0.03569    0.00465    0.02292    0.01132
N4    4    0.270517    0.413258    0.143130    11.00000    0.02934    0.02490 =
         0.02008    0.00166    0.01791    0.00261
C5    1    0.581414    0.089677    0.499752    11.00000    0.03786    0.02793 =
         0.03282    0.00639    0.02898    0.00576
AFIX  43
H5    5    0.583966    0.052501    0.538891    11.00000   -1.20000
AFIX   0
C6    1    0.378654    0.312108    0.263572    11.00000    0.03280    0.02279 =
         0.02882    0.00593    0.02089    0.00366
C7    1    0.374782    0.367256    0.207136    11.00000    0.03487    0.03680 =
         0.03857    0.00447    0.02794    0.00459
AFIX  43
H7    5    0.409371    0.370797    0.209515    11.00000   -1.20000
AFIX   0
C8    1    0.321054    0.416056    0.148528    11.00000    0.02759    0.04964 =
         0.03501    0.00377    0.02062    0.00381
AFIX  43
H8    5    0.318487    0.453693    0.109678    11.00000   -1.20000
AFIX   0
C9    1    0.272378    0.359633    0.193498    11.00000    0.03464    0.02864 =
         0.03293    0.00121    0.02379    0.00184
AFIX  43
H9    5    0.235844    0.355631    0.186837    11.00000   -1.20000
AFIX   0
C10   1    0.326978    0.307328    0.257622    11.00000    0.05022    0.02351 =
         0.04816    0.00768    0.03772    0.00500
AFIX  43
H10   5    0.328318    0.270002    0.295540    11.00000   -1.20000
AFIX   0
C4    1    0.526823    0.140202    0.441158    11.00000    0.03659    0.04270 =
         0.04234    0.00868    0.03223    0.00637
AFIX  43
H4    5    0.492521    0.137919    0.439454    11.00000   -1.20000
AFIX   0
RESI 0
RESI 2
N1    4    0.628769    0.912865    0.500506    11.00000    0.02650    0.02611 =
         0.02201    0.00603    0.01703    0.00224
C1    1    0.577045    0.918921    0.408480    11.00000    0.03485    0.03137 =
         0.02793   -0.00438    0.02151   -0.00344
AFIX  43
H1    5    0.578015    0.959920    0.375405    11.00000   -1.20000
AFIX   0
N2    4    0.466551    0.755659    0.366219    11.00000    0.04312    0.03397 =
         0.03351   -0.00547    0.02413   -0.01001
C2    1    0.522673    0.868067    0.360173    11.00000    0.03505    0.03398 =
         0.02735   -0.00163    0.02300   -0.00522
AFIX  43
H2    5    0.486424    0.874729    0.295452    11.00000   -1.20000
AFIX   0
N3    4    0.434822    0.742218    0.283996    11.00000    0.03808    0.03177 =
         0.03463   -0.00029    0.02416   -0.00200
C3    1    0.522331    0.806984    0.408574    11.00000    0.03074    0.02681 =
         0.03503   -0.00469    0.02452   -0.00594
N4    4    0.269691    0.587327    0.142341    11.00000    0.03077    0.01820 =
         0.02844   -0.00254    0.02171    0.00077
C5    1    0.626606    0.851662    0.545613    11.00000    0.03550    0.02804 =
         0.02965   -0.00363    0.02005   -0.00575
AFIX  43
H5    5    0.663634    0.844389    0.609981    11.00000   -1.20000
AFIX   0
C6    1    0.377747    0.689305    0.240160    11.00000    0.03098    0.02185 =
         0.03179   -0.00558    0.01952   -0.00752
C7    1    0.370463    0.635724    0.286851    11.00000    0.03833    0.04225 =
         0.02715   -0.00308    0.02261   -0.00483
AFIX  43
H7    5    0.402463    0.633708    0.352499    11.00000   -1.20000
AFIX   0
C8    1    0.317415    0.587310    0.237056    11.00000    0.03210    0.03807 =
         0.02589   -0.00099    0.02115   -0.00797
AFIX  43
H8    5    0.312416    0.550799    0.268960    11.00000   -1.20000
AFIX   0
C9    1    0.275096    0.639073    0.098391    11.00000    0.04208    0.02055 =
         0.03123    0.00120    0.02611   -0.00062
AFIX  43
H9    5    0.241137    0.641129    0.032816    11.00000   -1.20000
AFIX   0
C10   1    0.330192    0.692899    0.145083    11.00000    0.04138    0.03205 =
         0.03506   -0.00128    0.02438   -0.00943
AFIX  43
H10   5    0.333947    0.729708    0.111997    11.00000   -1.20000
AFIX   0
C4    1    0.574568    0.801270    0.503213    11.00000    0.04960    0.02642 =
         0.03765   -0.00092    0.03243   -0.00690
AFIX  43
H4    5    0.573772    0.762270    0.537926    11.00000   -1.20000
RESI 0
AFIX   0
HKLF 4




REM  ZYBB8_0m_a.res in C2/c
REM wR2 = 0.313842, GooF = S = 1.07849, Restrained GooF = 1.07849 for all data
REM R1 = 0.111611 for 15416 Fo > 4sig(Fo) and 0.150048 for all 24884 data
REM 371 parameters refined using 0 restraints

END

WGHT      0.1319     79.3477

REM Highest difference peak  2.553,  deepest hole -1.076,  1-sigma level  0.140
Q1    1   0.2485  0.4991  0.1306  11.00000  0.05    2.55
Q2    1   0.1511  0.5008  0.0260  11.00000  0.05    2.40
Q3    1   0.2215  0.6262  0.0483  11.00000  0.05    0.74
Q4    1   0.2197  0.3667  0.1419  11.00000  0.05    0.68
Q5    1   0.3240  0.3519  0.1486  11.00000  0.05    0.66
Q6    1   0.1504  0.5922  0.3089  11.00000  0.05    0.66
Q7    1   0.3224  0.6445  0.2410  11.00000  0.05    0.66
Q8    1   0.3161  0.4122  0.1925  11.00000  0.05    0.62
Q9    1   0.2948  0.5529  0.3882  11.00000  0.05    0.57
Q10   1   0.6750  0.9183  0.5481  11.00000  0.05    0.56
Q11   1   0.6781  0.0998  0.5724  11.00000  0.05    0.56
Q12   1   0.4818  0.2614  0.3868  11.00000  0.05    0.56
Q13   1   0.5841  0.0862  0.4575  11.00000  0.05    0.55
Q14   1   0.5811  0.8505  0.5106  11.00000  0.05    0.52
Q15   1   0.2212  0.4182  0.1012  11.00000  0.05    0.52
Q16   1   0.4187  0.7482  0.3209  11.00000  0.05    0.49
Q17   1   0.2888  0.4611  0.4702  11.00000  0.05    0.49
Q18   1   0.2395  0.3113  0.0902  11.00000  0.05    0.48
Q19   1   0.7014  0.2117  0.5503  11.00000  0.05    0.48
Q20   1   0.1762  0.4683  0.2600  11.00000  0.05    0.47
;
_shelx_res_checksum              6957
_shelx_fab_file
;
    2    0    0    199.96      0.00
    4    0    0     68.80      0.00
    6    0    0     -6.07      0.00
    8    0    0    -32.57      0.00
   10    0    0    -39.63      0.00
   12    0    0    -32.24      0.00
   14    0    0    -18.05      0.00
   16    0    0     -6.14      0.00
   18    0    0      1.96      0.00
   20    0    0      0.86      0.00
   22    0    0     -3.21      0.00
   24    0    0     -2.40      0.00
    1    1    0    216.06      0.00
    3    1    0    117.80      0.00
    5    1    0     24.94      0.00
    7    1    0    -18.23      0.00
    9    1    0    -34.50      0.00
   11    1    0    -35.70      0.00
   13    1    0    -23.94      0.00
   15    1    0    -10.98      0.00
   17    1    0     -1.13      0.00
   19    1    0      2.52      0.00
   21    1    0     -0.42      0.00
   23    1    0     -1.99      0.00
   25    1    0     -1.08      0.00
    4    2    0     50.13      0.00
    6    2    0      5.42      0.00
    8    2    0    -17.58      0.00
   10    2    0    -29.10      0.00
   12    2    0    -25.69      0.00
   14    2    0    -14.98      0.00
   16    2    0     -5.11      0.00
   18    2    0      1.35      0.00
   20    2    0      2.76      0.00
   22    2    0      1.23      0.00
   24    2    0      0.39      0.00
    1    3    0     58.94      0.00
    5    3    0     15.08      0.00
    7    3    0      0.16      0.00
    9    3    0    -12.79      0.00
   11    3    0    -17.88      0.00
   13    3    0    -15.13      0.00
   15    3    0     -8.95      0.00
   17    3    0     -2.51      0.00
   19    3    0      2.58      0.00
   21    3    0      4.15      0.00
   23    3    0      2.90      0.00
   25    3    0      1.26      0.00
    0    4    0     15.56      0.00
    2    4    0     12.37      0.00
    4    4    0      8.27      0.00
    6    4    0      3.84      0.00
    8    4    0     -0.62      0.00
   10    4    0     -4.55      0.00
   12    4    0     -8.19      0.00
   14    4    0     -8.49      0.00
   16    4    0     -5.81      0.00
   18    4    0     -1.55      0.00
   20    4    0      3.72      0.00
   22    4    0      5.24      0.00
   24    4    0      2.49      0.00
    1    5    0    -14.77      0.00
    3    5    0     -2.07      0.00
    5    5    0      4.61      0.00
    7    5    0      3.30      0.00
    9    5    0      3.72      0.00
   11    5    0     -0.14      0.00
   13    5    0     -4.16      0.00
   15    5    0     -4.64      0.00
   17    5    0     -4.06      0.00
   19    5    0     -0.53      0.00
   21    5    0      4.99      0.00
   23    5    0      4.34      0.00
    0    6    0    -39.46      0.00
    2    6    0    -24.24      0.00
    4    6    0     -0.81      0.00
    6    6    0      8.03      0.00
    8    6    0      8.32      0.00
   10    6    0      4.92      0.00
   12    6    0     -0.35      0.00
   14    6    0     -2.21      0.00
   16    6    0     -2.94      0.00
   18    6    0     -2.90      0.00
   20    6    0      1.48      0.00
   22    6    0      4.88      0.00
   24    6    0      1.76      0.00
    1    7    0    -42.62      0.00
    3    7    0    -17.92      0.00
    5    7    0      2.74      0.00
    7    7    0      9.30      0.00
    9    7    0      7.88      0.00
   11    7    0      3.83      0.00
   13    7    0      0.24      0.00
   15    7    0     -1.40      0.00
   17    7    0     -3.06      0.00
   19    7    0     -1.36      0.00
   21    7    0      2.82      0.00
   23    7    0      3.10      0.00
    0    8    0    -38.31      0.00
    2    8    0    -26.61      0.00
    4    8    0     -7.87      0.00
    6    8    0      1.08      0.00
    8    8    0      4.43      0.00
   10    8    0      5.72      0.00
   12    8    0      3.54      0.00
   14    8    0      0.97      0.00
   16    8    0     -1.37      0.00
   18    8    0     -2.68      0.00
   20    8    0     -0.20      0.00
   22    8    0      1.97      0.00
    1    9    0    -18.51      0.00
    3    9    0    -10.63      0.00
    5    9    0     -4.91      0.00
    7    9    0     -1.88      0.00
    9    9    0      1.90      0.00
   11    9    0      3.28      0.00
   13    9    0      2.43      0.00
   15    9    0      1.61      0.00
   17    9    0     -0.55      0.00
   19    9    0     -2.07      0.00
   21    9    0     -0.68      0.00
    0   10    0     -5.25      0.00
    2   10    0     -5.34      0.00
    4   10    0     -4.70      0.00
    6   10    0     -2.90      0.00
    8   10    0     -0.89      0.00
   10   10    0      0.04      0.00
   12   10    0      0.98      0.00
   14   10    0      2.23      0.00
   16   10    0      1.78      0.00
   18   10    0     -1.02      0.00
   20   10    0     -1.92      0.00
   22   10    0     -2.06      0.00
    1   11    0     -0.79      0.00
    3   11    0     -1.52      0.00
    5   11    0     -1.50      0.00
    7   11    0     -0.77      0.00
    9   11    0     -0.92      0.00
   11   11    0     -0.54      0.00
   13   11    0      1.59      0.00
   15   11    0      1.50      0.00
   17   11    0     -0.84      0.00
   19   11    0     -1.47      0.00
   21   11    0     -1.57      0.00
    0   12    0      0.57      0.00
    2   12    0     -0.52      0.00
    4   12    0     -1.36      0.00
    6   12    0     -0.50      0.00
    8   12    0     -0.61      0.00
   10   12    0     -0.82      0.00
   12   12    0      1.11      0.00
   14   12    0      1.90      0.00
   16   12    0     -1.00      0.00
   18   12    0     -1.67      0.00
   20   12    0     -1.20      0.00
    1   13    0      1.19      0.00
    3   13    0     -2.83      0.00
    5   13    0     -2.18      0.00
    7   13    0     -0.29      0.00
    9   13    0     -1.08      0.00
   11   13    0     -0.03      0.00
   13   13    0      2.10      0.00
   15   13    0      1.30      0.00
   17   13    0     -0.52      0.00
   19   13    0     -1.50      0.00
    0   14    0      0.81      0.00
    2   14    0     -1.52      0.00
    4   14    0     -3.41      0.00
    6   14    0     -1.96      0.00
    8   14    0     -1.85      0.00
   10   14    0     -1.61      0.00
   12   14    0      1.15      0.00
   14   14    0      2.42      0.00
   16   14    0      2.28      0.00
   18   14    0     -0.33      0.00
    1   15    0     -1.90      0.00
    3   15    0     -2.20      0.00
    5   15    0     -2.77      0.00
    7   15    0     -3.61      0.00
    9   15    0     -3.50      0.00
   11   15    0     -0.74      0.00
   13   15    0      1.62      0.00
   15   15    0      2.50      0.00
    0   16    0     -1.99      0.00
    2   16    0     -1.80      0.00
    4   16    0     -2.03      0.00
    6   16    0     -3.68      0.00
    8   16    0     -4.42      0.00
   10   16    0     -2.89      0.00
   12   16    0     -1.05      0.00
   14   16    0      1.12      0.00
    1   17    0     -0.94      0.00
    3   17    0     -0.43      0.00
    5   17    0     -1.85      0.00
    7   17    0     -3.40      0.00
    9   17    0     -2.85      0.00
   11   17    0     -3.16      0.00
   13   17    0     -1.53      0.00
    0   18    0     -1.34      0.00
    2   18    0      0.17      0.00
    4   18    0      0.81      0.00
    6   18    0     -0.76      0.00
    8   18    0     -1.33      0.00
   10   18    0     -2.12      0.00
    1   19    0     -1.73      0.00
    3   19    0      0.51      0.00
    5   19    0      1.20      0.00
    7   19    0      0.72      0.00
    0   20    0     -3.23      0.00
  -25    1    1      1.40      0.00
  -23    1    1      1.64      0.00
  -21    1    1     -0.21      0.00
  -19    1    1     -1.71      0.00
  -17    1    1     -2.60      0.00
  -15    1    1     -2.04      0.00
  -13    1    1     -0.92      0.00
  -11    1    1      0.93      0.00
   -9    1    1      1.37      0.00
   -7    1    1      2.03      0.00
   -5    1    1      2.89      0.00
   -3    1    1      1.51      0.00
   -1    1    1     -4.18      0.00
    1    1    1     -7.11      0.00
    3    1    1      4.79      0.00
    5    1    1      8.02      0.00
    7    1    1      4.48      0.00
    9    1    1      2.88      0.00
   11    1    1     -0.54      0.00
   13    1    1     -2.77      0.00
   15    1    1     -2.66      0.00
   17    1    1     -1.57      0.00
   19    1    1     -0.72      0.00
   21    1    1      0.28      0.00
   23    1    1     -0.36      0.00
  -26    2    1      0.87      0.00
  -24    2    1      3.12      0.00
  -22    2    1      1.30      0.00
  -20    2    1     -2.12      0.00
  -18    2    1     -4.29      0.00
  -16    2    1     -4.80      0.00
  -14    2    1     -3.28      0.00
  -12    2    1     -0.33      0.00
  -10    2    1      2.44      0.00
   -8    2    1      5.36      0.00
   -6    2    1      9.01      0.00
   -4    2    1      3.89      0.00
   -2    2    1     -3.54      0.00
    0    2    1     -1.13      0.00
    2    2    1      9.39      0.00
    4    2    1     12.77      0.00
    6    2    1      7.16      0.00
    8    2    1      4.81      0.00
   10    2    1      1.76      0.00
   12    2    1     -3.24      0.00
   14    2    1     -5.44      0.00
   16    2    1     -4.20      0.00
   18    2    1     -2.19      0.00
   20    2    1      0.22      0.00
   22    2    1      0.14      0.00
   24    2    1     -1.77      0.00
  -25    3    1      2.05      0.00
  -23    3    1      2.85      0.00
  -21    3    1     -0.54      0.00
  -19    3    1     -4.75      0.00
  -17    3    1     -6.57      0.00
  -15    3    1     -5.69      0.00
  -13    3    1     -2.27      0.00
  -11    3    1      1.90      0.00
   -9    3    1      6.55      0.00
   -7    3    1     11.79      0.00
   -5    3    1     11.64      0.00
   -3    3    1      2.47      0.00
   -1    3    1      1.72      0.00
    1    3    1     16.87      0.00
    3    3    1     20.03      0.00
    5    3    1     10.92      0.00
    7    3    1      4.51      0.00
    9    3    1      2.68      0.00
   11    3    1     -1.80      0.00
   13    3    1     -6.63      0.00
   15    3    1     -6.15      0.00
   17    3    1     -4.04      0.00
   19    3    1     -1.18      0.00
   21    3    1      1.09      0.00
   23    3    1     -0.41      0.00
  -24    4    1      2.03      0.00
  -22    4    1      1.60      0.00
  -20    4    1     -2.80      0.00
  -18    4    1     -6.63      0.00
  -16    4    1     -6.72      0.00
  -14    4    1     -4.00      0.00
  -12    4    1      0.61      0.00
  -10    4    1      5.28      0.00
   -8    4    1     10.36      0.00
   -6    4    1     13.28      0.00
   -4    4    1     12.98      0.00
   -2    4    1      6.72      0.00
    0    4    1      9.54      0.00
    2    4    1     19.23      0.00
    4    4    1     16.86      0.00
    6    4    1      7.64      0.00
    8    4    1      2.71      0.00
   10    4    1     -0.46      0.00
   12    4    1     -6.51      0.00
   14    4    1     -7.15      0.00
   16    4    1     -4.38      0.00
   18    4    1     -2.30      0.00
   20    4    1      0.51      0.00
   22    4    1      1.70      0.00
  -25    5    1      1.04      0.00
  -23    5    1      2.05      0.00
  -21    5    1      0.48      0.00
  -19    5    1     -3.62      0.00
  -17    5    1     -5.79      0.00
  -15    5    1     -5.32      0.00
  -13    5    1     -1.57      0.00
  -11    5    1      3.11      0.00
   -9    5    1      7.07      0.00
   -7    5    1     12.29      0.00
   -5    5    1     15.51      0.00
   -3    5    1     10.83      0.00
   -1    5    1      4.64      0.00
    1    5    1      7.22      0.00
    3    5    1     12.31      0.00
    5    5    1      8.75      0.00
    7    5    1      3.95      0.00
    9    5    1      0.50      0.00
   11    5    1     -5.01      0.00
   13    5    1     -6.84      0.00
   15    5    1     -3.83      0.00
   17    5    1     -1.66      0.00
   19    5    1      0.14      0.00
   21    5    1      1.55      0.00
   23    5    1      0.96      0.00
  -24    6    1      1.52      0.00
  -22    6    1      2.53      0.00
  -20    6    1      1.14      0.00
  -18    6    1     -1.83      0.00
  -16    6    1     -4.82      0.00
  -14    6    1     -4.03      0.00
  -12    6    1      0.77      0.00
  -10    6    1      5.02      0.00
   -8    6    1      8.46      0.00
   -6    6    1     13.74      0.00
   -4    6    1     10.97      0.00
   -2    6    1      4.05      0.00
    0    6    1      2.61      0.00
    2    6    1      4.30      0.00
    4    6    1      3.06      0.00
    6    6    1      0.89      0.00
    8    6    1     -0.38      0.00
   10    6    1     -4.28      0.00
   12    6    1     -5.24      0.00
   14    6    1     -1.94      0.00
   16    6    1      0.36      0.00
   18    6    1      0.38      0.00
   20    6    1      0.19      0.00
   22    6    1     -0.49      0.00
  -23    7    1      1.92      0.00
  -21    7    1      3.75      0.00
  -19    7    1      3.18      0.00
  -17    7    1     -0.63      0.00
  -15    7    1     -3.20      0.00
  -13    7    1     -1.17      0.00
  -11    7    1      3.41      0.00
   -9    7    1      5.70      0.00
   -7    7    1      6.64      0.00
   -5    7    1      8.26      0.00
   -3    7    1      7.61      0.00
   -1    7    1      5.48      0.00
    1    7    1      3.17      0.00
    3    7    1     -0.52      0.00
    5    7    1     -3.51      0.00
    7    7    1     -3.93      0.00
    9    7    1     -4.90      0.00
   11    7    1     -4.80      0.00
   13    7    1     -0.80      0.00
   15    7    1      2.67      0.00
   17    7    1      1.97      0.00
   19    7    1     -1.35      0.00
   21    7    1     -3.28      0.00
  -24    8    1     -0.70      0.00
  -22    8    1      2.18      0.00
  -20    8    1      5.01      0.00
  -18    8    1      4.32      0.00
  -16    8    1      1.87      0.00
  -14    8    1      0.49      0.00
  -12    8    1      1.47      0.00
  -10    8    1      2.36      0.00
   -8    8    1      1.94      0.00
   -6    8    1      2.60      0.00
   -4    8    1      6.61      0.00
   -2    8    1      9.37      0.00
    0    8    1      7.51      0.00
    2    8    1      1.17      0.00
    4    8    1     -5.06      0.00
    6    8    1     -6.22      0.00
    8    8    1     -4.76      0.00
   10    8    1     -3.50      0.00
   12    8    1     -1.02      0.00
   14    8    1      2.08      0.00
   16    8    1      2.69      0.00
   18    8    1     -0.81      0.00
   20    8    1     -5.16      0.00
   22    8    1     -4.52      0.00
  -23    9    1     -0.63      0.00
  -21    9    1      3.18      0.00
  -19    9    1      6.10      0.00
  -17    9    1      5.87      0.00
  -15    9    1      3.61      0.00
  -13    9    1      1.69      0.00
  -11    9    1     -0.23      0.00
   -9    9    1     -1.89      0.00
   -7    9    1      0.03      0.00
   -5    9    1      2.88      0.00
   -3    9    1      5.18      0.00
   -1    9    1      7.80      0.00
    1    9    1      5.48      0.00
    3    9    1     -2.71      0.00
    5    9    1     -6.78      0.00
    7    9    1     -4.61      0.00
    9    9    1     -1.54      0.00
   11    9    1      0.28      0.00
   13    9    1      1.41      0.00
   15    9    1      1.42      0.00
   17    9    1     -0.75      0.00
   19    9    1     -4.51      0.00
   21    9    1     -5.30      0.00
  -22   10    1      1.28      0.00
  -20   10    1      5.05      0.00
  -18   10    1      6.83      0.00
  -16   10    1      3.89      0.00
  -14   10    1      1.23      0.00
  -12   10    1     -0.28      0.00
  -10   10    1     -2.66      0.00
   -8   10    1     -2.55      0.00
   -6   10    1      0.01      0.00
   -4   10    1      1.21      0.00
   -2   10    1      2.84      0.00
    0   10    1      3.88      0.00
    2   10    1      0.38      0.00
    4   10    1     -3.96      0.00
    6   10    1     -4.31      0.00
    8   10    1     -2.15      0.00
   10   10    1      0.42      0.00
   12   10    1      2.05      0.00
   14   10    1      2.08      0.00
   16   10    1     -0.38      0.00
   18   10    1     -3.62      0.00
   20   10    1     -4.23      0.00
  -21   11    1      3.33      0.00
  -19   11    1      5.67      0.00
  -17   11    1      3.96      0.00
  -15   11    1     -0.15      0.00
  -13   11    1     -1.14      0.00
  -11   11    1     -1.94      0.00
   -9   11    1     -2.93      0.00
   -7   11    1     -2.74      0.00
   -5   11    1     -1.16      0.00
   -3   11    1      0.40      0.00
   -1   11    1      1.07      0.00
    1   11    1      0.35      0.00
    3   11    1     -1.68      0.00
    5   11    1     -2.94      0.00
    7   11    1     -2.15      0.00
    9   11    1     -0.76      0.00
   11   11    1      1.16      0.00
   13   11    1      2.67      0.00
   15   11    1      1.70      0.00
   17   11    1     -1.32      0.00
   19   11    1     -2.29      0.00
  -20   12    1      3.66      0.00
  -18   12    1      3.80      0.00
  -16   12    1      1.53      0.00
  -14   12    1     -1.49      0.00
  -12   12    1     -2.61      0.00
  -10   12    1     -3.02      0.00
   -8   12    1     -3.33      0.00
   -6   12    1     -2.15      0.00
   -4   12    1     -1.30      0.00
   -2   12    1     -1.02      0.00
    0   12    1      0.70      0.00
    2   12    1      0.34      0.00
    4   12    1     -2.58      0.00
    6   12    1     -2.36      0.00
    8   12    1      0.21      0.00
   10   12    1      1.25      0.00
   12   12    1      2.01      0.00
   14   12    1      2.20      0.00
   16   12    1      1.13      0.00
   18   12    1      0.45      0.00
  -19   13    1      3.10      0.00
  -17   13    1      2.94      0.00
  -15   13    1      0.52      0.00
  -13   13    1     -2.96      0.00
  -11   13    1     -3.13      0.00
   -9   13    1     -2.90      0.00
   -7   13    1     -2.38      0.00
   -5   13    1     -2.19      0.00
   -3   13    1     -2.91      0.00
   -1   13    1     -1.60      0.00
    1   13    1      0.85      0.00
    3   13    1      0.14      0.00
    5   13    1     -1.96      0.00
    7   13    1     -0.65      0.00
    9   13    1      2.08      0.00
   11   13    1      2.68      0.00
   13   13    1      2.41      0.00
   15   13    1      1.79      0.00
   17   13    1      1.79      0.00
  -18   14    1      2.97      0.00
  -16   14    1      1.05      0.00
  -14   14    1     -1.96      0.00
  -12   14    1     -2.54      0.00
  -10   14    1     -1.67      0.00
   -8   14    1     -1.76      0.00
   -6   14    1     -2.70      0.00
   -4   14    1     -3.35      0.00
   -2   14    1     -3.09      0.00
    0   14    1     -1.91      0.00
    2   14    1      0.48      0.00
    4   14    1      1.21      0.00
    6   14    1     -0.36      0.00
    8   14    1      0.00      0.00
   10   14    1      2.07      0.00
   12   14    1      2.78      0.00
   14   14    1      2.28      0.00
   16   14    1      1.94      0.00
  -17   15    1      0.27      0.00
  -15   15    1     -1.68      0.00
  -13   15    1     -0.54      0.00
  -11   15    1     -0.34      0.00
   -9   15    1     -0.81      0.00
   -7   15    1     -1.88      0.00
   -5   15    1     -2.32      0.00
   -3   15    1     -1.81      0.00
   -1   15    1     -1.77      0.00
    1   15    1     -1.01      0.00
    3   15    1      0.95      0.00
    5   15    1      1.51      0.00
    7   15    1      0.10      0.00
    9   15    1      0.09      0.00
   11   15    1      1.01      0.00
   13   15    1      0.85      0.00
   15   15    1      1.87      0.00
  -16   16    1     -1.98      0.00
  -14   16    1      0.80      0.00
  -12   16    1      2.08      0.00
  -10   16    1      0.60      0.00
   -8   16    1     -0.58      0.00
   -6   16    1     -0.95      0.00
   -4   16    1      0.84      0.00
   -2   16    1      1.66      0.00
    0   16    1     -0.15      0.00
    2   16    1     -0.83      0.00
    4   16    1      0.92      0.00
    6   16    1      1.48      0.00
    8   16    1      0.55      0.00
   10   16    1     -0.18      0.00
   14   16    1     -0.35      0.00
  -13   17    1      2.48      0.00
  -11   17    1      2.73      0.00
   -9   17    1      1.98      0.00
   -7   17    1      1.11      0.00
   -5   17    1      1.45      0.00
   -3   17    1      3.38      0.00
   -1   17    1      2.01      0.00
    1   17    1     -1.29      0.00
    3   17    1     -0.21      0.00
    5   17    1      1.63      0.00
    7   17    1      0.87      0.00
    9   17    1     -0.28      0.00
   11   17    1     -1.74      0.00
  -12   18    1      1.66      0.00
  -10   18    1      3.49      0.00
   -8   18    1      4.18      0.00
   -6   18    1      3.27      0.00
   -4   18    1      1.38      0.00
   -2   18    1      0.43      0.00
    0   18    1     -0.80      0.00
    2   18    1     -0.43      0.00
    4   18    1      1.20      0.00
    6   18    1      0.12      0.00
    8   18    1     -1.64      0.00
   10   18    1     -1.71      0.00
   -9   19    1      4.13      0.00
   -7   19    1      4.88      0.00
   -5   19    1      1.83      0.00
   -3   19    1     -1.85      0.00
   -1   19    1     -2.43      0.00
    1   19    1     -0.65      0.00
    3   19    1      0.92      0.00
    5   19    1     -0.12      0.00
    7   19    1     -2.81      0.00
   -2   20    1     -1.94      0.00
    0   20    1     -1.50      0.00
  -26    0    2      0.77      0.00
  -24    0    2     -0.48      0.00
  -22    0    2     -0.09      0.00
  -20    0    2      7.08      0.00
  -18    0    2     13.87      0.00
  -16    0    2     12.56      0.00
  -14    0    2      6.53      0.00
  -12    0    2     -9.10      0.00
  -10    0    2    -34.24      0.00
   -8    0    2    -71.04      0.00
   -6    0    2   -107.69      0.00
   -4    0    2    -93.34      0.00
   -2    0    2     -5.27      0.00
    0    0    2     82.69      0.00
    2    0    2     94.96      0.00
    4    0    2     66.87      0.00
    6    0    2     38.29      0.00
    8    0    2     14.44      0.00
   10    0    2     -4.20      0.00
   12    0    2    -11.17      0.00
   14    0    2     -8.28      0.00
   16    0    2     -2.23      0.00
   18    0    2      3.81      0.00
   20    0    2      3.12      0.00
   22    0    2     -0.77      0.00
  -27    1    2      0.05      0.00
  -25    1    2      0.65      0.00
  -23    1    2     -0.62      0.00
  -21    1    2      2.55      0.00
  -19    1    2     10.34      0.00
  -17    1    2     13.29      0.00
  -15    1    2      9.96      0.00
  -13    1    2     -0.38      0.00
  -11    1    2    -21.07      0.00
   -9    1    2    -48.22      0.00
   -7    1    2    -77.98      0.00
   -5    1    2    -89.58      0.00
   -3    1    2    -47.73      0.00
   -1    1    2     34.83      0.00
    1    1    2     84.11      0.00
    3    1    2     74.42      0.00
    5    1    2     47.65      0.00
    7    1    2     25.29      0.00
    9    1    2      4.45      0.00
   11    1    2     -8.78      0.00
   13    1    2     -9.98      0.00
   15    1    2     -5.79      0.00
   17    1    2      0.23      0.00
   19    1    2      3.48      0.00
   21    1    2      1.15      0.00
   23    1    2     -1.45      0.00
  -26    2    2      0.25      0.00
  -24    2    2      0.40      0.00
  -22    2    2      0.41      0.00
  -20    2    2      5.23      0.00
  -18    2    2      9.96      0.00
  -16    2    2     10.28      0.00
  -14    2    2      4.25      0.00
  -12    2    2     -9.82      0.00
  -10    2    2    -29.33      0.00
   -8    2    2    -43.50      0.00
   -6    2    2    -50.66      0.00
   -4    2    2    -43.36      0.00
   -2    2    2     -7.30      0.00
    0    2    2     37.33      0.00
    2    2    2     56.19      0.00
    4    2    2     44.62      0.00
    6    2    2     30.30      0.00
    8    2    2     14.56      0.00
   10    2    2     -1.56      0.00
   12    2    2     -8.46      0.00
   14    2    2     -7.99      0.00
   16    2    2     -4.14      0.00
   18    2    2     -0.12      0.00
   20    2    2      1.34      0.00
   22    2    2     -0.04      0.00
  -27    3    2     -0.83      0.00
  -25    3    2     -0.26      0.00
  -23    3    2      0.24      0.00
  -21    3    2      2.60      0.00
  -19    3    2      5.60      0.00
  -17    3    2      6.64      0.00
  -15    3    2      4.33      0.00
  -13    3    2     -2.75      0.00
  -11    3    2    -12.83      0.00
   -9    3    2    -20.42      0.00
   -7    3    2    -22.27      0.00
   -5    3    2    -22.06      0.00
   -3    3    2    -11.10      0.00
   -1    3    2      6.24      0.00
    1    3    2     20.22      0.00
    3    3    2     25.64      0.00
    5    3    2     23.59      0.00
    7    3    2     17.93      0.00
    9    3    2      7.41      0.00
   11    3    2     -1.87      0.00
   13    3    2     -6.42      0.00
   15    3    2     -6.30      0.00
   17    3    2     -4.21      0.00
   19    3    2     -1.72      0.00
   21    3    2     -0.06      0.00
   23    3    2      0.27      0.00
  -26    4    2     -1.53      0.00
  -24    4    2     -0.67      0.00
  -22    4    2      2.23      0.00
  -20    4    2      3.73      0.00
  -18    4    2      3.35      0.00
  -16    4    2      1.54      0.00
  -14    4    2     -1.63      0.00
  -12    4    2     -3.89      0.00
  -10    4    2     -5.32      0.00
   -8    4    2     -7.02      0.00
   -6    4    2     -6.06      0.00
   -4    4    2     -2.44      0.00
   -2    4    2     -0.75      0.00
    0    4    2      0.50      0.00
    2    4    2      4.02      0.00
    4    4    2      9.22      0.00
    6    4    2     10.64      0.00
    8    4    2      9.26      0.00
   10    4    2      4.66      0.00
   12    4    2     -0.90      0.00
   14    4    2     -3.97      0.00
   16    4    2     -5.54      0.00
   18    4    2     -5.10      0.00
   20    4    2     -1.95      0.00
   22    4    2      0.18      0.00
  -25    5    2     -1.93      0.00
  -23    5    2      1.96      0.00
  -21    5    2      4.23      0.00
  -19    5    2      2.56      0.00
  -17    5    2      0.39      0.00
  -15    5    2     -2.64      0.00
  -13    5    2     -3.37      0.00
  -11    5    2     -0.63      0.00
   -9    5    2      1.74      0.00
   -7    5    2      5.57      0.00
   -5    5    2     12.87      0.00
   -3    5    2      6.14      0.00
   -1    5    2     -7.28      0.00
    1    5    2     -9.80      0.00
    3    5    2     -4.30      0.00
    5    5    2      0.73      0.00
    7    5    2      4.07      0.00
    9    5    2      5.29      0.00
   11    5    2      2.14      0.00
   13    5    2     -0.15      0.00
   15    5    2     -2.21      0.00
   17    5    2     -5.20      0.00
   19    5    2     -4.66      0.00
   21    5    2     -1.40      0.00
  -26    6    2     -1.82      0.00
  -24    6    2      0.72      0.00
  -22    6    2      5.16      0.00
  -20    6    2      3.48      0.00
  -18    6    2      0.24      0.00
  -16    6    2     -2.02      0.00
  -14    6    2     -3.81      0.00
  -12    6    2     -2.66      0.00
  -10    6    2      3.18      0.00
   -8    6    2     12.32      0.00
   -6    6    2     23.34      0.00
   -4    6    2     23.24      0.00
   -2    6    2      2.55      0.00
    0    6    2    -17.94      0.00
    2    6    2    -18.78      0.00
    4    6    2     -9.44      0.00
    6    6    2     -1.56      0.00
    8    6    2      3.13      0.00
   10    6    2      2.81      0.00
   12    6    2      0.61      0.00
   14    6    2      0.43      0.00
   16    6    2     -1.61      0.00
   18    6    2     -4.70      0.00
   20    6    2     -4.36      0.00
   22    6    2     -1.98      0.00
  -25    7    2     -0.59      0.00
  -23    7    2      3.91      0.00
  -21    7    2      4.65      0.00
  -19    7    2      0.15      0.00
  -17    7    2     -2.43      0.00
  -15    7    2     -2.48      0.00
  -13    7    2     -2.79      0.00
  -11    7    2      1.23      0.00
   -9    7    2     10.68      0.00
   -7    7    2     23.19      0.00
   -5    7    2     29.61      0.00
   -3    7    2     18.36      0.00
   -1    7    2     -8.47      0.00
    1    7    2    -24.51      0.00
    3    7    2    -19.66      0.00
    5    7    2     -9.10      0.00
    7    7    2     -0.99      0.00
    9    7    2      3.23      0.00
   11    7    2      2.58      0.00
   13    7    2      1.18      0.00
   15    7    2      0.27      0.00
   17    7    2     -2.57      0.00
   19    7    2     -4.74      0.00
   21    7    2     -3.56      0.00
  -24    8    2      0.81      0.00
  -22    8    2      3.15      0.00
  -20    8    2      0.74      0.00
  -18    8    2     -3.34      0.00
  -16    8    2     -3.00      0.00
  -14    8    2     -1.85      0.00
  -12    8    2      0.91      0.00
  -10    8    2      6.63      0.00
   -8    8    2     13.91      0.00
   -6    8    2     22.14      0.00
   -4    8    2     20.36      0.00
   -2    8    2      2.73      0.00
    0    8    2    -14.18      0.00
    2    8    2    -16.99      0.00
    4    8    2    -12.50      0.00
    6    8    2     -6.72      0.00
    8    8    2     -0.42      0.00
   10    8    2      3.37      0.00
   12    8    2      3.12      0.00
   14    8    2      1.61      0.00
   16    8    2     -0.58      0.00
   18    8    2     -3.11      0.00
   20    8    2     -2.85      0.00
  -23    9    2     -0.40      0.00
  -21    9    2     -0.20      0.00
  -19    9    2     -2.79      0.00
  -17    9    2     -3.64      0.00
  -15    9    2     -2.58      0.00
  -13    9    2     -0.25      0.00
  -11    9    2      3.30      0.00
   -9    9    2      6.75      0.00
   -7    9    2      9.71      0.00
   -5    9    2     10.93      0.00
   -3    9    2      5.22      0.00
   -1    9    2     -3.32      0.00
    1    9    2     -6.61      0.00
    3    9    2     -6.00      0.00
    5    9    2     -5.40      0.00
    7    9    2     -3.57      0.00
    9    9    2     -0.57      0.00
   11    9    2      1.47      0.00
   13    9    2      1.99      0.00
   15    9    2      2.08      0.00
   17    9    2      0.22      0.00
   19    9    2     -1.26      0.00
  -22   10    2     -2.07      0.00
  -20   10    2     -2.71      0.00
  -18   10    2     -3.22      0.00
  -16   10    2     -2.43      0.00
  -14   10    2     -0.63      0.00
  -12   10    2      0.29      0.00
  -10   10    2      1.45      0.00
   -8   10    2      3.62      0.00
   -6   10    2      2.64      0.00
   -4   10    2      1.75      0.00
   -2   10    2      2.25      0.00
    0   10    2      0.78      0.00
    2   10    2     -0.28      0.00
    4   10    2     -0.28      0.00
    6   10    2     -1.44      0.00
    8   10    2     -2.19      0.00
   10   10    2     -2.13      0.00
   12   10    2     -0.71      0.00
   14   10    2      2.02      0.00
   16   10    2      2.95      0.00
   18   10    2      1.09      0.00
   20   10    2      0.65      0.00
  -23   11    2     -1.62      0.00
  -21   11    2     -2.91      0.00
  -19   11    2     -2.73      0.00
  -17   11    2     -2.15      0.00
  -15   11    2      0.91      0.00
  -13   11    2      1.11      0.00
  -11   11    2     -1.43      0.00
   -9   11    2     -0.48      0.00
   -7   11    2      1.09      0.00
   -5   11    2      0.40      0.00
   -3   11    2      1.57      0.00
   -1   11    2      3.07      0.00
    1   11    2      2.23      0.00
    3   11    2      1.05      0.00
    5   11    2     -0.44      0.00
    7   11    2     -2.25      0.00
    9   11    2     -2.53      0.00
   11   11    2     -1.64      0.00
   13   11    2      0.83      0.00
   15   11    2      2.43      0.00
   17   11    2      1.46      0.00
   19   11    2      0.78      0.00
  -22   12    2     -2.18      0.00
  -20   12    2     -2.28      0.00
  -18   12    2     -1.73      0.00
  -16   12    2      0.89      0.00
  -14   12    2      3.06      0.00
  -12   12    2     -0.28      0.00
  -10   12    2     -1.65      0.00
   -8   12    2      0.53      0.00
   -6   12    2      0.87      0.00
   -4   12    2     -0.83      0.00
   -2   12    2      0.34      0.00
    0   12    2      2.08      0.00
    2   12    2      0.68      0.00
    4   12    2     -1.15      0.00
    6   12    2     -3.17      0.00
    8   12    2     -4.23      0.00
   10   12    2     -1.64      0.00
   12   12    2      1.62      0.00
   14   12    2      2.81      0.00
   16   12    2      1.23      0.00
   18   12    2     -0.18      0.00
  -21   13    2     -1.88      0.00
  -19   13    2     -2.08      0.00
  -17   13    2      0.00      0.00
  -15   13    2      2.24      0.00
  -13   13    2      1.43      0.00
  -11   13    2     -0.82      0.00
   -9   13    2      0.53      0.00
   -7   13    2      1.32      0.00
   -5   13    2     -2.67      0.00
   -3   13    2     -3.80      0.00
   -1   13    2     -0.19      0.00
    1   13    2      0.23      0.00
    3   13    2     -1.37      0.00
    5   13    2     -2.10      0.00
    7   13    2     -4.40      0.00
    9   13    2     -4.70      0.00
   11   13    2      0.04      0.00
   13   13    2      3.71      0.00
   15   13    2      3.13      0.00
   17   13    2      1.01      0.00
  -20   14    2     -2.36      0.00
  -18   14    2     -2.30      0.00
  -16   14    2      0.18      0.00
  -14   14    2      1.65      0.00
  -12   14    2      1.10      0.00
  -10   14    2     -0.56      0.00
   -8   14    2      0.30      0.00
   -6   14    2     -1.36      0.00
   -4   14    2     -4.45      0.00
   -2   14    2     -3.25      0.00
    0   14    2     -0.74      0.00
    2   14    2     -0.16      0.00
    4   14    2     -0.31      0.00
    6   14    2     -1.39      0.00
    8   14    2     -4.05      0.00
   10   14    2     -3.44      0.00
   12   14    2      1.25      0.00
   14   14    2      3.47      0.00
   16   14    2      3.31      0.00
  -17   15    2     -2.43      0.00
  -15   15    2      0.77      0.00
  -13   15    2      2.40      0.00
  -11   15    2     -0.05      0.00
   -9   15    2     -1.81      0.00
   -7   15    2     -1.16      0.00
   -5   15    2     -1.63      0.00
   -3   15    2     -2.61      0.00
   -1   15    2     -2.14      0.00
    1   15    2     -0.23      0.00
    3   15    2      1.38      0.00
    5   15    2      1.24      0.00
    7   15    2     -0.57      0.00
    9   15    2     -1.97      0.00
   11   15    2     -1.02      0.00
   13   15    2      0.73      0.00
  -16   16    2     -0.08      0.00
  -14   16    2      1.92      0.00
  -12   16    2     -0.29      0.00
  -10   16    2     -1.89      0.00
   -8   16    2     -1.13      0.00
   -6   16    2     -0.37      0.00
   -4   16    2     -1.07      0.00
   -2   16    2     -1.78      0.00
    0   16    2     -1.34      0.00
    2   16    2      0.41      0.00
    4   16    2      2.33      0.00
    6   16    2      1.71      0.00
    8   16    2      0.72      0.00
   10   16    2      0.46      0.00
   12   16    2     -0.66      0.00
  -15   17    2      1.79      0.00
  -13   17    2     -1.40      0.00
  -11   17    2     -3.17      0.00
   -9   17    2     -1.21      0.00
   -7   17    2      0.77      0.00
   -5   17    2      0.77      0.00
   -3   17    2     -1.59      0.00
   -1   17    2     -2.84      0.00
    1   17    2     -1.28      0.00
    3   17    2      1.08      0.00
    5   17    2      1.88      0.00
    7   17    2      1.52      0.00
    9   17    2      1.47      0.00
   11   17    2      0.03      0.00
  -12   18    2     -3.52      0.00
  -10   18    2     -2.93      0.00
   -8   18    2     -0.10      0.00
   -6   18    2      2.54      0.00
   -4   18    2      1.77      0.00
   -2   18    2     -2.37      0.00
    0   18    2     -3.39      0.00
    2   18    2     -0.68      0.00
    4   18    2      0.62      0.00
    6   18    2      0.94      0.00
    8   18    2      1.33      0.00
   -9   19    2     -1.59      0.00
   -7   19    2      1.48      0.00
   -5   19    2      3.79      0.00
   -3   19    2      2.37      0.00
   -1   19    2     -1.58      0.00
    1   19    2     -2.48      0.00
    3   19    2     -0.85      0.00
    5   19    2      0.16      0.00
  -27    1    3     -1.38      0.00
  -25    1    3     -0.08      0.00
  -23    1    3      1.86      0.00
  -21    1    3      1.79      0.00
  -19    1    3      1.86      0.00
  -17    1    3      0.45      0.00
  -15    1    3     -3.10      0.00
  -13    1    3     -7.33      0.00
  -11    1    3     -8.37      0.00
   -9    1    3     -9.54      0.00
   -7    1    3      0.00      0.00
   -5    1    3     16.76      0.00
   -3    1    3     14.63      0.00
   -1    1    3     -1.09      0.00
    1    1    3     -8.28      0.00
    3    1    3     -2.89      0.00
    5    1    3     -0.62      0.00
    7    1    3      2.28      0.00
    9    1    3      5.12      0.00
   11    1    3      4.80      0.00
   13    1    3      2.79      0.00
   15    1    3      0.22      0.00
   17    1    3     -1.72      0.00
   19    1    3     -1.74      0.00
   21    1    3      0.15      0.00
  -28    2    3     -1.44      0.00
  -26    2    3     -1.72      0.00
  -24    2    3      1.70      0.00
  -22    2    3      4.36      0.00
  -20    2    3      4.14      0.00
  -18    2    3      2.37      0.00
  -16    2    3     -2.80      0.00
  -14    2    3    -10.42      0.00
  -12    2    3    -14.19      0.00
  -10    2    3    -13.92      0.00
   -8    2    3     -9.95      0.00
   -6    2    3      3.60      0.00
   -4    2    3     11.67      0.00
   -2    2    3      3.89      0.00
    0    2    3     -6.90      0.00
    2    2    3     -5.67      0.00
    4    2    3     -1.21      0.00
    6    2    3      0.49      0.00
    8    2    3      6.22      0.00
   10    2    3      9.71      0.00
   12    2    3      7.27      0.00
   14    2    3      2.66      0.00
   16    2    3     -1.59      0.00
   18    2    3     -3.34      0.00
   20    2    3     -1.12      0.00
   22    2    3      0.39      0.00
  -27    3    3     -2.05      0.00
  -25    3    3     -0.36      0.00
  -23    3    3      4.60      0.00
  -21    3    3      6.61      0.00
  -19    3    3      4.20      0.00
  -17    3    3     -0.33      0.00
  -15    3    3     -9.17      0.00
  -13    3    3    -15.49      0.00
   -9    3    3    -13.98      0.00
   -7    3    3    -13.09      0.00
   -5    3    3     -7.48      0.00
   -3    3    3     -4.63      0.00
   -1    3    3     -9.32      0.00
    1    3    3     -6.44      0.00
    3    3    3     -0.20      0.00
    5    3    3      0.92      0.00
    7    3    3      3.46      0.00
    9    3    3     10.13      0.00
   11    3    3     10.38      0.00
   13    3    3      5.87      0.00
   15    3    3      0.75      0.00
   17    3    3     -4.02      0.00
   19    3    3     -2.87      0.00
   21    3    3      0.85      0.00
  -26    4    3     -1.77      0.00
  -24    4    3      2.25      0.00
  -22    4    3      6.47      0.00
  -20    4    3      5.20      0.00
  -18    4    3      1.64      0.00
  -16    4    3     -4.41      0.00
  -14    4    3    -12.64      0.00
  -12    4    3    -13.99      0.00
  -10    4    3    -13.70      0.00
   -8    4    3    -17.29      0.00
   -6    4    3    -15.15      0.00
   -4    4    3     -7.34      0.00
   -2    4    3    -13.34      0.00
    0    4    3    -16.52      0.00
    2    4    3     -5.43      0.00
    4    4    3      1.66      0.00
    6    4    3      3.36      0.00
    8    4    3      7.87      0.00
   10    4    3      9.99      0.00
   12    4    3      6.33      0.00
   14    4    3      2.67      0.00
   16    4    3     -2.37      0.00
   18    4    3     -4.47      0.00
   20    4    3      0.09      0.00
  -27    5    3     -2.27      0.00
  -25    5    3     -0.71      0.00
  -23    5    3      3.58      0.00
  -21    5    3      4.51      0.00
  -19    5    3      1.98      0.00
  -17    5    3     -1.04      0.00
  -15    5    3     -6.85      0.00
  -13    5    3    -11.10      0.00
  -11    5    3    -11.08      0.00
   -9    5    3    -12.17      0.00
   -7    5    3     -9.81      0.00
   -5    5    3     -1.32      0.00
   -3    5    3     -3.16      0.00
   -1    5    3    -14.75      0.00
    1    5    3    -15.49      0.00
    3    5    3     -5.38      0.00
    5    5    3      1.77      0.00
    7    5    3      6.23      0.00
    9    5    3      8.39      0.00
   11    5    3      5.67      0.00
   13    5    3      1.95      0.00
   15    5    3     -0.81      0.00
   17    5    3     -3.29      0.00
   19    5    3     -1.48      0.00
   21    5    3      1.81      0.00
  -26    6    3     -2.03      0.00
  -24    6    3     -0.56      0.00
  -22    6    3      1.76      0.00
  -20    6    3      1.45      0.00
  -18    6    3     -0.35      0.00
  -16    6    3     -3.56      0.00
  -14    6    3     -6.70      0.00
  -12    6    3     -7.27      0.00
  -10    6    3     -4.55      0.00
   -8    6    3     -1.54      0.00
   -6    6    3      3.15      0.00
   -4    6    3      4.20      0.00
   -2    6    3     -0.62      0.00
    0    6    3     -7.84      0.00
    2    6    3     -8.36      0.00
    4    6    3     -2.75      0.00
    6    6    3      2.13      0.00
    8    6    3      4.77      0.00
   10    6    3      4.31      0.00
   12    6    3      1.98      0.00
   14    6    3      0.30      0.00
   16    6    3     -0.82      0.00
   18    6    3     -1.06      0.00
   20    6    3      0.18      0.00
  -25    7    3     -1.93      0.00
  -23    7    3     -2.43      0.00
  -21    7    3     -1.17      0.00
  -19    7    3     -0.39      0.00
  -17    7    3     -2.18      0.00
  -15    7    3     -4.07      0.00
  -13    7    3     -3.78      0.00
  -11    7    3      0.97      0.00
   -9    7    3      4.58      0.00
   -7    7    3      2.73      0.00
   -5    7    3      1.49      0.00
   -3    7    3      3.21      0.00
   -1    7    3      3.82      0.00
    1    7    3      2.50      0.00
    3    7    3      0.89      0.00
    5    7    3     -0.15      0.00
    7    7    3      0.04      0.00
    9    7    3      0.18      0.00
   11    7    3      0.57      0.00
   13    7    3      1.67      0.00
   15    7    3      2.32      0.00
   17    7    3      1.56      0.00
   19    7    3      0.13      0.00
  -26    8    3     -0.48      0.00
  -24    8    3     -3.09      0.00
  -22    8    3     -4.82      0.00
  -20    8    3     -2.39      0.00
  -18    8    3     -0.69      0.00
  -16    8    3     -1.20      0.00
  -14    8    3     -1.67      0.00
  -12    8    3      1.67      0.00
  -10    8    3      5.57      0.00
   -8    8    3      3.86      0.00
   -6    8    3     -2.86      0.00
   -4    8    3     -3.62      0.00
   -2    8    3      3.69      0.00
    0    8    3     10.06      0.00
    2    8    3      8.55      0.00
    4    8    3      3.23      0.00
    6    8    3     -0.51      0.00
    8    8    3     -2.49      0.00
   10    8    3     -2.64      0.00
   12    8    3      0.13      0.00
   14    8    3      3.02      0.00
   16    8    3      4.33      0.00
   18    8    3      2.73      0.00
   20    8    3      0.14      0.00
  -25    9    3     -1.68      0.00
  -23    9    3     -4.39      0.00
  -21    9    3     -4.27      0.00
  -19    9    3     -0.81      0.00
  -17    9    3      1.44      0.00
  -15    9    3      1.06      0.00
  -13    9    3      1.40      0.00
  -11    9    3      2.03      0.00
   -9    9    3      2.64      0.00
   -7    9    3      0.28      0.00
   -5    9    3     -6.36      0.00
   -3    9    3     -3.77      0.00
   -1    9    3      7.53      0.00
    1    9    3     10.16      0.00
    3    9    3      5.05      0.00
    5    9    3      1.22      0.00
    7    9    3     -2.08      0.00
    9    9    3     -3.70      0.00
   11    9    3     -1.85      0.00
   13    9    3      1.20      0.00
   15    9    3      3.25      0.00
   17    9    3      3.83      0.00
   19    9    3      1.63      0.00
  -24   10    3     -2.89      0.00
  -22   10    3     -3.18      0.00
  -20   10    3     -0.94      0.00
  -18   10    3      2.31      0.00
  -16   10    3      2.56      0.00
  -14   10    3      2.16      0.00
  -12   10    3      0.57      0.00
  -10   10    3     -0.31      0.00
   -8   10    3      0.73      0.00
   -6   10    3     -1.51      0.00
   -4   10    3     -4.59      0.00
   -2   10    3      0.24      0.00
    0   10    3      6.00      0.00
    2   10    3      4.51      0.00
    4   10    3      1.18      0.00
    6   10    3     -1.50      0.00
    8   10    3     -4.09      0.00
   10   10    3     -2.59      0.00
   12   10    3      0.28      0.00
   14   10    3      1.55      0.00
   16   10    3      1.57      0.00
   18   10    3      0.81      0.00
  -23   11    3     -2.78      0.00
  -21   11    3     -1.28      0.00
  -19   11    3      2.20      0.00
  -17   11    3      3.28      0.00
  -15   11    3      2.17      0.00
  -13   11    3      0.18      0.00
  -11   11    3     -1.41      0.00
   -9   11    3     -0.33      0.00
   -7   11    3     -0.30      0.00
   -5   11    3     -1.86      0.00
   -3   11    3     -2.06      0.00
   -1   11    3      1.12      0.00
    1   11    3      3.39      0.00
    3   11    3      0.97      0.00
    5   11    3     -1.69      0.00
    7   11    3     -3.34      0.00
    9   11    3     -3.31      0.00
   11   11    3     -0.70      0.00
   13   11    3      0.29      0.00
   15   11    3      0.00      0.00
   17   11    3     -0.54      0.00
  -22   12    3     -3.04      0.00
  -20   12    3     -0.25      0.00
  -18   12    3      2.81      0.00
  -16   12    3      2.81      0.00
  -14   12    3     -0.61      0.00
  -12   12    3     -2.81      0.00
  -10   12    3     -1.67      0.00
   -8   12    3      0.16      0.00
   -6   12    3     -1.03      0.00
   -4   12    3     -3.02      0.00
   -2   12    3     -0.84      0.00
    0   12    3      3.02      0.00
    2   12    3      1.99      0.00
    4   12    3     -1.76      0.00
    6   12    3     -2.45      0.00
    8   12    3     -1.24      0.00
   10   12    3     -1.36      0.00
   12   12    3     -1.86      0.00
   14   12    3     -1.99      0.00
   16   12    3     -0.97      0.00
  -21   13    3     -2.83      0.00
  -19   13    3      0.14      0.00
  -17   13    3      2.28      0.00
  -15   13    3     -0.51      0.00
  -13   13    3     -4.04      0.00
  -11   13    3     -2.88      0.00
   -9   13    3     -0.80      0.00
   -7   13    3      0.04      0.00
   -5   13    3     -1.62      0.00
   -3   13    3     -1.94      0.00
   -1   13    3      1.03      0.00
    3   13    3      1.14      0.00
    5   13    3     -1.52      0.00
    7   13    3     -0.07      0.00
    9   13    3      0.83      0.00
   11   13    3     -2.51      0.00
   13   13    3     -3.93      0.00
   15   13    3     -2.49      0.00
  -20   14    3     -1.52      0.00
  -18   14    3      0.87      0.00
  -16   14    3     -0.90      0.00
  -14   14    3     -4.12      0.00
  -12   14    3     -3.45      0.00
  -10   14    3     -1.05      0.00
   -8   14    3     -0.45      0.00
   -6   14    3     -0.17      0.00
   -4   14    3     -0.37      0.00
   -2   14    3     -1.19      0.00
    0   14    3      0.36      0.00
    2   14    3      3.26      0.00
    4   14    3      2.58      0.00
    6   14    3      0.72      0.00
    8   14    3      1.13      0.00
   10   14    3     -0.36      0.00
   12   14    3     -3.56      0.00
   14   14    3     -3.56      0.00
  -19   15    3      0.29      0.00
  -17   15    3     -0.48      0.00
  -15   15    3     -3.53      0.00
  -13   15    3     -3.34      0.00
  -11   15    3     -1.59      0.00
   -9   15    3     -0.59      0.00
   -7   15    3     -0.83      0.00
   -5   15    3     -0.64      0.00
   -3   15    3     -1.67      0.00
   -1   15    3     -1.96      0.00
    1   15    3      1.37      0.00
    3   15    3      4.05      0.00
    5   15    3      3.72      0.00
    7   15    3      1.66      0.00
    9   15    3      0.09      0.00
   11   15    3     -1.44      0.00
   13   15    3     -3.03      0.00
  -16   16    3     -1.63      0.00
  -14   16    3     -2.69      0.00
  -12   16    3     -1.93      0.00
  -10   16    3     -1.39      0.00
   -8   16    3     -2.18      0.00
   -6   16    3     -2.55      0.00
   -4   16    3     -1.95      0.00
   -2   16    3     -2.30      0.00
    0   16    3     -1.57      0.00
    2   16    3      1.25      0.00
    4   16    3      3.53      0.00
    6   16    3      3.30      0.00
    8   16    3      0.81      0.00
   10   16    3     -1.04      0.00
   12   16    3     -1.77      0.00
  -15   17    3     -1.39      0.00
  -13   17    3     -2.31      0.00
  -11   17    3     -1.63      0.00
   -9   17    3     -2.56      0.00
   -7   17    3     -4.04      0.00
   -5   17    3     -2.30      0.00
   -3   17    3     -0.24      0.00
   -1   17    3     -1.95      0.00
    1   17    3     -2.80      0.00
    3   17    3      0.36      0.00
    5   17    3      2.30      0.00
    7   17    3      1.24      0.00
    9   17    3     -0.64      0.00
  -12   18    3     -2.36      0.00
  -10   18    3     -1.82      0.00
   -8   18    3     -2.30      0.00
   -6   18    3     -1.79      0.00
   -4   18    3      0.50      0.00
   -2   18    3      0.89      0.00
    0   18    3     -2.37      0.00
    2   18    3     -2.97      0.00
    4   18    3     -0.09      0.00
    6   18    3      0.20      0.00
   -9   19    3     -0.77      0.00
   -7   19    3      0.46      0.00
   -3   19    3      1.28      0.00
   -1   19    3      0.50      0.00
    1   19    3     -1.65      0.00
    3   19    3     -1.75      0.00
  -28    0    4     -1.38      0.00
  -26    0    4     -3.08      0.00
  -24    0    4     -4.89      0.00
  -22    0    4     -4.86      0.00
  -20    0    4     -2.33      0.00
  -18    0    4      2.23      0.00
  -16    0    4      8.08      0.00
  -14    0    4     17.78      0.00
  -12    0    4     24.14      0.00
  -10    0    4     19.35      0.00
   -8    0    4     -5.13      0.00
   -6    0    4    -31.81      0.00
   -2    0    4    -33.90      0.00
    0    0    4    -10.75      0.00
    2    0    4      9.59      0.00
    4    0    4     18.28      0.00
    6    0    4     17.21      0.00
    8    0    4     11.67      0.00
   10    0    4      2.63      0.00
   12    0    4     -3.86      0.00
   14    0    4     -6.21      0.00
   16    0    4     -5.14      0.00
   18    0    4     -0.94      0.00
   20    0    4      1.26      0.00
  -29    1    4     -0.91      0.00
  -27    1    4     -1.91      0.00
  -25    1    4     -3.50      0.00
  -23    1    4     -4.69      0.00
  -21    1    4     -3.46      0.00
  -19    1    4      0.13      0.00
  -17    1    4      5.09      0.00
  -15    1    4     12.82      0.00
  -13    1    4     20.07      0.00
  -11    1    4     18.57      0.00
   -9    1    4      5.19      0.00
   -7    1    4    -16.92      0.00
   -5    1    4    -36.37      0.00
   -3    1    4    -40.18      0.00
   -1    1    4    -22.84      0.00
    1    1    4      0.32      0.00
    3    1    4     13.96      0.00
    5    1    4     17.41      0.00
    7    1    4     14.08      0.00
    9    1    4      6.82      0.00
   11    1    4     -0.54      0.00
   13    1    4     -4.52      0.00
   15    1    4     -5.50      0.00
   17    1    4     -3.06      0.00
   19    1    4      0.28      0.00
   21    1    4      0.64      0.00
  -28    2    4     -1.53      0.00
  -26    2    4     -1.87      0.00
  -24    2    4     -2.96      0.00
  -22    2    4     -3.49      0.00
  -20    2    4     -0.96      0.00
  -18    2    4      3.00      0.00
  -16    2    4      9.19      0.00
  -14    2    4     14.49      0.00
  -12    2    4     13.91      0.00
  -10    2    4      4.19      0.00
   -8    2    4     -6.97      0.00
   -6    2    4    -21.99      0.00
   -4    2    4    -35.14      0.00
   -2    2    4    -28.73      0.00
    0    2    4    -11.17      0.00
    2    2    4      4.76      0.00
    4    2    4     12.46      0.00
    6    2    4     13.67      0.00
    8    2    4      9.19      0.00
   10    2    4      3.38      0.00
   12    2    4     -1.23      0.00
   14    2    4     -3.33      0.00
   16    2    4     -3.43      0.00
   18    2    4     -2.16      0.00
   20    2    4     -0.51      0.00
  -27    3    4     -1.98      0.00
  -25    3    4     -1.90      0.00
  -23    3    4     -2.49      0.00
  -21    3    4     -1.58      0.00
  -19    3    4      1.73      0.00
  -17    3    4      6.40      0.00
  -15    3    4     10.08      0.00
  -13    3    4     10.19      0.00
  -11    3    4      5.87      0.00
   -9    3    4     -3.93      0.00
   -7    3    4    -13.92      0.00
   -5    3    4    -21.01      0.00
   -3    3    4    -20.15      0.00
   -1    3    4    -14.97      0.00
    1    3    4     -5.68      0.00
    3    3    4      3.55      0.00
    5    3    4      8.05      0.00
    7    3    4      8.85      0.00
    9    3    4      6.00      0.00
   11    3    4      2.11      0.00
   13    3    4     -0.60      0.00
   15    3    4     -1.74      0.00
   17    3    4     -3.13      0.00
   19    3    4     -2.94      0.00
  -28    4    4     -1.51      0.00
  -26    4    4     -2.94      0.00
  -24    4    4     -2.58      0.00
  -22    4    4     -1.18      0.00
  -20    4    4      1.05      0.00
  -18    4    4      4.68      0.00
  -16    4    4      6.81      0.00
  -14    4    4      6.88      0.00
  -12    4    4      5.64      0.00
  -10    4    4      0.63      0.00
   -8    4    4     -7.96      0.00
   -6    4    4    -10.65      0.00
   -4    4    4     -7.92      0.00
   -2    4    4     -8.27      0.00
    0    4    4     -7.01      0.00
    2    4    4     -3.23      0.00
    4    4    4      0.43      0.00
    6    4    4      3.75      0.00
    8    4    4      5.52      0.00
   10    4    4      4.06      0.00
   12    4    4      2.08      0.00
   14    4    4      0.17      0.00
   16    4    4     -2.05      0.00
   18    4    4     -3.29      0.00
   20    4    4     -2.16      0.00
  -27    5    4     -2.82      0.00
  -25    5    4     -3.86      0.00
  -23    5    4     -1.33      0.00
  -21    5    4      1.40      0.00
  -19    5    4      3.55      0.00
  -17    5    4      4.84      0.00
  -15    5    4      3.76      0.00
  -13    5    4      2.66      0.00
  -11    5    4     -0.57      0.00
   -9    5    4     -3.92      0.00
   -7    5    4     -3.24      0.00
   -5    5    4      1.00      0.00
   -3    5    4     -0.22      0.00
   -1    5    4     -2.44      0.00
    1    5    4     -3.60      0.00
    3    5    4     -3.97      0.00
    5    5    4     -1.57      0.00
    7    5    4      1.93      0.00
    9    5    4      3.18      0.00
   11    5    4      2.57      0.00
   13    5    4      2.09      0.00
   15    5    4      0.70      0.00
   17    5    4     -1.08      0.00
   19    5    4     -1.95      0.00
  -26    6    4     -3.46      0.00
  -24    6    4     -1.50      0.00
  -22    6    4      1.53      0.00
  -20    6    4      2.64      0.00
  -18    6    4      3.12      0.00
  -16    6    4      2.00      0.00
  -14    6    4     -0.83      0.00
  -12    6    4     -4.11      0.00
  -10    6    4     -5.44      0.00
   -8    6    4     -2.54      0.00
   -6    6    4      3.83      0.00
   -4    6    4      7.80      0.00
   -2    6    4      4.82      0.00
    0    6    4     -2.12      0.00
    2    6    4     -6.21      0.00
    4    6    4     -5.41      0.00
    6    6    4     -1.67      0.00
    8    6    4      1.56      0.00
   10    6    4      1.62      0.00
   12    6    4      1.59      0.00
   14    6    4      3.24      0.00
   16    6    4      3.02      0.00
   18    6    4      0.11      0.00
   20    6    4     -1.60      0.00
  -27    7    4     -2.05      0.00
  -25    7    4     -1.25      0.00
  -23    7    4      1.89      0.00
  -21    7    4      2.14      0.00
  -19    7    4      1.27      0.00
  -17    7    4      0.55      0.00
  -15    7    4     -1.93      0.00
  -13    7    4     -6.39      0.00
  -11    7    4     -7.33      0.00
   -9    7    4     -4.99      0.00
   -7    7    4      1.47      0.00
   -5    7    4      9.10      0.00
   -3    7    4     10.93      0.00
   -1    7    4      3.40      0.00
    1    7    4     -5.15      0.00
    3    7    4     -8.39      0.00
    5    7    4     -6.08      0.00
    7    7    4     -1.37      0.00
    9    7    4      1.45      0.00
   11    7    4      1.55      0.00
   13    7    4      3.18      0.00
   15    7    4      4.75      0.00
   17    7    4      2.79      0.00
   19    7    4     -0.18      0.00
  -26    8    4     -0.87      0.00
  -24    8    4      0.56      0.00
  -22    8    4      2.27      0.00
  -20    8    4      1.20      0.00
  -18    8    4     -0.60      0.00
  -16    8    4     -2.52      0.00
  -14    8    4     -6.01      0.00
  -12    8    4     -7.37      0.00
  -10    8    4     -5.57      0.00
   -8    8    4     -0.30      0.00
   -6    8    4      7.20      0.00
   -4    8    4      9.47      0.00
   -2    8    4      5.85      0.00
    0    8    4      0.70      0.00
    2    8    4     -4.80      0.00
    4    8    4     -7.18      0.00
    6    8    4     -4.95      0.00
    8    8    4     -1.37      0.00
   10    8    4      1.54      0.00
   12    8    4      3.28      0.00
   14    8    4      3.97      0.00
   16    8    4      2.56      0.00
   18    8    4      0.93      0.00
  -25    9    4     -0.55      0.00
  -23    9    4     -0.14      0.00
  -21    9    4      1.41      0.00
  -19    9    4      0.13      0.00
  -17    9    4     -2.63      0.00
  -15    9    4     -5.57      0.00
  -13    9    4     -6.27      0.00
  -11    9    4     -4.61      0.00
   -9    9    4     -0.07      0.00
   -7    9    4      4.39      0.00
   -5    9    4      5.92      0.00
   -3    9    4      4.39      0.00
   -1    9    4      2.41      0.00
    1    9    4      0.64      0.00
    3    9    4     -1.39      0.00
    5    9    4     -2.99      0.00
    7    9    4     -2.93      0.00
    9    9    4     -1.43      0.00
   11    9    4      1.53      0.00
   13    9    4      2.78      0.00
   15    9    4      2.03      0.00
   17    9    4      0.41      0.00
  -24   10    4     -1.14      0.00
  -22   10    4     -1.43      0.00
  -20   10    4     -0.62      0.00
  -18   10    4     -2.00      0.00
  -16   10    4     -4.44      0.00
  -14   10    4     -5.01      0.00
  -12   10    4     -4.20      0.00
  -10   10    4     -0.83      0.00
   -8   10    4      2.66      0.00
   -6   10    4      2.04      0.00
   -4   10    4      2.32      0.00
   -2   10    4      3.10      0.00
    0   10    4      1.94      0.00
    2   10    4      1.82      0.00
    4   10    4      1.16      0.00
    6   10    4     -0.39      0.00
    8   10    4     -1.45      0.00
   10   10    4     -1.15      0.00
   12   10    4      0.35      0.00
   14   10    4      1.06      0.00
   16   10    4      1.01      0.00
  -23   11    4     -2.10      0.00
  -21   11    4     -3.52      0.00
  -19   11    4     -3.16      0.00
  -17   11    4     -3.53      0.00
  -15   11    4     -2.96      0.00
  -13   11    4     -3.04      0.00
  -11   11    4     -2.64      0.00
   -9   11    4      0.05      0.00
   -7   11    4      1.87      0.00
   -5   11    4      1.03      0.00
   -3   11    4      2.00      0.00
   -1   11    4      3.47      0.00
    1   11    4      2.08      0.00
    3   11    4      0.41      0.00
    5   11    4     -0.21      0.00
    7   11    4     -0.66      0.00
    9   11    4     -0.40      0.00
   11   11    4     -0.51      0.00
   13   11    4      0.18      0.00
   15   11    4      1.06      0.00
   17   11    4      0.45      0.00
  -22   12    4     -3.15      0.00
  -20   12    4     -3.84      0.00
  -18   12    4     -3.67      0.00
  -16   12    4     -2.20      0.00
  -14   12    4     -1.33      0.00
  -12   12    4     -2.25      0.00
  -10   12    4     -0.94      0.00
   -8   12    4      2.10      0.00
   -6   12    4      3.03      0.00
   -4   12    4      1.57      0.00
   -2   12    4      2.39      0.00
    0   12    4      2.37      0.00
    2   12    4     -0.55      0.00
    4   12    4     -1.61      0.00
    6   12    4     -2.38      0.00
    8   12    4     -1.67      0.00
   10   12    4      0.09      0.00
   12   12    4      0.58      0.00
   14   12    4      1.86      0.00
   16   12    4      1.39      0.00
  -21   13    4     -1.37      0.00
  -19   13    4     -2.55      0.00
  -17   13    4     -2.59      0.00
  -15   13    4     -0.81      0.00
  -13   13    4     -0.26      0.00
  -11   13    4      0.21      0.00
   -9   13    4      3.45      0.00
   -7   13    4      4.49      0.00
   -5   13    4      2.51      0.00
   -3   13    4      1.36      0.00
   -1   13    4      0.58      0.00
    1   13    4     -0.62      0.00
    3   13    4     -0.66      0.00
    5   13    4     -1.38      0.00
    7   13    4     -3.12      0.00
    9   13    4     -2.42      0.00
   11   13    4      0.13      0.00
   13   13    4      2.03      0.00
   15   13    4      2.55      0.00
  -20   14    4     -0.08      0.00
  -18   14    4     -2.82      0.00
  -16   14    4     -1.72      0.00
  -14   14    4      1.62      0.00
  -12   14    4      2.60      0.00
  -10   14    4      3.05      0.00
   -8   14    4      5.03      0.00
   -6   14    4      3.44      0.00
   -4   14    4      0.49      0.00
   -2   14    4     -1.00      0.00
    0   14    4     -1.06      0.00
    2   14    4      0.38      0.00
    4   14    4      0.53      0.00
    6   14    4     -0.69      0.00
    8   14    4     -2.65      0.00
   10   14    4     -2.16      0.00
   12   14    4      0.67      0.00
  -17   15    4     -3.27      0.00
  -15   15    4      0.96      0.00
  -13   15    4      4.04      0.00
  -11   15    4      2.96      0.00
   -9   15    4      2.72      0.00
   -7   15    4      3.60      0.00
   -5   15    4      1.22      0.00
   -3   15    4     -1.42      0.00
   -1   15    4     -1.23      0.00
    1   15    4      0.05      0.00
    3   15    4      0.37      0.00
    5   15    4      0.10      0.00
    7   15    4     -0.30      0.00
    9   15    4     -1.34      0.00
   11   15    4     -1.00      0.00
  -18   16    4     -2.42      0.00
  -16   16    4     -0.68      0.00
  -14   16    4      2.19      0.00
  -12   16    4      1.27      0.00
  -10   16    4      1.15      0.00
   -8   16    4      2.85      0.00
   -6   16    4      2.74      0.00
   -4   16    4      0.42      0.00
   -2   16    4     -0.35      0.00
    0   16    4     -0.31      0.00
    2   16    4     -1.08      0.00
    4   16    4     -0.87      0.00
    6   16    4     -0.68      0.00
    8   16    4     -0.35      0.00
   10   16    4     -0.30      0.00
  -15   17    4      0.77      0.00
  -13   17    4     -1.18      0.00
  -11   17    4     -2.16      0.00
   -9   17    4      1.49      0.00
   -7   17    4      4.66      0.00
   -5   17    4      3.48      0.00
   -3   17    4      0.81      0.00
   -1   17    4      0.14      0.00
    1   17    4     -0.56      0.00
    3   17    4     -1.36      0.00
    5   17    4     -1.22      0.00
    7   17    4     -1.42      0.00
  -14   18    4     -0.73      0.00
  -12   18    4     -2.99      0.00
  -10   18    4     -2.01      0.00
   -8   18    4      2.55      0.00
   -6   18    4      5.37      0.00
   -4   18    4      3.12      0.00
   -2   18    4      0.26      0.00
    0   18    4      0.50      0.00
    2   18    4      0.73      0.00
    4   18    4     -0.56      0.00
    6   18    4     -1.11      0.00
   -9   19    4     -0.86      0.00
   -7   19    4      1.60      0.00
   -1   19    4      0.76      0.00
    1   19    4      1.48      0.00
    3   19    4      1.14      0.00
  -29    1    5      0.87      0.00
  -27    1    5      0.30      0.00
  -25    1    5     -0.56      0.00
  -23    1    5      0.28      0.00
  -21    1    5      1.62      0.00
  -19    1    5      4.66      0.00
  -17    1    5      6.34      0.00
  -15    1    5      4.36      0.00
  -13    1    5     -1.50      0.00
  -11    1    5     -8.26      0.00
   -9    1    5    -13.33      0.00
   -7    1    5     -3.30      0.00
   -5    1    5      9.61      0.00
   -3    1    5      8.14      0.00
   -1    1    5      2.11      0.00
    1    1    5     -4.19      0.00
    3    1    5     -7.20      0.00
    5    1    5     -7.50      0.00
    7    1    5     -4.91      0.00
    9    1    5     -2.15      0.00
   11    1    5      0.80      0.00
   13    1    5      2.34      0.00
   15    1    5      1.42      0.00
   17    1    5     -0.12      0.00
   19    1    5     -0.34      0.00
  -28    2    5      1.76      0.00
  -26    2    5     -0.93      0.00
  -24    2    5     -0.54      0.00
  -22    2    5      2.21      0.00
  -20    2    5      6.31      0.00
  -18    2    5     10.64      0.00
  -16    2    5      9.45      0.00
  -14    2    5      1.74      0.00
  -12    2    5     -5.43      0.00
  -10    2    5     -9.88      0.00
   -8    2    5    -10.69      0.00
   -6    2    5     -0.41      0.00
   -4    2    5      8.34      0.00
   -2    2    5      4.46      0.00
    0    2    5     -4.50      0.00
    2    2    5     -8.96      0.00
    4    2    5    -12.22      0.00
    6    2    5    -12.63      0.00
    8    2    5     -6.94      0.00
   10    2    5     -0.90      0.00
   12    2    5      2.74      0.00
   14    2    5      3.08      0.00
   16    2    5      0.79      0.00
   18    2    5     -0.92      0.00
  -29    3    5      2.34      0.00
  -27    3    5      0.30      0.00
  -25    3    5     -2.08      0.00
  -23    3    5      0.63      0.00
  -21    3    5      5.91      0.00
  -19    3    5     10.97      0.00
  -17    3    5     12.36      0.00
  -15    3    5      5.35      0.00
  -13    3    5     -0.86      0.00
  -11    3    5     -1.83      0.00
   -9    3    5     -4.88      0.00
   -7    3    5     -8.54      0.00
   -5    3    5     -2.28      0.00
   -3    3    5      1.26      0.00
   -1    3    5     -6.59      0.00
    1    3    5     -8.84      0.00
    3    3    5     -9.67      0.00
    5    3    5    -14.44      0.00
    7    3    5    -13.01      0.00
    9    3    5     -4.87      0.00
   11    3    5      1.04      0.00
   13    3    5      3.57      0.00
   15    3    5      1.70      0.00
   17    3    5     -1.60      0.00
   19    3    5     -0.60      0.00
  -28    4    5      0.48      0.00
  -26    4    5     -1.90      0.00
  -24    4    5     -2.27      0.00
  -22    4    5      2.31      0.00
  -20    4    5      7.51      0.00
  -18    4    5     10.64      0.00
  -16    4    5      7.54      0.00
  -14    4    5      1.57      0.00
  -12    4    5      0.82      0.00
  -10    4    5     -2.89      0.00
   -8    4    5     -8.45      0.00
   -6    4    5     -5.27      0.00
   -4    4    5      1.48      0.00
   -2    4    5     -4.05      0.00
    0    4    5     -9.28      0.00
    2    4    5     -7.65      0.00
    4    4    5     -9.24      0.00
    6    4    5    -11.92      0.00
    8    4    5     -7.86      0.00
   10    4    5     -1.54      0.00
   12    4    5      2.15      0.00
   14    4    5      2.42      0.00
   16    4    5     -1.43      0.00
   18    4    5     -2.16      0.00
  -29    5    5     -0.81      0.00
  -27    5    5     -2.01      0.00
  -25    5    5     -3.25      0.00
  -23    5    5     -1.79      0.00
  -21    5    5      1.52      0.00
  -19    5    5      4.61      0.00
  -17    5    5      5.50      0.00
  -15    5    5      2.54      0.00
  -13    5    5     -0.58      0.00
  -11    5    5     -3.62      0.00
   -9    5    5     -8.50      0.00
   -7    5    5     -6.26      0.00
   -5    5    5      4.56      0.00
   -3    5    5      8.43      0.00
   -1    5    5      1.46      0.00
    1    5    5     -4.66      0.00
    3    5    5     -5.83      0.00
    5    5    5     -7.14      0.00
    7    5    5     -6.14      0.00
    9    5    5     -1.68      0.00
   11    5    5      1.02      0.00
   13    5    5      1.21      0.00
   15    5    5     -0.14      0.00
   17    5    5     -2.17      0.00
   19    5    5     -1.35      0.00
  -28    6    5     -1.17      0.00
  -26    6    5     -2.82      0.00
  -24    6    5     -3.68      0.00
  -22    6    5     -2.79      0.00
  -20    6    5     -1.43      0.00
  -18    6    5      0.13      0.00
  -16    6    5      0.41      0.00
  -14    6    5     -1.27      0.00
  -10    6    5     -3.16      0.00
   -8    6    5     -3.29      0.00
   -6    6    5      2.15      0.00
   -4    6    5     12.09      0.00
   -2    6    5     15.04      0.00
    0    6    5      7.69      0.00
    2    6    5      0.64      0.00
    4    6    5     -3.33      0.00
    6    6    5     -4.32      0.00
    8    6    5     -1.46      0.00
   10    6    5      1.61      0.00
   12    6    5      0.91      0.00
   14    6    5     -0.46      0.00
   16    6    5     -1.35      0.00
   18    6    5     -2.49      0.00
  -27    7    5      0.54      0.00
  -25    7    5     -2.63      0.00
  -23    7    5     -4.88      0.00
  -21    7    5     -4.08      0.00
  -19    7    5     -2.98      0.00
  -17    7    5     -2.97      0.00
  -15    7    5     -2.65      0.00
  -13    7    5     -1.30      0.00
  -11    7    5      3.05      0.00
   -9    7    5      6.28      0.00
   -7    7    5      4.98      0.00
   -5    7    5      5.76      0.00
   -3    7    5     10.89      0.00
   -1    7    5     13.42      0.00
    1    7    5     10.27      0.00
    3    7    5      4.19      0.00
    5    7    5     -0.60      0.00
    7    7    5     -1.68      0.00
    9    7    5     -0.09      0.00
   11    7    5      0.77      0.00
   13    7    5     -0.67      0.00
   15    7    5     -2.14      0.00
   17    7    5     -2.98      0.00
  -26    8    5      1.71      0.00
  -24    8    5     -3.01      0.00
  -22    8    5     -5.29      0.00
  -20    8    5     -3.47      0.00
  -18    8    5     -3.76      0.00
  -16    8    5     -3.69      0.00
  -14    8    5     -0.81      0.00
  -12    8    5      5.10      0.00
  -10    8    5     11.27      0.00
   -8    8    5     12.47      0.00
   -6    8    5      4.46      0.00
   -4    8    5     -0.63      0.00
   -2    8    5      4.49      0.00
    0    8    5      9.40      0.00
    2    8    5      8.32      0.00
    4    8    5      5.79      0.00
    6    8    5      2.53      0.00
    8    8    5      0.07      0.00
   10    8    5     -0.95      0.00
   12    8    5     -1.69      0.00
   14    8    5     -3.60      0.00
   16    8    5     -3.74      0.00
  -27    9    5      2.65      0.00
  -25    9    5      1.27      0.00
  -23    9    5     -2.84      0.00
  -21    9    5     -4.13      0.00
  -19    9    5     -4.11      0.00
  -17    9    5     -3.91      0.00
  -15    9    5     -0.86      0.00
  -13    9    5      3.11      0.00
  -11    9    5      7.41      0.00
   -9    9    5     12.26      0.00
   -7    9    5      7.80      0.00
   -5    9    5     -4.52      0.00
   -3    9    5     -5.84      0.00
   -1    9    5      1.69      0.00
    1    9    5      4.68      0.00
    5    9    5      6.87      0.00
    7    9    5      4.01      0.00
    9    9    5      0.76      0.00
   11    9    5     -1.45      0.00
   13    9    5     -4.05      0.00
   15    9    5     -4.86      0.00
   17    9    5     -1.89      0.00
  -26   10    5      1.89      0.00
  -24   10    5      0.16      0.00
  -22   10    5     -2.49      0.00
  -20   10    5     -4.67      0.00
  -18   10    5     -4.48      0.00
  -16   10    5     -1.81      0.00
  -14   10    5      1.15      0.00
  -12   10    5      1.78      0.00
  -10   10    5      4.65      0.00
   -8   10    5      5.80      0.00
   -6   10    5     -1.32      0.00
   -4   10    5     -8.65      0.00
   -2   10    5     -5.48      0.00
    0   10    5      1.26      0.00
    2   10    5      4.03      0.00
    4   10    5      5.73      0.00
    6   10    5      5.80      0.00
    8   10    5      3.15      0.00
   10   10    5      1.67      0.00
   12   10    5     -1.08      0.00
   14   10    5     -3.50      0.00
   16   10    5     -2.25      0.00
  -25   11    5      0.76      0.00
  -23   11    5     -1.56      0.00
  -21   11    5     -3.48      0.00
  -19   11    5     -3.57      0.00
  -17   11    5     -1.94      0.00
  -15   11    5     -0.48      0.00
  -13   11    5     -1.28      0.00
  -11   11    5     -1.31      0.00
   -9   11    5      1.26      0.00
   -7   11    5     -0.24      0.00
   -5   11    5     -6.31      0.00
   -3   11    5     -8.02      0.00
   -1   11    5     -1.53      0.00
    3   11    5      4.48      0.00
    5   11    5      4.47      0.00
    7   11    5      3.56      0.00
    9   11    5      3.09      0.00
   11   11    5      2.11      0.00
   13   11    5     -0.65      0.00
   15   11    5     -0.75      0.00
  -24   12    5     -0.42      0.00
  -22   12    5     -2.76      0.00
  -20   12    5     -1.85      0.00
  -18   12    5     -0.26      0.00
  -16   12    5      0.07      0.00
  -14   12    5     -1.72      0.00
  -12   12    5     -3.67      0.00
  -10   12    5     -2.08      0.00
   -8   12    5     -0.01      0.00
   -6   12    5     -4.57      0.00
   -4   12    5     -8.00      0.00
   -2   12    5     -2.87      0.00
    0   12    5      3.65      0.00
    2   12    5      4.75      0.00
    4   12    5      3.15      0.00
    6   12    5      2.98      0.00
    8   12    5      4.03      0.00
   10   12    5      3.04      0.00
   12   12    5      0.32      0.00
   14   12    5     -0.59      0.00
  -23   13    5     -0.37      0.00
  -21   13    5     -0.93      0.00
  -19   13    5      0.30      0.00
  -17   13    5      0.90      0.00
  -15   13    5     -0.56      0.00
  -13   13    5     -2.64      0.00
  -11   13    5     -3.20      0.00
   -9   13    5     -2.26      0.00
   -7   13    5     -2.75      0.00
   -5   13    5     -5.88      0.00
   -3   13    5     -4.47      0.00
   -1   13    5      1.43      0.00
    1   13    5      4.43      0.00
    3   13    5      2.86      0.00
    5   13    5      0.97      0.00
    7   13    5      3.81      0.00
    9   13    5      4.62      0.00
   11   13    5      0.96      0.00
   13   13    5     -1.12      0.00
  -22   14    5      0.75      0.00
  -20   14    5      0.01      0.00
  -18   14    5      0.33      0.00
  -16   14    5     -0.48      0.00
  -14   14    5     -2.20      0.00
  -12   14    5     -2.09      0.00
  -10   14    5     -2.46      0.00
   -8   14    5     -3.74      0.00
   -6   14    5     -3.07      0.00
   -4   14    5     -3.25      0.00
   -2   14    5     -2.30      0.00
    0   14    5      1.78      0.00
    2   14    5      2.94      0.00
    4   14    5      0.11      0.00
    6   14    5      0.82      0.00
    8   14    5      4.13      0.00
   10   14    5      2.80      0.00
   12   14    5     -0.15      0.00
  -21   15    5     -0.21      0.00
  -19   15    5      0.09      0.00
  -17   15    5      0.01      0.00
  -15   15    5     -2.50      0.00
  -13   15    5     -3.04      0.00
  -11   15    5     -1.38      0.00
   -9   15    5     -1.72      0.00
   -7   15    5     -2.53      0.00
   -5   15    5     -1.70      0.00
   -3   15    5     -2.75      0.00
   -1   15    5     -2.07      0.00
    1   15    5      1.05      0.00
    3   15    5      0.59      0.00
    5   15    5     -0.12      0.00
    7   15    5      1.13      0.00
    9   15    5      1.95      0.00
   11   15    5      1.14      0.00
  -18   16    5      1.35      0.00
  -16   16    5     -0.70      0.00
  -14   16    5     -3.26      0.00
  -12   16    5     -1.88      0.00
  -10   16    5     -0.41      0.00
   -8   16    5     -1.22      0.00
   -6   16    5     -1.62      0.00
   -4   16    5     -1.61      0.00
   -2   16    5     -2.84      0.00
    0   16    5     -1.85      0.00
    2   16    5      0.16      0.00
    4   16    5      0.70      0.00
    6   16    5      0.76      0.00
    8   16    5     -0.32      0.00
  -17   17    5      1.37      0.00
  -15   17    5     -1.50      0.00
  -13   17    5     -1.63      0.00
  -11   17    5      0.16      0.00
   -9   17    5     -1.78      0.00
   -7   17    5     -3.37      0.00
   -5   17    5     -1.56      0.00
   -3   17    5     -0.74      0.00
   -1   17    5     -2.07      0.00
    1   17    5     -1.53      0.00
    3   17    5      0.75      0.00
    5   17    5      1.23      0.00
    7   17    5      0.01      0.00
  -14   18    5     -1.37      0.00
  -12   18    5     -0.21      0.00
  -10   18    5     -0.64      0.00
   -8   18    5     -4.55      0.00
   -6   18    5     -4.70      0.00
   -4   18    5     -0.77      0.00
   -2   18    5      0.81      0.00
    0   18    5     -1.07      0.00
    2   18    5     -1.06      0.00
    4   18    5      0.52      0.00
  -11   19    5     -1.09      0.00
   -9   19    5     -2.06      0.00
   -7   19    5     -4.33      0.00
   -5   19    5     -3.49      0.00
   -3   19    5      0.03      0.00
   -1   19    5      1.17      0.00
    1   19    5     -0.76      0.00
  -30    0    6      1.95      0.00
  -28    0    6      2.79      0.00
  -26    0    6     -0.32      0.00
  -24    0    6     -3.27      0.00
  -22    0    6     -4.56      0.00
  -20    0    6     -9.42      0.00
  -18    0    6    -12.47      0.00
  -16    0    6    -11.19      0.00
  -14    0    6     -7.80      0.00
  -12    0    6     -5.62      0.00
  -10    0    6     -4.30      0.00
   -8    0    6     -3.40      0.00
   -6    0    6      5.05      0.00
   -4    0    6      8.09      0.00
   -2    0    6     -0.17      0.00
    0    0    6     -0.98      0.00
    2    0    6      3.95      0.00
    4    0    6      7.87      0.00
    6    0    6     10.42      0.00
    8    0    6     12.14      0.00
   10    0    6      8.46      0.00
   12    0    6      4.38      0.00
   14    0    6      2.21      0.00
   16    0    6      0.01      0.00
   18    0    6      0.34      0.00
  -29    1    6      3.00      0.00
  -27    1    6      1.56      0.00
  -25    1    6     -2.04      0.00
  -23    1    6     -3.10      0.00
  -21    1    6     -5.83      0.00
  -19    1    6    -10.16      0.00
  -17    1    6    -10.48      0.00
  -15    1    6     -7.68      0.00
  -13    1    6     -5.50      0.00
  -11    1    6     -2.95      0.00
   -9    1    6      0.61      0.00
   -7    1    6      3.58      0.00
   -5    1    6      5.23      0.00
   -3    1    6      0.87      0.00
   -1    1    6     -3.50      0.00
    1    1    6     -0.43      0.00
    3    1    6      5.20      0.00
    5    1    6      7.81      0.00
    7    1    6      9.56      0.00
    9    1    6      9.17      0.00
   11    1    6      5.66      0.00
   13    1    6      2.94      0.00
   15    1    6      1.15      0.00
   17    1    6      0.51      0.00
  -30    2    6      1.78      0.00
  -28    2    6      2.80      0.00
  -26    2    6     -0.15      0.00
  -24    2    6     -1.90      0.00
  -22    2    6     -3.16      0.00
  -20    2    6     -5.74      0.00
  -18    2    6     -7.22      0.00
  -16    2    6     -5.02      0.00
  -14    2    6     -3.46      0.00
  -12    2    6     -0.46      0.00
  -10    2    6      4.98      0.00
   -8    2    6      8.99      0.00
   -6    2    6      4.68      0.00
   -4    2    6     -1.80      0.00
   -2    2    6     -5.64      0.00
    0    2    6     -6.86      0.00
    2    2    6     -1.31      0.00
    4    2    6      3.41      0.00
    6    2    6      5.27      0.00
    8    2    6      5.78      0.00
   10    2    6      5.17      0.00
   12    2    6      3.30      0.00
   14    2    6      2.29      0.00
   16    2    6      1.77      0.00
   18    2    6      1.04      0.00
  -29    3    6      2.05      0.00
  -27    3    6      1.18      0.00
  -25    3    6     -0.60      0.00
  -23    3    6     -2.42      0.00
  -21    3    6     -3.61      0.00
  -19    3    6     -4.06      0.00
  -17    3    6     -2.49      0.00
  -15    3    6     -0.83      0.00
  -13    3    6      1.54      0.00
  -11    3    6      6.22      0.00
   -9    3    6      7.98      0.00
   -7    3    6      6.69      0.00
   -5    3    6      1.37      0.00
   -3    3    6     -4.68      0.00
   -1    3    6     -9.26      0.00
    1    3    6     -8.40      0.00
    3    3    6     -4.08      0.00
    5    3    6      0.47      0.00
    7    3    6      3.02      0.00
    9    3    6      3.36      0.00
   11    3    6      2.84      0.00
   13    3    6      2.85      0.00
   15    3    6      3.20      0.00
   17    3    6      1.65      0.00
  -30    4    6      1.21      0.00
  -28    4    6      0.58      0.00
  -26    4    6     -0.34      0.00
  -24    4    6     -1.59      0.00
  -22    4    6     -2.80      0.00
  -20    4    6     -3.13      0.00
  -18    4    6     -1.58      0.00
  -16    4    6      0.77      0.00
  -14    4    6      2.98      0.00
  -12    4    6      4.55      0.00
  -10    4    6      5.24      0.00
   -8    4    6      4.80      0.00
   -6    4    6      3.49      0.00
   -4    4    6     -1.17      0.00
   -2    4    6     -6.90      0.00
    0    4    6     -9.53      0.00
    2    4    6     -9.69      0.00
    4    4    6     -6.03      0.00
    6    4    6     -1.03      0.00
    8    4    6      2.04      0.00
   10    4    6      2.72      0.00
   12    4    6      2.67      0.00
   14    4    6      3.11      0.00
   16    4    6      3.22      0.00
   18    4    6      1.65      0.00
  -29    5    6      0.14      0.00
  -27    5    6     -0.87      0.00
  -25    5    6     -1.37      0.00
  -23    5    6     -1.15      0.00
  -21    5    6     -1.68      0.00
  -19    5    6     -1.51      0.00
  -17    5    6      0.67      0.00
  -15    5    6      3.48      0.00
  -13    5    6      4.02      0.00
  -11    5    6      2.37      0.00
   -9    5    6      4.26      0.00
   -7    5    6      3.84      0.00
   -5    5    6     -0.48      0.00
   -3    5    6     -5.16      0.00
   -1    5    6     -7.70      0.00
    1    5    6    -10.01      0.00
    3    5    6     -9.43      0.00
    5    5    6     -6.01      0.00
    7    5    6     -1.65      0.00
    9    5    6      1.05      0.00
   11    5    6      1.84      0.00
   13    5    6      2.03      0.00
   15    5    6      3.43      0.00
   17    5    6      3.94      0.00
  -28    6    6     -0.84      0.00
  -26    6    6     -0.58      0.00
  -24    6    6      0.23      0.00
  -22    6    6      0.50      0.00
  -20    6    6      0.13      0.00
  -18    6    6      1.03      0.00
  -16    6    6      2.70      0.00
  -14    6    6      3.54      0.00
  -12    6    6      2.79      0.00
  -10    6    6      2.95      0.00
   -8    6    6      3.46      0.00
   -6    6    6      0.78      0.00
   -4    6    6     -3.28      0.00
   -2    6    6     -5.84      0.00
    0    6    6     -8.04      0.00
    2    6    6     -9.53      0.00
    4    6    6     -8.47      0.00
    6    6    6     -5.20      0.00
    8    6    6     -2.48      0.00
   10    6    6     -1.62      0.00
   12    6    6     -0.56      0.00
   14    6    6      2.31      0.00
   16    6    6      4.41      0.00
  -27    7    6     -0.29      0.00
  -25    7    6      1.68      0.00
  -23    7    6      2.09      0.00
  -21    7    6      1.53      0.00
  -19    7    6      2.44      0.00
  -17    7    6      2.76      0.00
  -15    7    6      2.40      0.00
  -13    7    6      1.86      0.00
  -11    7    6      1.77      0.00
   -9    7    6      0.76      0.00
   -7    7    6      0.94      0.00
   -5    7    6     -0.11      0.00
   -3    7    6     -1.67      0.00
   -1    7    6     -2.79      0.00
    1    7    6     -5.69      0.00
    3    7    6     -8.43      0.00
    5    7    6     -6.96      0.00
    7    7    6     -5.12      0.00
    9    7    6     -4.38      0.00
   11    7    6     -3.79      0.00
   13    7    6     -0.68      0.00
   15    7    6      2.42      0.00
   17    7    6      2.38      0.00
  -28    8    6     -0.71      0.00
  -26    8    6      0.85      0.00
  -24    8    6      2.72      0.00
  -22    8    6      2.28      0.00
  -20    8    6      2.71      0.00
  -18    8    6      2.86      0.00
  -16    8    6      1.54      0.00
  -14    8    6     -0.01      0.00
  -12    8    6     -1.83      0.00
  -10    8    6     -2.57      0.00
   -8    8    6     -0.40      0.00
   -6    8    6      1.45      0.00
   -4    8    6      1.62      0.00
   -2    8    6      2.75      0.00
    0    8    6      2.09      0.00
    2    8    6     -2.36      0.00
    4    8    6     -5.30      0.00
    6    8    6     -6.11      0.00
    8    8    6     -6.24      0.00
   10    8    6     -4.77      0.00
   12    8    6     -2.38      0.00
   14    8    6     -0.53      0.00
   16    8    6      0.22      0.00
  -27    9    6      0.04      0.00
  -25    9    6      1.43      0.00
  -23    9    6      1.84      0.00
  -21    9    6      2.20      0.00
  -19    9    6      1.99      0.00
  -17    9    6      0.80      0.00
  -15    9    6     -1.74      0.00
  -13    9    6     -4.17      0.00
  -11    9    6     -5.36      0.00
   -9    9    6     -2.48      0.00
   -7    9    6      0.96      0.00
   -5    9    6      2.92      0.00
   -3    9    6      4.39      0.00
   -1    9    6      5.57      0.00
    1    9    6      4.93      0.00
    3    9    6      1.49      0.00
    5    9    6     -3.11      0.00
    7    9    6     -5.99      0.00
    9    9    6     -6.28      0.00
   11    9    6     -3.08      0.00
   13    9    6     -1.19      0.00
   15    9    6     -0.92      0.00
  -26   10    6      1.60      0.00
  -24   10    6      1.45      0.00
  -22   10    6      0.63      0.00
  -20   10    6      0.43      0.00
  -18   10    6      0.35      0.00
  -16   10    6     -1.76      0.00
  -14   10    6     -4.80      0.00
  -12   10    6     -5.52      0.00
  -10   10    6     -3.75      0.00
   -8   10    6     -0.71      0.00
   -6   10    6      1.92      0.00
   -4   10    6      3.74      0.00
   -2   10    6      5.12      0.00
    0   10    6      6.03      0.00
    2   10    6      5.11      0.00
    4   10    6      1.10      0.00
    6   10    6     -2.63      0.00
    8   10    6     -5.21      0.00
   10   10    6     -4.89      0.00
   12   10    6     -2.47      0.00
   14   10    6     -0.79      0.00
  -25   11    6      2.57      0.00
  -23   11    6      1.10      0.00
  -21   11    6     -1.17      0.00
  -19   11    6     -0.61      0.00
  -17   11    6     -1.10      0.00
  -15   11    6     -3.11      0.00
  -13   11    6     -4.29      0.00
  -11   11    6     -4.21      0.00
   -9   11    6     -2.81      0.00
   -7   11    6      0.40      0.00
   -5   11    6      1.89      0.00
   -3   11    6      3.45      0.00
   -1   11    6      5.37      0.00
    1   11    6      3.86      0.00
    3   11    6      0.63      0.00
    5   11    6     -1.27      0.00
    7   11    6     -2.63      0.00
    9   11    6     -3.49      0.00
   11   11    6     -3.72      0.00
   13   11    6     -2.00      0.00
  -24   12    6      2.05      0.00
  -22   12    6      0.33      0.00
  -20   12    6     -0.91      0.00
  -18   12    6     -1.57      0.00
  -16   12    6     -2.35      0.00
  -14   12    6     -2.50      0.00
  -12   12    6     -3.30      0.00
  -10   12    6     -4.06      0.00
   -8   12    6     -2.25      0.00
   -6   12    6      1.10      0.00
   -4   12    6      2.66      0.00
   -2   12    6      3.31      0.00
    0   12    6      2.43      0.00
    2   12    6     -0.53      0.00
    4   12    6     -2.02      0.00
    6   12    6     -2.52      0.00
    8   12    6     -1.85      0.00
   10   12    6     -2.04      0.00
   12   12    6     -1.97      0.00
  -23   13    6      1.07      0.00
  -21   13    6      1.08      0.00
  -19   13    6     -1.53      0.00
  -17   13    6     -3.13      0.00
  -15   13    6     -2.30      0.00
  -13   13    6     -2.05      0.00
  -11   13    6     -2.53      0.00
   -9   13    6     -2.20      0.00
   -7   13    6     -0.41      0.00
   -5   13    6      2.80      0.00
   -3   13    6      2.40      0.00
   -1   13    6     -0.26      0.00
    1   13    6     -0.73      0.00
    3   13    6     -0.69      0.00
    5   13    6     -1.70      0.00
    7   13    6     -1.70      0.00
    9   13    6     -0.90      0.00
   11   13    6     -0.50      0.00
  -22   14    6      1.69      0.00
  -20   14    6     -0.18      0.00
  -18   14    6     -3.41      0.00
  -16   14    6     -2.61      0.00
  -14   14    6     -0.51      0.00
  -12   14    6     -0.49      0.00
  -10   14    6     -0.03      0.00
   -8   14    6      1.44      0.00
   -6   14    6      2.05      0.00
   -4   14    6      1.61      0.00
   -2   14    6     -0.74      0.00
    0   14    6     -1.55      0.00
    2   14    6      0.46      0.00
    4   14    6      0.46      0.00
    6   14    6     -0.13      0.00
    8   14    6     -0.44      0.00
   10   14    6     -0.09      0.00
  -21   15    6      0.86      0.00
  -19   15    6     -2.22      0.00
  -17   15    6     -2.43      0.00
  -15   15    6      0.81      0.00
  -13   15    6      2.56      0.00
  -11   15    6      1.50      0.00
   -9   15    6      1.96      0.00
   -7   15    6      3.04      0.00
   -5   15    6      1.14      0.00
   -3   15    6     -0.43      0.00
   -1   15    6     -0.40      0.00
    1   15    6      0.42      0.00
    3   15    6      1.02      0.00
    5   15    6      1.04      0.00
    7   15    6      0.69      0.00
    9   15    6     -0.32      0.00
  -18   16    6     -0.77      0.00
  -16   16    6      1.53      0.00
  -14   16    6      3.77      0.00
  -12   16    6      2.94      0.00
  -10   16    6      1.09      0.00
   -8   16    6      1.12      0.00
   -6   16    6      1.40      0.00
   -4   16    6      0.41      0.00
   -2   16    6      0.72      0.00
    0   16    6      1.15      0.00
    2   16    6      0.41      0.00
    4   16    6      0.79      0.00
    6   16    6      0.67      0.00
    8   16    6     -0.26      0.00
  -17   17    6      2.48      0.00
  -15   17    6      4.08      0.00
  -13   17    6      2.48      0.00
  -11   17    6     -0.21      0.00
   -9   17    6     -0.38      0.00
   -7   17    6      0.27      0.00
   -5   17    6      0.14      0.00
   -3   17    6      0.27      0.00
   -1   17    6      1.16      0.00
    1   17    6      0.39      0.00
    3   17    6     -0.12      0.00
    5   17    6      0.32      0.00
  -14   18    6      3.09      0.00
  -12   18    6     -0.57      0.00
  -10   18    6     -1.64      0.00
   -8   18    6      0.39      0.00
   -6   18    6      0.05      0.00
   -4   18    6     -1.49      0.00
   -2   18    6     -1.09      0.00
    0   18    6     -0.19      0.00
    2   18    6     -0.33      0.00
  -11   19    6     -0.11      0.00
   -9   19    6      0.09      0.00
   -7   19    6      0.43      0.00
   -5   19    6     -1.25      0.00
   -3   19    6     -2.52      0.00
   -1   19    6     -1.97      0.00
  -31    1    7     -0.31      0.00
  -29    1    7      1.10      0.00
  -27    1    7      0.63      0.00
  -25    1    7     -1.15      0.00
  -23    1    7     -1.09      0.00
  -21    1    7     -1.65      0.00
  -19    1    7     -0.22      0.00
  -17    1    7      2.43      0.00
  -15    1    7      4.15      0.00
  -13    1    7      0.97      0.00
  -11    1    7     -3.66      0.00
   -9    1    7     -5.56      0.00
   -7    1    7     -1.59      0.00
   -5    1    7      2.03      0.00
   -3    1    7      4.54      0.00
   -1    1    7      6.65      0.00
    1    1    7      5.21      0.00
    3    1    7      3.00      0.00
    5    1    7      0.84      0.00
    7    1    7     -0.04      0.00
    9    1    7     -1.48      0.00
   11    1    7     -0.61      0.00
   13    1    7      0.38      0.00
   15    1    7     -0.24      0.00
   17    1    7      0.29      0.00
  -30    2    7      1.05      0.00
  -28    2    7      2.03      0.00
  -26    2    7     -0.29      0.00
  -24    2    7     -2.19      0.00
  -22    2    7     -3.02      0.00
  -20    2    7     -1.54      0.00
  -18    2    7      2.15      0.00
  -16    2    7      4.40      0.00
  -14    2    7      2.62      0.00
  -12    2    7     -0.84      0.00
  -10    2    7     -4.28      0.00
   -8    2    7     -5.57      0.00
   -6    2    7     -0.31      0.00
   -4    2    7      4.54      0.00
   -2    2    7      7.54      0.00
    0    2    7      9.86      0.00
    2    2    7      8.64      0.00
    4    2    7      3.19      0.00
    6    2    7     -0.37      0.00
    8    2    7     -1.42      0.00
   10    2    7     -1.36      0.00
   12    2    7      0.18      0.00
   14    2    7      0.80      0.00
   16    2    7      0.32      0.00
  -31    3    7      0.42      0.00
  -29    3    7      2.60      0.00
  -27    3    7      0.82      0.00
  -25    3    7     -2.03      0.00
  -23    3    7     -3.88      0.00
  -21    3    7     -2.39      0.00
  -19    3    7      0.97      0.00
  -17    3    7      2.77      0.00
  -15    3    7      1.50      0.00
  -13    3    7      1.23      0.00
  -11    3    7     -0.54      0.00
   -9    3    7     -4.07      0.00
   -7    3    7     -3.12      0.00
   -5    3    7      1.92      0.00
   -3    3    7      3.85      0.00
   -1    3    7      6.84      0.00
    1    3    7     11.70      0.00
    3    3    7      8.86      0.00
    5    3    7      1.41      0.00
    7    3    7     -2.67      0.00
    9    3    7     -1.65      0.00
   11    3    7      0.46      0.00
   13    3    7      2.04      0.00
   15    3    7      1.61      0.00
   17    3    7     -0.01      0.00
  -30    4    7      1.56      0.00
  -28    4    7      1.08      0.00
  -26    4    7     -1.77      0.00
  -24    4    7     -3.83      0.00
  -22    4    7     -2.63      0.00
  -20    4    7      0.10      0.00
  -18    4    7      1.02      0.00
  -16    4    7     -0.15      0.00
  -14    4    7      0.71      0.00
  -12    4    7      0.71      0.00
  -10    4    7     -4.34      0.00
   -8    4    7     -5.04      0.00
   -6    4    7     -1.00      0.00
   -4    4    7      2.02      0.00
   -2    4    7      2.89      0.00
    0    4    7      7.37      0.00
    2    4    7     10.40      0.00
    4    4    7      6.13      0.00
    6    4    7     -1.29      0.00
    8    4    7     -3.00      0.00
   10    4    7      0.00      0.00
   12    4    7      3.19      0.00
   14    4    7      3.88      0.00
   16    4    7      1.76      0.00
  -29    5    7     -0.45      0.00
  -27    5    7     -1.35      0.00
  -25    5    7     -3.11      0.00
  -23    5    7     -2.84      0.00
  -21    5    7     -0.95      0.00
  -19    5    7     -0.46      0.00
  -17    5    7     -1.71      0.00
  -15    5    7     -1.90      0.00
  -13    5    7     -1.19      0.00
  -11    5    7     -3.92      0.00
   -9    5    7     -8.40      0.00
   -7    5    7     -7.29      0.00
   -5    5    7     -0.64      0.00
   -3    5    7      4.27      0.00
   -1    5    7      5.60      0.00
    1    5    7      6.83      0.00
    3    5    7      5.93      0.00
    5    5    7      1.23      0.00
    7    5    7     -1.55      0.00
    9    5    7     -0.21      0.00
   11    5    7      2.64      0.00
   13    5    7      5.12      0.00
   15    5    7      5.07      0.00
  -30    6    7     -0.94      0.00
  -28    6    7     -1.16      0.00
  -26    6    7     -1.73      0.00
  -24    6    7     -2.80      0.00
  -22    6    7     -2.48      0.00
  -20    6    7     -2.04      0.00
  -18    6    7     -3.15      0.00
  -16    6    7     -5.04      0.00
  -14    6    7     -5.50      0.00
  -12    6    7     -5.27      0.00
  -10    6    7     -6.25      0.00
   -8    6    7     -9.40      0.00
   -6    6    7     -6.47      0.00
   -4    6    7      1.55      0.00
   -2    6    7      6.53      0.00
    2    6    7      3.62      0.00
    4    6    7      0.14      0.00
    6    6    7     -0.68      0.00
    8    6    7      1.04      0.00
   10    6    7      3.71      0.00
   12    6    7      5.27      0.00
   14    6    7      6.08      0.00
   16    6    7      4.32      0.00
  -29    7    7      0.80      0.00
  -27    7    7      0.39      0.00
  -25    7    7     -2.15      0.00
  -23    7    7     -3.63      0.00
  -21    7    7     -3.10      0.00
  -19    7    7     -3.82      0.00
  -17    7    7     -7.29      0.00
  -15    7    7     -8.91      0.00
  -13    7    7     -7.65      0.00
  -11    7    7     -5.08      0.00
   -9    7    7     -2.75      0.00
   -7    7    7     -3.00      0.00
   -5    7    7     -3.34      0.00
   -3    7    7      0.23      0.00
   -1    7    7      3.11      0.00
    1    7    7      1.69      0.00
    3    7    7     -0.62      0.00
    5    7    7     -0.92      0.00
    7    7    7      0.81      0.00
    9    7    7      4.44      0.00
   11    7    7      7.33      0.00
   13    7    7      6.33      0.00
   15    7    7      3.18      0.00
  -28    8    7      2.88      0.00
  -26    8    7      0.71      0.00
  -24    8    7     -2.98      0.00
  -22    8    7     -3.30      0.00
  -20    8    7     -3.25      0.00
  -18    8    7     -7.41      0.00
  -16    8    7     -9.60      0.00
  -14    8    7     -8.31      0.00
  -12    8    7     -4.88      0.00
  -10    8    7      1.66      0.00
   -8    8    7      6.39      0.00
   -6    8    7      1.02      0.00
   -4    8    7     -5.11      0.00
   -2    8    7     -4.94      0.00
    0    8    7     -4.44      0.00
    2    8    7     -3.78      0.00
    4    8    7     -0.84      0.00
    6    8    7      1.02      0.00
    8    8    7      3.91      0.00
   10    8    7      7.22      0.00
   12    8    7      7.07      0.00
   14    8    7      2.07      0.00
  -27    9    7      2.98      0.00
  -25    9    7      1.00      0.00
  -23    9    7     -1.60      0.00
  -21    9    7     -2.34      0.00
  -19    9    7     -6.12      0.00
  -17    9    7     -8.13      0.00
  -15    9    7     -6.16      0.00
  -13    9    7     -4.19      0.00
  -11    9    7      1.93      0.00
   -9    9    7      9.93      0.00
   -7    9    7      7.83      0.00
   -5    9    7     -2.38      0.00
   -3    9    7     -8.45      0.00
   -1    9    7     -9.07      0.00
    1    9    7     -8.39      0.00
    3    9    7     -4.37      0.00
    5    9    7      0.19      0.00
    7    9    7      3.25      0.00
    9    9    7      5.92      0.00
   11    9    7      5.77      0.00
   13    9    7      1.30      0.00
  -26   10    7      2.95      0.00
  -24   10    7      1.32      0.00
  -22   10    7     -0.96      0.00
  -20   10    7     -4.23      0.00
  -18   10    7     -5.91      0.00
  -16   10    7     -4.02      0.00
  -14   10    7     -1.86      0.00
  -12   10    7      0.21      0.00
  -10   10    7      6.62      0.00
   -8   10    7      9.53      0.00
   -6   10    7      2.58      0.00
   -4   10    7     -6.42      0.00
   -2   10    7     -8.48      0.00
    0   10    7     -7.06      0.00
    2   10    7     -5.76      0.00
    4   10    7     -2.59      0.00
    6   10    7      1.00      0.00
    8   10    7      3.16      0.00
   10   10    7      4.16      0.00
   12   10    7      0.66      0.00
   14   10    7     -2.74      0.00
  -25   11    7      0.93      0.00
  -23   11    7     -0.85      0.00
  -21   11    7     -2.43      0.00
  -19   11    7     -2.84      0.00
  -17   11    7     -2.24      0.00
  -15   11    7     -0.88      0.00
  -13   11    7     -0.14      0.00
  -11   11    7      1.84      0.00
   -9   11    7      6.40      0.00
   -7   11    7      5.14      0.00
   -5   11    7     -2.50      0.00
   -3   11    7     -6.02      0.00
   -1   11    7     -4.05      0.00
    1   11    7     -2.13      0.00
    3   11    7     -1.68      0.00
    5   11    7     -0.26      0.00
    7   11    7      0.63      0.00
    9   11    7      1.50      0.00
   11   11    7      0.32      0.00
   13   11    7     -2.45      0.00
  -24   12    7     -2.29      0.00
  -22   12    7     -2.43      0.00
  -20   12    7     -0.65      0.00
  -18   12    7     -0.32      0.00
  -16   12    7     -0.05      0.00
  -14   12    7      0.01      0.00
  -12   12    7     -0.04      0.00
  -10   12    7      2.77      0.00
   -8   12    7      5.12      0.00
   -6   12    7      0.74      0.00
   -4   12    7     -3.37      0.00
   -2   12    7     -2.48      0.00
    0   12    7     -0.23      0.00
    2   12    7      0.85      0.00
    4   12    7      0.78      0.00
    6   12    7      0.72      0.00
    8   12    7      1.13      0.00
   10   12    7     -0.11      0.00
   12   12    7     -2.21      0.00
  -23   13    7     -1.77      0.00
  -21   13    7      0.01      0.00
  -19   13    7      0.30      0.00
  -17   13    7     -0.05      0.00
  -15   13    7      0.70      0.00
  -13   13    7      0.85      0.00
  -11   13    7      1.05      0.00
   -9   13    7      2.80      0.00
   -7   13    7      2.89      0.00
   -5   13    7     -0.47      0.00
   -3   13    7     -1.85      0.00
   -1   13    7      0.25      0.00
    1   13    7      1.28      0.00
    3   13    7      0.77      0.00
    5   13    7      0.27      0.00
    7   13    7      1.88      0.00
    9   13    7      1.48      0.00
   11   13    7     -1.25      0.00
  -22   14    7      1.45      0.00
  -20   14    7      0.64      0.00
  -18   14    7     -0.40      0.00
  -16   14    7     -0.51      0.00
  -14   14    7      0.59      0.00
  -12   14    7      1.49      0.00
  -10   14    7      0.74      0.00
   -8   14    7      0.92      0.00
   -6   14    7      2.10      0.00
   -4   14    7      0.61      0.00
   -2   14    7      0.29      0.00
    0   14    7      1.62      0.00
    2   14    7      0.36      0.00
    4   14    7     -1.44      0.00
    6   14    7      0.14      0.00
    8   14    7      1.76      0.00
   10   14    7      0.12      0.00
  -21   15    7      0.92      0.00
  -19   15    7      0.32      0.00
  -17   15    7     -0.27      0.00
  -15   15    7     -1.94      0.00
  -13   15    7     -1.31      0.00
  -11   15    7      0.37      0.00
   -9   15    7     -0.60      0.00
   -7   15    7      0.21      0.00
   -5   15    7      3.10      0.00
   -3   15    7      2.47      0.00
   -1   15    7      1.14      0.00
    1   15    7      0.70      0.00
    3   15    7     -1.59      0.00
    5   15    7     -1.54      0.00
    7   15    7     -0.04      0.00
  -20   16    7     -0.18      0.00
  -18   16    7      1.25      0.00
  -16   16    7     -1.34      0.00
  -14   16    7     -4.06      0.00
  -12   16    7     -2.17      0.00
  -10   16    7     -0.49      0.00
   -8   16    7     -0.68      0.00
   -6   16    7      1.71      0.00
   -4   16    7      3.86      0.00
   -2   16    7      1.65      0.00
    0   16    7     -0.23      0.00
    2   16    7     -0.99      0.00
    4   16    7     -1.44      0.00
    6   16    7     -0.71      0.00
  -17   17    7      0.22      0.00
  -15   17    7     -3.21      0.00
  -13   17    7     -2.40      0.00
  -11   17    7     -0.19      0.00
   -9   17    7     -0.45      0.00
   -7   17    7      0.13      0.00
   -5   17    7      2.17      0.00
   -3   17    7      2.02      0.00
   -1   17    7     -0.44      0.00
    1   17    7     -1.86      0.00
    3   17    7     -1.48      0.00
  -14   18    7     -2.05      0.00
  -12   18    7      1.16      0.00
  -10   18    7      1.88      0.00
   -8   18    7     -0.72      0.00
   -6   18    7     -0.83      0.00
   -4   18    7      1.08      0.00
   -2   18    7      0.84      0.00
    0   18    7     -1.50      0.00
   -9   19    7      1.67      0.00
   -7   19    7     -1.88      0.00
   -5   19    7     -1.42      0.00
  -30    0    8      0.73      0.00
  -28    0    8      2.19      0.00
  -26    0    8      2.23      0.00
  -24    0    8      4.03      0.00
  -22    0    8      6.44      0.00
  -20    0    8      4.19      0.00
  -18    0    8      5.19      0.00
  -16    0    8      8.19      0.00
  -14    0    8      5.19      0.00
  -12    0    8     -7.03      0.00
  -10    0    8    -18.33      0.00
   -8    0    8    -22.31      0.00
   -6    0    8    -16.53      0.00
   -4    0    8     -8.60      0.00
   -2    0    8     -5.17      0.00
    0    0    8     -5.06      0.00
    2    0    8     -5.43      0.00
    4    0    8     -4.45      0.00
    6    0    8     -2.03      0.00
    8    0    8      1.17      0.00
   10    0    8      1.01      0.00
   12    0    8      2.83      0.00
   14    0    8      3.96      0.00
   16    0    8      0.95      0.00
  -31    1    8      0.19      0.00
  -29    1    8      1.47      0.00
  -27    1    8      1.29      0.00
  -25    1    8      1.93      0.00
  -23    1    8      4.75      0.00
  -21    1    8      4.55      0.00
  -19    1    8      3.49      0.00
  -17    1    8      5.96      0.00
  -15    1    8      5.99      0.00
  -13    1    8     -1.20      0.00
  -11    1    8     -9.91      0.00
   -9    1    8    -15.19      0.00
   -7    1    8    -15.31      0.00
   -5    1    8     -9.77      0.00
   -3    1    8     -5.91      0.00
   -1    1    8     -5.18      0.00
    1    1    8     -4.66      0.00
    3    1    8     -4.41      0.00
    5    1    8     -3.82      0.00
    7    1    8     -1.07      0.00
    9    1    8      0.86      0.00
   11    1    8      1.58      0.00
   13    1    8      2.84      0.00
   15    1    8      2.22      0.00
  -30    2    8      1.06      0.00
  -28    2    8      0.77      0.00
  -26    2    8     -0.74      0.00
  -24    2    8      1.35      0.00
  -22    2    8      2.76      0.00
  -20    2    8      2.47      0.00
  -18    2    8      2.73      0.00
  -16    2    8      3.56      0.00
  -14    2    8      0.30      0.00
  -12    2    8     -2.20      0.00
  -10    2    8     -3.36      0.00
   -8    2    8     -4.30      0.00
   -6    2    8     -4.04      0.00
   -4    2    8     -3.37      0.00
   -2    2    8     -4.84      0.00
    0    2    8     -5.03      0.00
    2    2    8     -3.85      0.00
    4    2    8     -4.03      0.00
    6    2    8     -3.13      0.00
    8    2    8     -1.68      0.00
   10    2    8      0.49      0.00
   12    2    8      1.14      0.00
   14    2    8      1.19      0.00
   16    2    8      1.34      0.00
  -31    3    8      0.19      0.00
  -29    3    8      1.20      0.00
  -27    3    8     -0.88      0.00
  -25    3    8     -1.65      0.00
  -23    3    8      0.40      0.00
  -21    3    8      1.55      0.00
  -19    3    8      0.88      0.00
  -17    3    8      0.76      0.00
  -15    3    8      0.56      0.00
  -13    3    8      0.89      0.00
  -11    3    8      2.14      0.00
   -9    3    8      2.86      0.00
   -7    3    8      3.99      0.00
   -5    3    8      2.63      0.00
   -3    3    8     -0.26      0.00
   -1    3    8     -4.00      0.00
    1    3    8     -5.48      0.00
    3    3    8     -4.78      0.00
    5    3    8     -3.26      0.00
    7    3    8     -2.92      0.00
    9    3    8     -1.96      0.00
   11    3    8     -0.43      0.00
   13    3    8      0.15      0.00
   15    3    8      0.61      0.00
  -30    4    8      0.82      0.00
  -28    4    8     -0.51      0.00
  -26    4    8     -1.39      0.00
  -24    4    8     -0.89      0.00
  -22    4    8      1.09      0.00
  -20    4    8      0.23      0.00
  -18    4    8     -1.35      0.00
  -16    4    8     -0.29      0.00
  -14    4    8      1.48      0.00
  -12    4    8      2.12      0.00
  -10    4    8      4.58      0.00
   -8    4    8      6.96      0.00
   -6    4    8      5.86      0.00
   -4    4    8      3.71      0.00
   -2    4    8      0.96      0.00
    0    4    8     -3.81      0.00
    2    4    8     -5.65      0.00
    4    4    8     -4.13      0.00
    6    4    8     -3.37      0.00
    8    4    8     -2.41      0.00
   10    4    8     -1.62      0.00
   12    4    8     -1.42      0.00
   14    4    8     -0.50      0.00
  -31    5    8      1.24      0.00
  -29    5    8     -0.83      0.00
  -27    5    8     -1.32      0.00
  -25    5    8     -0.48      0.00
  -23    5    8      0.82      0.00
  -21    5    8      0.68      0.00
  -19    5    8     -1.99      0.00
  -17    5    8     -2.39      0.00
  -15    5    8     -0.14      0.00
  -13    5    8      0.58      0.00
  -11    5    8      2.90      0.00
   -9    5    8      8.14      0.00
   -7    5    8      7.57      0.00
   -5    5    8      4.29      0.00
   -3    5    8      2.93      0.00
   -1    5    8      0.98      0.00
    1    5    8     -2.20      0.00
    3    5    8     -2.80      0.00
    5    5    8     -3.47      0.00
    7    5    8     -3.03      0.00
    9    5    8     -1.61      0.00
   11    5    8     -1.64      0.00
   13    5    8     -2.06      0.00
   15    5    8     -0.02      0.00
  -30    6    8     -0.86      0.00
  -28    6    8     -1.16      0.00
  -26    6    8     -1.21      0.00
  -24    6    8     -0.28      0.00
  -22    6    8      0.63      0.00
  -20    6    8     -0.33      0.00
  -18    6    8     -2.53      0.00
  -16    6    8     -2.92      0.00
  -14    6    8     -0.88      0.00
  -12    6    8      1.78      0.00
  -10    6    8      5.59      0.00
   -8    6    8      8.29      0.00
   -6    6    8      6.42      0.00
   -4    6    8      3.38      0.00
   -2    6    8      3.17      0.00
    0    6    8      2.62      0.00
    2    6    8      0.89      0.00
    4    6    8     -0.37      0.00
    6    6    8     -1.88      0.00
    8    6    8     -2.44      0.00
   10    6    8     -1.78      0.00
   12    6    8     -1.54      0.00
   14    6    8     -0.91      0.00
  -29    7    8     -1.35      0.00
  -27    7    8     -1.39      0.00
  -25    7    8     -1.95      0.00
  -23    7    8     -0.91      0.00
  -21    7    8      0.94      0.00
  -19    7    8      0.45      0.00
  -17    7    8     -2.47      0.00
  -15    7    8     -1.79      0.00
  -13    7    8      1.26      0.00
  -11    7    8      3.07      0.00
   -9    7    8      4.29      0.00
   -7    7    8      5.54      0.00
   -5    7    8      4.75      0.00
   -3    7    8      5.03      0.00
   -1    7    8      5.98      0.00
    1    7    8      4.55      0.00
    3    7    8      2.40      0.00
    5    7    8      1.03      0.00
    7    7    8     -1.57      0.00
    9    7    8     -2.12      0.00
   11    7    8     -1.31      0.00
   13    7    8     -0.46      0.00
  -28    8    8     -2.23      0.00
  -26    8    8     -1.90      0.00
  -24    8    8     -1.30      0.00
  -22    8    8      0.54      0.00
  -20    8    8      2.46      0.00
  -18    8    8      0.57      0.00
  -16    8    8     -0.45      0.00
  -14    8    8      0.92      0.00
  -12    8    8      0.62      0.00
  -10    8    8      0.24      0.00
   -8    8    8      0.93      0.00
   -6    8    8      1.97      0.00
   -4    8    8      4.71      0.00
   -2    8    8      7.45      0.00
    0    8    8      7.82      0.00
    2    8    8      5.22      0.00
    4    8    8      2.26      0.00
    6    8    8     -0.54      0.00
    8    8    8     -1.94      0.00
   10    8    8     -1.12      0.00
   12    8    8     -0.58      0.00
   14    8    8     -0.27      0.00
  -29    9    8     -1.45      0.00
  -27    9    8     -1.81      0.00
  -25    9    8      0.10      0.00
  -23    9    8      0.91      0.00
  -21    9    8      1.75      0.00
  -19    9    8      2.00      0.00
  -17    9    8      1.29      0.00
  -15    9    8      0.35      0.00
  -13    9    8     -0.58      0.00
  -11    9    8     -2.62      0.00
   -9    9    8     -2.88      0.00
   -7    9    8     -1.31      0.00
   -5    9    8      1.05      0.00
   -3    9    8      4.13      0.00
   -1    9    8      7.26      0.00
    1    9    8      7.50      0.00
    3    9    8      4.09      0.00
    5    9    8      0.39      0.00
    7    9    8     -1.40      0.00
    9    9    8     -2.21      0.00
   11    9    8     -1.27      0.00
   13    9    8     -0.62      0.00
  -28   10    8     -0.23      0.00
  -26   10    8      0.97      0.00
  -24   10    8      1.82      0.00
  -22   10    8      0.91      0.00
  -20   10    8      0.57      0.00
  -18   10    8      1.56      0.00
  -16   10    8     -0.17      0.00
  -14   10    8     -1.90      0.00
  -12   10    8     -2.33      0.00
  -10   10    8     -4.23      0.00
   -8   10    8     -3.44      0.00
   -6   10    8     -1.02      0.00
   -4   10    8     -0.30      0.00
   -2   10    8      2.50      0.00
    0   10    8      5.23      0.00
    2   10    8      4.43      0.00
    4   10    8      1.82      0.00
    6   10    8      0.95      0.00
    8   10    8     -1.20      0.00
   10   10    8     -3.29      0.00
   12   10    8     -1.99      0.00
  -27   11    8      1.11      0.00
  -25   11    8      1.82      0.00
  -23   11    8      1.28      0.00
  -21   11    8     -0.19      0.00
  -19   11    8     -0.03      0.00
  -17   11    8     -0.70      0.00
  -15   11    8     -1.89      0.00
  -13   11    8     -1.71      0.00
  -11   11    8     -2.39      0.00
   -9   11    8     -4.06      0.00
   -7   11    8     -2.68      0.00
   -5   11    8     -1.75      0.00
   -3   11    8     -1.36      0.00
   -1   11    8      0.93      0.00
    1   11    8      1.92      0.00
    3   11    8      1.17      0.00
    5   11    8      1.89      0.00
    7   11    8      1.79      0.00
    9   11    8     -1.31      0.00
   11   11    8     -3.40      0.00
  -26   12    8      0.02      0.00
  -24   12    8      1.50      0.00
  -22   12    8      1.41      0.00
  -20   12    8      0.30      0.00
  -18   12    8     -1.50      0.00
  -16   12    8     -2.20      0.00
  -14   12    8     -0.84      0.00
  -12   12    8     -0.49      0.00
  -10   12    8     -2.92      0.00
   -8   12    8     -4.17      0.00
   -6   12    8     -2.18      0.00
   -4   12    8     -1.78      0.00
   -2   12    8     -2.34      0.00
    0   12    8     -0.35      0.00
    2   12    8      0.22      0.00
    4   12    8      0.70      0.00
    6   12    8      1.57      0.00
    8   12    8      1.01      0.00
   10   12    8     -1.25      0.00
  -25   13    8     -0.31      0.00
  -23   13    8      2.07      0.00
  -21   13    8      2.27      0.00
  -19   13    8      0.04      0.00
  -17   13    8     -2.28      0.00
  -15   13    8     -2.48      0.00
  -13   13    8     -0.59      0.00
  -11   13    8     -1.16      0.00
   -9   13    8     -3.50      0.00
   -7   13    8     -2.91      0.00
   -5   13    8     -0.97      0.00
   -3   13    8     -2.45      0.00
   -1   13    8     -2.51      0.00
    1   13    8      0.12      0.00
    3   13    8      0.74      0.00
    5   13    8      0.24      0.00
    7   13    8      0.21      0.00
    9   13    8     -0.48      0.00
  -24   14    8      0.23      0.00
  -22   14    8      1.99      0.00
  -20   14    8      1.17      0.00
  -18   14    8     -0.94      0.00
  -16   14    8     -2.82      0.00
  -14   14    8     -3.09      0.00
  -12   14    8     -1.81      0.00
  -10   14    8     -1.05      0.00
   -8   14    8     -1.37      0.00
   -6   14    8     -1.27      0.00
   -4   14    8     -1.49      0.00
   -2   14    8     -2.44      0.00
    0   14    8     -1.28      0.00
    2   14    8      1.21      0.00
    4   14    8      0.46      0.00
    6   14    8     -0.44      0.00
    8   14    8     -0.96      0.00
  -21   15    8      0.30      0.00
  -19   15    8     -1.11      0.00
  -17   15    8     -2.22      0.00
  -15   15    8     -2.48      0.00
  -13   15    8     -2.21      0.00
  -11   15    8     -0.66      0.00
   -9   15    8      0.35      0.00
   -7   15    8     -0.35      0.00
   -5   15    8     -1.62      0.00
   -3   15    8     -2.06      0.00
   -1   15    8     -1.71      0.00
    1   15    8     -0.08      0.00
    3   15    8      0.73      0.00
    5   15    8     -0.18      0.00
    7   15    8     -0.78      0.00
  -20   16    8     -1.07      0.00
  -18   16    8     -2.26      0.00
  -16   16    8     -1.89      0.00
  -14   16    8     -0.23      0.00
  -12   16    8      1.00      0.00
  -10   16    8      0.16      0.00
   -8   16    8     -0.78      0.00
   -6   16    8     -1.37      0.00
   -4   16    8     -2.23      0.00
   -2   16    8     -1.92      0.00
    0   16    8     -0.88      0.00
    2   16    8     -0.56      0.00
    4   16    8     -0.22      0.00
  -17   17    8     -1.32      0.00
  -15   17    8      0.02      0.00
  -13   17    8      1.54      0.00
  -11   17    8      0.70      0.00
   -9   17    8     -0.93      0.00
   -7   17    8     -2.00      0.00
   -5   17    8     -2.38      0.00
   -3   17    8     -1.73      0.00
   -1   17    8     -0.89      0.00
    1   17    8     -1.32      0.00
    3   17    8     -1.39      0.00
  -14   18    8      0.40      0.00
  -12   18    8     -1.29      0.00
  -10   18    8     -0.79      0.00
   -8   18    8     -0.35      0.00
   -6   18    8     -1.98      0.00
   -4   18    8     -1.74      0.00
   -2   18    8     -0.40      0.00
  -31    1    9     -0.46      0.00
  -29    1    9     -0.42      0.00
  -27    1    9     -1.27      0.00
  -25    1    9     -1.04      0.00
  -23    1    9      0.43      0.00
  -21    1    9      0.29      0.00
  -19    1    9      1.28      0.00
  -17    1    9      2.91      0.00
  -15    1    9      4.12      0.00
  -13    1    9      1.66      0.00
  -11    1    9     -0.54      0.00
   -9    1    9     -3.42      0.00
   -7    1    9     -5.61      0.00
   -5    1    9     -5.78      0.00
   -3    1    9     -3.75      0.00
   -1    1    9     -0.97      0.00
    1    1    9      1.30      0.00
    3    1    9      1.75      0.00
    5    1    9      1.64      0.00
    7    1    9      2.24      0.00
    9    1    9      0.90      0.00
   11    1    9      0.18      0.00
   13    1    9     -1.22      0.00
   15    1    9     -1.72      0.00
  -32    2    9     -0.87      0.00
  -30    2    9     -0.23      0.00
  -28    2    9      0.34      0.00
  -26    2    9     -0.13      0.00
  -24    2    9      0.34      0.00
  -22    2    9      0.88      0.00
  -20    2    9      2.19      0.00
  -18    2    9      4.76      0.00
  -16    2    9      6.81      0.00
  -14    2    9      5.60      0.00
  -12    2    9      1.14      0.00
  -10    2    9     -4.31      0.00
   -8    2    9     -8.03      0.00
   -6    2    9     -9.09      0.00
   -4    2    9     -8.76      0.00
   -2    2    9     -4.30      0.00
    0    2    9      0.51      0.00
    2    2    9      2.01      0.00
    4    2    9      1.77      0.00
    6    2    9      2.70      0.00
    8    2    9      2.13      0.00
   10    2    9     -0.10      0.00
   12    2    9     -1.48      0.00
   14    2    9     -1.93      0.00
  -31    3    9      0.68      0.00
  -29    3    9      1.77      0.00
  -27    3    9      1.75      0.00
  -25    3    9      2.10      0.00
  -23    3    9      1.63      0.00
  -21    3    9      3.00      0.00
  -19    3    9      5.41      0.00
  -17    3    9      7.64      0.00
  -15    3    9      7.95      0.00
  -13    3    9      4.41      0.00
  -11    3    9     -3.74      0.00
   -9    3    9     -7.83      0.00
   -7    3    9     -7.62      0.00
   -5    3    9     -9.14      0.00
   -3    3    9     -8.59      0.00
   -1    3    9     -2.62      0.00
    1    3    9      1.56      0.00
    3    3    9      2.18      0.00
    5    3    9      1.92      0.00
    7    3    9      0.84      0.00
    9    3    9     -0.31      0.00
   11    3    9     -2.06      0.00
   13    3    9     -2.17      0.00
  -32    4    9      0.64      0.00
  -30    4    9      3.36      0.00
  -28    4    9      1.68      0.00
  -26    4    9      2.02      0.00
  -24    4    9      3.08      0.00
  -22    4    9      3.58      0.00
  -20    4    9      5.14      0.00
  -18    4    9      6.23      0.00
  -16    4    9      6.96      0.00
  -14    4    9      6.04      0.00
  -12    4    9     -0.81      0.00
  -10    4    9     -7.33      0.00
   -8    4    9     -6.04      0.00
   -6    4    9     -4.92      0.00
   -4    4    9     -6.79      0.00
   -2    4    9     -5.79      0.00
    0    4    9     -0.43      0.00
    2    4    9      2.82      0.00
    4    4    9      3.19      0.00
    6    4    9      0.62      0.00
    8    4    9     -1.78      0.00
   10    4    9     -2.85      0.00
   12    4    9     -2.90      0.00
   14    4    9     -1.36      0.00
  -31    5    9      2.94      0.00
  -29    5    9      2.23      0.00
  -27    5    9      0.85      0.00
  -25    5    9      1.62      0.00
  -23    5    9      3.28      0.00
  -21    5    9      4.14      0.00
  -19    5    9      4.60      0.00
  -17    5    9      3.95      0.00
  -15    5    9      3.36      0.00
  -13    5    9      1.37      0.00
  -11    5    9     -3.76      0.00
   -9    5    9     -6.68      0.00
   -7    5    9     -4.26      0.00
   -5    5    9     -2.18      0.00
   -3    5    9     -2.61      0.00
   -1    5    9     -1.25      0.00
    1    5    9      1.56      0.00
    3    5    9      2.82      0.00
    5    5    9      2.72      0.00
    7    5    9      0.35      0.00
    9    5    9     -3.39      0.00
   11    5    9     -4.24      0.00
   13    5    9     -1.74      0.00
  -30    6    9      2.40      0.00
  -28    6    9      2.01      0.00
  -26    6    9      1.16      0.00
  -24    6    9      0.91      0.00
  -22    6    9      2.03      0.00
  -20    6    9      2.94      0.00
  -18    6    9      2.15      0.00
  -16    6    9     -0.19      0.00
  -14    6    9     -0.99      0.00
  -12    6    9     -2.05      0.00
  -10    6    9     -4.48      0.00
   -8    6    9     -4.83      0.00
   -6    6    9     -1.95      0.00
   -4    6    9      0.68      0.00
   -2    6    9      1.85      0.00
    0    6    9      0.94      0.00
    2    6    9      0.00      0.00
    4    6    9      0.93      0.00
    6    6    9      2.53      0.00
    8    6    9     -0.38      0.00
   10    6    9     -3.43      0.00
   12    6    9     -2.08      0.00
  -29    7    9      4.11      0.00
  -27    7    9      3.31      0.00
  -25    7    9      1.53      0.00
  -23    7    9      0.33      0.00
  -21    7    9      0.91      0.00
  -19    7    9      0.47      0.00
  -17    7    9     -2.05      0.00
  -15    7    9     -3.62      0.00
  -13    7    9     -4.85      0.00
  -11    7    9     -5.01      0.00
   -9    7    9     -1.80      0.00
   -7    7    9      0.88      0.00
   -5    7    9      1.51      0.00
   -1    7    9      1.26      0.00
    1    7    9     -2.22      0.00
    3    7    9     -2.75      0.00
    5    7    9     -0.35      0.00
    7    7    9      0.29      0.00
    9    7    9     -0.48      0.00
   11    7    9      0.46      0.00
   13    7    9      0.74      0.00
  -30    8    9      4.97      0.00
  -28    8    9      5.79      0.00
  -26    8    9      4.31      0.00
  -24    8    9      2.57      0.00
  -22    8    9      0.66      0.00
  -20    8    9     -1.69      0.00
  -18    8    9     -4.11      0.00
  -16    8    9     -4.85      0.00
  -14    8    9     -6.86      0.00
  -12    8    9     -7.60      0.00
  -10    8    9     -1.91      0.00
   -8    8    9      5.67      0.00
   -6    8    9      6.75      0.00
   -4    8    9      3.74      0.00
   -2    8    9      0.85      0.00
    0    8    9     -2.95      0.00
    2    8    9     -5.57      0.00
    4    8    9     -4.20      0.00
    6    8    9     -2.21      0.00
    8    8    9     -0.14      0.00
   10    8    9      2.19      0.00
   12    8    9      2.88      0.00
  -29    9    9      4.61      0.00
  -27    9    9      6.37      0.00
  -25    9    9      5.49      0.00
  -23    9    9      3.07      0.00
  -21    9    9     -1.67      0.00
  -19    9    9     -6.27      0.00
  -17    9    9     -6.07      0.00
  -15    9    9     -6.14      0.00
  -13    9    9     -7.77      0.00
  -11    9    9     -3.34      0.00
   -9    9    9      5.53      0.00
   -7    9    9     10.07      0.00
   -5    9    9      7.52      0.00
   -3    9    9      2.82      0.00
   -1    9    9     -0.55      0.00
    1    9    9     -5.04      0.00
    3    9    9     -6.66      0.00
    5    9    9     -4.49      0.00
    7    9    9     -0.90      0.00
    9    9    9      1.85      0.00
   11    9    9      2.65      0.00
  -28   10    9      4.01      0.00
  -26   10    9      6.07      0.00
  -24   10    9      4.07      0.00
  -22   10    9      0.24      0.00
  -20   10    9     -4.94      0.00
  -18   10    9     -6.96      0.00
  -16   10    9     -4.82      0.00
  -14   10    9     -4.13      0.00
  -12   10    9     -3.59      0.00
  -10   10    9      2.86      0.00
   -8   10    9      8.28      0.00
   -6   10    9      7.30      0.00
   -4   10    9      4.61      0.00
   -2   10    9      3.02      0.00
    0   10    9     -0.43      0.00
    2   10    9     -4.65      0.00
    4   10    9     -4.95      0.00
    6   10    9     -1.92      0.00
    8   10    9      0.74      0.00
   10   10    9      2.05      0.00
  -27   11    9      2.99      0.00
  -25   11    9      2.32      0.00
  -23   11    9      0.40      0.00
  -21   11    9     -1.78      0.00
  -19   11    9     -4.09      0.00
  -17   11    9     -3.93      0.00
  -15   11    9     -1.21      0.00
  -13   11    9     -0.70      0.00
  -11   11    9      0.41      0.00
   -9   11    9      4.63      0.00
   -7   11    9      5.18      0.00
   -5   11    9      3.07      0.00
   -3   11    9      2.95      0.00
   -1   11    9      1.71      0.00
    1   11    9     -0.59      0.00
    3   11    9     -2.33      0.00
    5   11    9     -1.47      0.00
    7   11    9     -0.61      0.00
    9   11    9      0.65      0.00
  -26   12    9     -0.22      0.00
  -24   12    9     -0.96      0.00
  -22   12    9     -0.38      0.00
  -20   12    9     -0.67      0.00
  -18   12    9     -1.24      0.00
  -16   12    9     -0.37      0.00
  -14   12    9      0.65      0.00
  -12   12    9      1.18      0.00
  -10   12    9      2.09      0.00
   -8   12    9      3.57      0.00
   -6   12    9      2.45      0.00
   -4   12    9      0.63      0.00
   -2   12    9     -0.13      0.00
    0   12    9     -0.53      0.00
    2   12    9     -0.64      0.00
    4   12    9     -0.35      0.00
    6   12    9      0.02      0.00
    8   12    9      0.27      0.00
  -25   13    9     -1.23      0.00
  -23   13    9      0.08      0.00
  -21   13    9      1.33      0.00
  -19   13    9      0.24      0.00
  -17   13    9     -0.29      0.00
  -15   13    9      0.64      0.00
  -13   13    9      1.83      0.00
  -11   13    9      2.34      0.00
   -9   13    9      2.94      0.00
   -7   13    9      2.68      0.00
   -5   13    9      0.07      0.00
   -3   13    9     -1.89      0.00
   -1   13    9     -1.56      0.00
    1   13    9     -1.48      0.00
    3   13    9     -0.66      0.00
    5   13    9      0.24      0.00
    7   13    9      1.69      0.00
  -24   14    9      0.93      0.00
  -22   14    9      2.77      0.00
  -20   14    9      1.89      0.00
  -18   14    9     -1.22      0.00
  -16   14    9     -1.02      0.00
  -14   14    9      2.07      0.00
  -12   14    9      3.23      0.00
  -10   14    9      2.99      0.00
   -8   14    9      1.78      0.00
   -6   14    9      0.09      0.00
   -4   14    9     -1.40      0.00
   -2   14    9     -1.27      0.00
    0   14    9     -0.74      0.00
    2   14    9     -0.65      0.00
    4   14    9      0.14      0.00
    6   14    9      1.76      0.00
  -23   15    9      3.04      0.00
  -21   15    9      3.03      0.00
  -19   15    9      0.58      0.00
  -17   15    9     -1.73      0.00
  -15   15    9     -0.63      0.00
  -13   15    9      2.40      0.00
  -11   15    9      3.53      0.00
   -9   15    9      0.79      0.00
   -7   15    9     -1.38      0.00
   -5   15    9     -0.61      0.00
   -3   15    9      0.26      0.00
   -1   15    9      0.72      0.00
    1   15    9      1.34      0.00
    3   15    9      0.90      0.00
    5   15    9      1.51      0.00
  -20   16    9      1.52      0.00
  -18   16    9      1.00      0.00
  -16   16    9     -1.22      0.00
  -14   16    9     -1.78      0.00
  -12   16    9      1.26      0.00
  -10   16    9      1.17      0.00
   -8   16    9     -1.36      0.00
   -6   16    9     -1.12      0.00
   -4   16    9      1.05      0.00
   -2   16    9      2.11      0.00
    0   16    9      2.49      0.00
    2   16    9      1.89      0.00
  -17   17    9      0.59      0.00
  -15   17    9     -2.58      0.00
  -13   17    9     -2.37      0.00
  -11   17    9     -0.43      0.00
   -9   17    9      0.11      0.00
   -7   17    9     -0.20      0.00
   -5   17    9      0.69      0.00
   -3   17    9      2.41      0.00
   -1   17    9      2.79      0.00
    1   17    9      1.45      0.00
  -14   18    9     -2.61      0.00
  -12   18    9     -1.48      0.00
  -10   18    9      0.38      0.00
   -8   18    9      0.44      0.00
   -6   18    9      0.55      0.00
   -4   18    9      1.86      0.00
  -32    0   10      0.12      0.00
  -30    0   10     -0.76      0.00
  -28    0   10     -2.70      0.00
  -26    0   10     -3.98      0.00
  -24    0   10     -4.79      0.00
  -22    0   10     -5.73      0.00
  -20    0   10     -5.44      0.00
  -18    0   10     -0.71      0.00
  -16    0   10      4.25      0.00
  -14    0   10      5.84      0.00
  -12    0   10      1.58      0.00
  -10    0   10     -3.12      0.00
   -8    0   10     -7.62      0.00
   -6    0   10     -7.23      0.00
   -4    0   10     -2.10      0.00
   -2    0   10      1.61      0.00
    0    0   10      0.58      0.00
    2    0   10     -0.49      0.00
    4    0   10      0.96      0.00
    6    0   10      1.27      0.00
    8    0   10     -0.67      0.00
   10    0   10     -2.98      0.00
   12    0   10     -1.27      0.00
  -33    1   10      0.42      0.00
  -31    1   10      0.06      0.00
  -29    1   10     -1.52      0.00
  -27    1   10     -3.06      0.00
  -25    1   10     -4.33      0.00
  -23    1   10     -5.34      0.00
  -21    1   10     -5.96      0.00
  -19    1   10     -3.52      0.00
  -17    1   10      1.35      0.00
  -15    1   10      4.23      0.00
  -13    1   10      2.79      0.00
  -11    1   10     -0.91      0.00
   -9    1   10     -4.49      0.00
   -7    1   10     -5.90      0.00
   -5    1   10     -3.48      0.00
   -3    1   10      0.08      0.00
   -1    1   10      1.62      0.00
    1    1   10      0.32      0.00
    3    1   10     -0.17      0.00
    5    1   10      0.76      0.00
    7    1   10      0.60      0.00
    9    1   10     -1.42      0.00
   11    1   10     -2.15      0.00
   13    1   10     -0.42      0.00
  -32    2   10      0.80      0.00
  -30    2   10      0.44      0.00
  -28    2   10     -1.59      0.00
  -26    2   10     -4.12      0.00
  -24    2   10     -4.96      0.00
  -22    2   10     -5.25      0.00
  -20    2   10     -4.19      0.00
  -18    2   10     -1.67      0.00
  -16    2   10      1.39      0.00
  -14    2   10      1.40      0.00
  -12    2   10     -0.01      0.00
  -10    2   10     -2.22      0.00
   -8    2   10     -1.77      0.00
   -6    2   10     -0.46      0.00
   -4    2   10      0.36      0.00
   -2    2   10      1.01      0.00
    0    2   10      1.09      0.00
    2    2   10     -0.15      0.00
    4    2   10     -0.26      0.00
    6    2   10      0.73      0.00
    8    2   10     -0.13      0.00
   10    2   10     -0.88      0.00
   12    2   10     -1.08      0.00
  -31    3   10      1.79      0.00
  -29    3   10      0.95      0.00
  -27    3   10     -3.84      0.00
  -25    3   10     -5.52      0.00
  -23    3   10     -3.84      0.00
  -21    3   10     -2.22      0.00
  -19    3   10     -1.64      0.00
  -17    3   10     -0.19      0.00
  -15    3   10      1.21      0.00
  -13    3   10      0.53      0.00
  -11    3   10     -0.99      0.00
   -9    3   10     -0.42      0.00
   -7    3   10      1.86      0.00
   -5    3   10      2.96      0.00
   -3    3   10      2.66      0.00
   -1    3   10      0.33      0.00
    1    3   10     -0.96      0.00
    3    3   10     -0.52      0.00
    5    3   10      0.96      0.00
    7    3   10      0.34      0.00
    9    3   10     -0.56      0.00
   11    3   10     -0.40      0.00
   13    3   10     -0.78      0.00
  -32    4   10      1.83      0.00
  -30    4   10      1.64      0.00
  -28    4   10     -1.79      0.00
  -26    4   10     -4.93      0.00
  -24    4   10     -3.51      0.00
  -22    4   10      0.39      0.00
  -20    4   10      0.88      0.00
  -18    4   10      0.71      0.00
  -16    4   10      1.85      0.00
  -14    4   10      1.47      0.00
  -12    4   10      0.04      0.00
  -10    4   10      0.92      0.00
   -8    4   10      1.66      0.00
   -6    4   10      2.15      0.00
   -4    4   10      3.32      0.00
   -2    4   10      1.98      0.00
    0    4   10     -1.50      0.00
    2    4   10     -1.63      0.00
    4    4   10      0.31      0.00
    6    4   10      0.68      0.00
    8    4   10      0.18      0.00
   10    4   10     -0.51      0.00
   12    4   10     -1.11      0.00
  -31    5   10      1.12      0.00
  -29    5   10     -1.07      0.00
  -27    5   10     -1.99      0.00
  -25    5   10     -2.13      0.00
  -23    5   10      0.72      0.00
  -21    5   10      3.12      0.00
  -19    5   10      2.46      0.00
  -17    5   10      2.48      0.00
  -15    5   10      1.79      0.00
  -13    5   10     -0.32      0.00
  -11    5   10      0.65      0.00
   -9    5   10      2.95      0.00
   -7    5   10      1.70      0.00
   -5    5   10      0.36      0.00
   -3    5   10      0.94      0.00
   -1    5   10      0.00      0.00
    1    5   10     -1.83      0.00
    3    5   10     -0.55      0.00
    5    5   10     -0.18      0.00
    7    5   10     -0.01      0.00
    9    5   10      0.15      0.00
   11    5   10     -0.86      0.00
  -30    6   10     -0.42      0.00
  -28    6   10     -0.12      0.00
  -26    6   10     -0.27      0.00
  -24    6   10      0.27      0.00
  -22    6   10      2.63      0.00
  -20    6   10      3.78      0.00
  -18    6   10      2.36      0.00
  -16    6   10      1.10      0.00
  -14    6   10     -0.46      0.00
  -12    6   10     -1.53      0.00
  -10    6   10      1.23      0.00
   -8    6   10      3.40      0.00
   -6    6   10      0.86      0.00
   -4    6   10     -1.24      0.00
   -2    6   10     -1.00      0.00
    0    6   10     -1.59      0.00
    2    6   10     -0.81      0.00
    4    6   10      0.45      0.00
    6    6   10     -0.64      0.00
    8    6   10     -1.07      0.00
   10    6   10      0.18      0.00
   12    6   10      0.25      0.00
  -31    7   10     -0.99      0.00
  -29    7   10      0.85      0.00
  -27    7   10      0.29      0.00
  -25    7   10     -1.04      0.00
  -23    7   10      0.86      0.00
  -21    7   10      3.50      0.00
  -19    7   10      2.84      0.00
  -17    7   10      0.52      0.00
  -15    7   10     -0.15      0.00
  -13    7   10     -1.49      0.00
  -11    7   10     -1.32      0.00
   -9    7   10      1.39      0.00
   -7    7   10      1.93      0.00
   -5    7   10      0.18      0.00
   -3    7   10     -1.24      0.00
   -1    7   10     -1.98      0.00
    1    7   10     -1.05      0.00
    3    7   10      0.72      0.00
    5    7   10      0.82      0.00
    7    7   10     -1.12      0.00
    9    7   10     -0.26      0.00
   11    7   10      1.33      0.00
  -30    8   10     -0.64      0.00
  -28    8   10     -0.29      0.00
  -26    8   10     -1.50      0.00
  -24    8   10     -1.11      0.00
  -22    8   10      2.04      0.00
  -20    8   10      3.26      0.00
  -18    8   10      1.93      0.00
  -16    8   10      1.22      0.00
  -14    8   10      0.27      0.00
  -12    8   10     -0.98      0.00
  -10    8   10     -0.66      0.00
   -8    8   10     -0.24      0.00
   -6    8   10     -0.62      0.00
   -4    8   10     -0.95      0.00
   -2    8   10     -1.03      0.00
    0    8   10      0.19      0.00
    2    8   10      0.79      0.00
    4    8   10      0.93      0.00
    6    8   10      0.75      0.00
    8    8   10      1.09      0.00
   10    8   10      1.13      0.00
  -29    9   10     -1.86      0.00
  -27    9   10     -1.43      0.00
  -25    9   10     -0.46      0.00
  -23    9   10      0.21      0.00
  -21    9   10      2.18      0.00
  -19    9   10      3.66      0.00
  -17    9   10      3.34      0.00
  -15    9   10      2.30      0.00
  -13    9   10      1.10      0.00
  -11    9   10     -0.99      0.00
   -9    9   10     -1.83      0.00
   -7    9   10     -2.52      0.00
   -5    9   10     -3.79      0.00
   -3    9   10     -2.34      0.00
   -1    9   10      1.08      0.00
    1    9   10      1.96      0.00
    3    9   10      0.72      0.00
    5    9   10      1.26      0.00
    7    9   10      2.93      0.00
    9    9   10      1.72      0.00
  -28   10   10     -0.79      0.00
  -26   10   10      0.56      0.00
  -24   10   10      0.61      0.00
  -22   10   10      0.16      0.00
  -20   10   10      2.41      0.00
  -18   10   10      4.22      0.00
  -16   10   10      3.15      0.00
  -14   10   10      2.30      0.00
  -12   10   10      0.56      0.00
  -10   10   10     -2.38      0.00
   -8   10   10     -3.25      0.00
   -6   10   10     -4.33      0.00
   -4   10   10     -5.23      0.00
   -2   10   10     -1.84      0.00
    0   10   10      1.02      0.00
    2   10   10      0.61      0.00
    4   10   10      0.40      0.00
    6   10   10      3.19      0.00
    8   10   10      2.50      0.00
  -27   11   10      1.10      0.00
  -25   11   10      0.71      0.00
  -23   11   10      0.10      0.00
  -21   11   10     -0.31      0.00
  -19   11   10      1.10      0.00
  -17   11   10      2.56      0.00
  -15   11   10      2.22      0.00
  -13   11   10      1.51      0.00
  -11   11   10     -0.29      0.00
   -9   11   10     -3.33      0.00
   -7   11   10     -3.37      0.00
   -5   11   10     -3.80      0.00
   -3   11   10     -4.76      0.00
   -1   11   10     -2.25      0.00
    1   11   10     -0.37      0.00
    3   11   10     -1.02      0.00
    5   11   10      0.64      0.00
    7   11   10      2.64      0.00
    9   11   10      0.83      0.00
  -26   12   10     -0.11      0.00
  -24   12   10     -0.11      0.00
  -22   12   10     -1.05      0.00
  -20   12   10     -1.86      0.00
  -18   12   10     -0.46      0.00
  -16   12   10      1.35      0.00
  -14   12   10      2.14      0.00
  -12   12   10      1.84      0.00
  -10   12   10     -1.22      0.00
   -8   12   10     -2.77      0.00
   -6   12   10     -1.61      0.00
   -4   12   10     -3.29      0.00
   -2   12   10     -4.29      0.00
    0   12   10     -1.06      0.00
    2   12   10     -0.71      0.00
    4   12   10     -1.34      0.00
    6   12   10      0.20      0.00
    8   12   10      1.76      0.00
  -25   13   10     -0.98      0.00
  -23   13   10     -1.66      0.00
  -21   13   10     -2.45      0.00
  -19   13   10     -1.13      0.00
  -17   13   10     -0.39      0.00
  -15   13   10      1.09      0.00
  -13   13   10      3.05      0.00
  -11   13   10      0.95      0.00
   -9   13   10     -1.37      0.00
   -7   13   10     -1.06      0.00
   -5   13   10     -1.18      0.00
   -3   13   10     -2.93      0.00
   -1   13   10     -1.61      0.00
    1   13   10      0.86      0.00
    3   13   10      0.33      0.00
    5   13   10     -0.22      0.00
  -24   14   10     -2.02      0.00
  -22   14   10     -2.93      0.00
  -20   14   10     -1.48      0.00
  -18   14   10      0.20      0.00
  -16   14   10     -0.30      0.00
  -14   14   10      0.48      0.00
  -12   14   10      1.13      0.00
  -10   14   10      0.22      0.00
   -8   14   10     -0.49      0.00
   -6   14   10     -0.38      0.00
   -4   14   10     -1.12      0.00
   -2   14   10     -1.43      0.00
    0   14   10      0.57      0.00
    2   14   10      2.54      0.00
    4   14   10      1.58      0.00
  -23   15   10     -2.31      0.00
  -21   15   10     -2.57      0.00
  -19   15   10     -1.63      0.00
  -17   15   10     -0.54      0.00
  -15   15   10     -1.74      0.00
  -13   15   10     -2.27      0.00
  -11   15   10     -0.31      0.00
   -9   15   10      0.24      0.00
   -7   15   10      0.43      0.00
   -5   15   10     -0.11      0.00
   -3   15   10     -1.53      0.00
   -1   15   10     -0.83      0.00
    1   15   10      1.88      0.00
    3   15   10      2.39      0.00
  -20   16   10     -2.92      0.00
  -18   16   10     -3.28      0.00
  -16   16   10     -3.03      0.00
  -14   16   10     -3.55      0.00
  -12   16   10     -2.49      0.00
  -10   16   10     -1.02      0.00
   -8   16   10      0.28      0.00
   -6   16   10      0.51      0.00
   -4   16   10     -1.24      0.00
   -2   16   10     -2.15      0.00
    0   16   10     -0.30      0.00
  -17   17   10     -4.13      0.00
  -15   17   10     -3.54      0.00
  -13   17   10     -2.61      0.00
  -11   17   10     -2.64      0.00
   -9   17   10     -1.50      0.00
   -7   17   10     -0.59      0.00
   -5   17   10     -0.82      0.00
   -3   17   10     -1.65      0.00
   -1   17   10     -1.81      0.00
  -14   18   10     -2.01      0.00
  -12   18   10     -3.48      0.00
  -10   18   10     -2.84      0.00
   -8   18   10     -1.59      0.00
   -6   18   10     -1.31      0.00
  -33    1   11      0.09      0.00
  -31    1   11     -0.21      0.00
  -29    1   11     -1.47      0.00
  -27    1   11     -1.71      0.00
  -25    1   11     -1.69      0.00
  -23    1   11     -0.95      0.00
  -21    1   11     -0.34      0.00
  -19    1   11     -0.18      0.00
  -17    1   11      0.10      0.00
  -15    1   11      2.13      0.00
  -13    1   11      3.31      0.00
  -11    1   11      4.23      0.00
   -9    1   11      3.03      0.00
   -7    1   11      1.14      0.00
   -5    1   11     -1.81      0.00
   -3    1   11     -2.58      0.00
   -1    1   11     -1.37      0.00
    1    1   11      0.06      0.00
    3    1   11      0.45      0.00
    5    1   11      0.24      0.00
    7    1   11      1.53      0.00
    9    1   11      1.56      0.00
   11    1   11      0.21      0.00
  -32    2   11     -1.10      0.00
  -30    2   11     -1.84      0.00
  -28    2   11     -2.26      0.00
  -26    2   11     -2.47      0.00
  -24    2   11     -1.85      0.00
  -22    2   11     -1.50      0.00
  -20    2   11     -0.13      0.00
  -18    2   11      1.85      0.00
  -16    2   11      4.62      0.00
  -14    2   11      6.88      0.00
  -12    2   11      7.26      0.00
  -10    2   11      6.27      0.00
   -8    2   11      3.68      0.00
   -6    2   11     -0.32      0.00
   -4    2   11     -2.80      0.00
   -2    2   11     -1.93      0.00
    0    2   11     -1.20      0.00
    2    2   11     -0.62      0.00
    4    2   11      0.17      0.00
    6    2   11      1.51      0.00
    8    2   11      1.35      0.00
   10    2   11     -0.27      0.00
   12    2   11     -0.94      0.00
  -33    3   11     -1.45      0.00
  -31    3   11     -2.30      0.00
  -29    3   11     -2.87      0.00
  -27    3   11     -2.49      0.00
  -25    3   11     -0.96      0.00
  -23    3   11     -1.22      0.00
  -21    3   11     -0.87      0.00
  -19    3   11      2.10      0.00
  -17    3   11      6.72      0.00
  -15    3   11      9.64      0.00
  -13    3   11      9.43      0.00
  -11    3   11      7.29      0.00
   -9    3   11      5.98      0.00
   -7    3   11      2.76      0.00
   -5    3   11     -0.84      0.00
   -3    3   11     -1.87      0.00
   -1    3   11     -1.10      0.00
    1    3   11     -1.28      0.00
    3    3   11     -0.64      0.00
    5    3   11      0.79      0.00
    7    3   11      0.12      0.00
    9    3   11     -1.47      0.00
   11    3   11     -2.29      0.00
  -32    4   11     -1.00      0.00
  -30    4   11     -2.53      0.00
  -28    4   11     -3.81      0.00
  -26    4   11     -0.46      0.00
  -24    4   11      1.05      0.00
  -22    4   11      0.17      0.00
  -20    4   11      0.82      0.00
  -18    4   11      4.28      0.00
  -16    4   11      8.14      0.00
  -14    4   11      9.26      0.00
  -12    4   11      6.98      0.00
  -10    4   11      5.16      0.00
   -8    4   11      4.77      0.00
   -6    4   11      2.12      0.00
   -4    4   11     -1.42      0.00
   -2    4   11     -1.88      0.00
    0    4   11     -0.45      0.00
    2    4   11     -0.25      0.00
    4    4   11      0.81      0.00
    6    4   11      0.08      0.00
    8    4   11     -1.89      0.00
   10    4   11     -3.14      0.00
  -31    5   11     -0.12      0.00
  -29    5   11     -2.67      0.00
  -27    5   11     -1.90      0.00
  -25    5   11      1.29      0.00
  -23    5   11      1.70      0.00
  -21    5   11      0.86      0.00
  -19    5   11      1.39      0.00
  -17    5   11      2.14      0.00
  -15    5   11      4.29      0.00
  -13    5   11      5.66      0.00
  -11    5   11      3.68      0.00
   -9    5   11      2.69      0.00
   -7    5   11      2.87      0.00
   -5    5   11      0.24      0.00
   -3    5   11     -1.60      0.00
   -1    5   11     -0.63      0.00
    1    5   11      0.02      0.00
    3    5   11      1.00      0.00
    5    5   11      2.52      0.00
    7    5   11      0.84      0.00
    9    5   11     -2.86      0.00
   11    5   11     -3.57      0.00
  -32    6   11      0.63      0.00
  -30    6   11      0.03      0.00
  -28    6   11     -0.62      0.00
  -26    6   11     -0.22      0.00
  -24    6   11      0.60      0.00
  -22    6   11      0.83      0.00
  -20    6   11      0.97      0.00
  -18    6   11     -0.51      0.00
  -16    6   11     -1.48      0.00
  -14    6   11      1.23      0.00
  -12    6   11      2.33      0.00
  -10    6   11      0.53      0.00
   -8    6   11      0.32      0.00
   -6    6   11      0.56      0.00
   -4    6   11      0.52      0.00
   -2    6   11      0.84      0.00
    0    6   11      0.16      0.00
    2    6   11      0.21      0.00
    4    6   11      2.81      0.00
    6    6   11      4.74      0.00
    8    6   11      0.72      0.00
   10    6   11     -2.88      0.00
  -31    7   11      0.64      0.00
  -29    7   11      0.45      0.00
  -27    7   11      0.39      0.00
  -25    7   11      0.10      0.00
  -23    7   11      0.29      0.00
  -21    7   11      1.00      0.00
  -19    7   11      0.26      0.00
  -17    7   11     -1.44      0.00
  -15    7   11     -1.91      0.00
  -13    7   11     -1.56      0.00
  -11    7   11     -1.86      0.00
   -9    7   11     -1.70      0.00
   -7    7   11      0.14      0.00
   -5    7   11      1.99      0.00
   -3    7   11      2.99      0.00
   -1    7   11      2.45      0.00
    1    7   11      1.08      0.00
    3    7   11      1.27      0.00
    5    7   11      3.63      0.00
    7    7   11      3.37      0.00
    9    7   11      0.39      0.00
  -30    8   11     -0.21      0.00
  -28    8   11     -0.16      0.00
  -26    8   11      1.48      0.00
  -24    8   11      2.79      0.00
  -22    8   11      1.79      0.00
  -20    8   11      0.60      0.00
  -18    8   11      0.29      0.00
  -16    8   11     -0.95      0.00
  -14    8   11     -3.91      0.00
  -12    8   11     -5.85      0.00
  -10    8   11     -4.79      0.00
   -8    8   11     -0.57      0.00
   -6    8   11      3.15      0.00
   -4    8   11      4.03      0.00
   -2    8   11      4.77      0.00
    0    8   11      3.98      0.00
    2    8   11      1.07      0.00
    4    8   11      0.33      0.00
    6    8   11      1.42      0.00
    8    8   11      1.52      0.00
  -29    9   11     -1.04      0.00
  -27    9   11      1.02      0.00
  -25    9   11      4.80      0.00
  -23    9   11      5.05      0.00
  -21    9   11      1.42      0.00
  -19    9   11     -0.34      0.00
  -17    9   11     -0.69      0.00
  -15    9   11     -3.23      0.00
  -13    9   11     -7.10      0.00
  -11    9   11     -7.92      0.00
   -9    9   11     -3.63      0.00
   -7    9   11      1.62      0.00
   -5    9   11      4.02      0.00
   -3    9   11      5.45      0.00
   -1    9   11      6.25      0.00
    1    9   11      2.24      0.00
    3    9   11     -1.91      0.00
    5    9   11     -1.84      0.00
    7    9   11     -0.11      0.00
    9    9   11     -0.35      0.00
  -28   10   11      0.28      0.00
  -26   10   11      2.90      0.00
  -24   10   11      4.87      0.00
  -22   10   11      3.90      0.00
  -20   10   11     -0.36      0.00
  -18   10   11     -2.74      0.00
  -16   10   11     -2.28      0.00
  -14   10   11     -4.44      0.00
  -12   10   11     -7.74      0.00
  -10   10   11     -6.07      0.00
   -8   10   11     -2.18      0.00
   -6   10   11      1.15      0.00
   -4   10   11      4.14      0.00
   -2   10   11      5.50      0.00
    0   10   11      3.16      0.00
    2   10   11     -1.68      0.00
    4   10   11     -3.84      0.00
    6   10   11     -2.75      0.00
    8   10   11     -1.86      0.00
  -27   11   11      0.32      0.00
  -25   11   11      0.77      0.00
  -23   11   11      2.48      0.00
  -21   11   11      1.45      0.00
  -19   11   11     -2.25      0.00
  -17   11   11     -2.01      0.00
  -15   11   11     -0.81      0.00
  -13   11   11     -3.85      0.00
  -11   11   11     -6.08      0.00
   -9   11   11     -4.60      0.00
   -7   11   11     -1.60      0.00
   -5   11   11      1.24      0.00
   -3   11   11      2.48      0.00
   -1   11   11      1.22      0.00
    1   11   11     -0.74      0.00
    3   11   11     -2.92      0.00
    5   11   11     -3.51      0.00
    7   11   11     -3.41      0.00
  -26   12   11     -2.28      0.00
  -24   12   11     -1.13      0.00
  -22   12   11      0.40      0.00
  -20   12   11      0.22      0.00
  -18   12   11      0.64      0.00
  -16   12   11      1.11      0.00
  -14   12   11     -0.20      0.00
  -12   12   11     -3.25      0.00
  -10   12   11     -5.16      0.00
   -8   12   11     -2.57      0.00
   -6   12   11      0.04      0.00
   -4   12   11     -0.02      0.00
   -2   12   11     -1.31      0.00
    0   12   11     -2.00      0.00
    2   12   11     -1.94      0.00
    4   12   11     -1.98      0.00
    6   12   11     -2.05      0.00
  -25   13   11     -2.95      0.00
  -23   13   11     -1.31      0.00
  -21   13   11      0.70      0.00
  -19   13   11      2.16      0.00
  -17   13   11      2.27      0.00
  -15   13   11      0.81      0.00
  -13   13   11     -1.22      0.00
  -11   13   11     -3.42      0.00
   -9   13   11     -2.54      0.00
   -7   13   11     -0.21      0.00
   -5   13   11     -0.24      0.00
   -3   13   11     -2.01      0.00
   -1   13   11     -2.89      0.00
    1   13   11     -2.53      0.00
    3   13   11     -1.13      0.00
    5   13   11     -0.31      0.00
  -24   14   11     -2.21      0.00
  -22   14   11      0.91      0.00
  -20   14   11      2.07      0.00
  -18   14   11      0.24      0.00
  -16   14   11     -0.14      0.00
  -14   14   11     -0.70      0.00
  -12   14   11     -2.04      0.00
  -10   14   11     -1.19      0.00
   -8   14   11     -0.40      0.00
   -6   14   11     -0.28      0.00
   -4   14   11     -1.29      0.00
   -2   14   11     -2.60      0.00
    0   14   11     -2.43      0.00
    2   14   11     -0.88      0.00
  -23   15   11     -0.18      0.00
  -21   15   11      2.19      0.00
  -19   15   11      0.07      0.00
  -17   15   11     -2.44      0.00
  -15   15   11     -1.78      0.00
  -13   15   11     -1.22      0.00
  -11   15   11     -0.05      0.00
   -9   15   11      0.18      0.00
   -7   15   11     -0.70      0.00
   -5   15   11     -1.21      0.00
   -3   15   11     -1.62      0.00
   -1   15   11     -1.74      0.00
    1   15   11     -0.37      0.00
  -20   16   11      1.24      0.00
  -18   16   11      0.06      0.00
  -16   16   11     -1.89      0.00
  -14   16   11     -1.87      0.00
  -12   16   11      0.12      0.00
  -10   16   11      0.73      0.00
   -8   16   11     -0.25      0.00
   -6   16   11     -1.61      0.00
   -4   16   11     -1.18      0.00
   -2   16   11     -0.32      0.00
  -17   17   11      1.92      0.00
  -15   17   11     -0.55      0.00
  -13   17   11     -0.95      0.00
  -11   17   11     -0.12      0.00
   -9   17   11      0.23      0.00
   -7   17   11     -0.77      0.00
   -5   17   11     -0.91      0.00
   -3   17   11      0.52      0.00
  -10   18   11     -0.44      0.00
  -34    0   12     -1.80      0.00
  -32    0   12      1.35      0.00
  -30    0   12      4.43      0.00
  -28    0   12      5.59      0.00
  -26    0   12      4.98      0.00
  -24    0   12      0.74      0.00
  -22    0   12     -3.38      0.00
  -20    0   12     -6.90      0.00
  -18    0   12    -10.56      0.00
  -16    0   12     -9.25      0.00
  -14    0   12     -0.54      0.00
  -12    0   12      4.22      0.00
  -10    0   12      2.07      0.00
   -8    0   12     -2.70      0.00
   -6    0   12     -5.44      0.00
   -4    0   12     -6.64      0.00
   -2    0   12     -4.24      0.00
    0    0   12     -1.29      0.00
    2    0   12      1.34      0.00
    4    0   12      2.97      0.00
    6    0   12      0.48      0.00
    8    0   12     -1.26      0.00
   10    0   12     -1.03      0.00
  -33    1   12     -1.00      0.00
  -31    1   12      2.00      0.00
  -29    1   12      4.71      0.00
  -27    1   12      5.11      0.00
  -25    1   12      2.32      0.00
  -23    1   12     -1.81      0.00
  -21    1   12     -5.84      0.00
  -19    1   12     -9.09      0.00
  -17    1   12     -9.58      0.00
  -15    1   12     -3.94      0.00
  -13    1   12      2.37      0.00
  -11    1   12      2.77      0.00
   -9    1   12     -0.57      0.00
   -7    1   12     -4.01      0.00
   -5    1   12     -5.81      0.00
   -3    1   12     -4.60      0.00
   -1    1   12     -1.70      0.00
    1    1   12      0.04      0.00
    3    1   12      1.40      0.00
    5    1   12      1.38      0.00
    7    1   12     -0.27      0.00
    9    1   12     -1.42      0.00
  -32    2   12     -0.51      0.00
  -30    2   12      2.43      0.00
  -28    2   12      3.80      0.00
  -26    2   12      1.42      0.00
  -24    2   12     -1.33      0.00
  -22    2   12     -4.51      0.00
  -20    2   12     -7.75      0.00
  -18    2   12     -8.34      0.00
  -16    2   12     -3.81      0.00
  -14    2   12      0.81      0.00
  -12    2   12      1.69      0.00
  -10    2   12     -0.21      0.00
   -8    2   12     -1.80      0.00
   -6    2   12     -3.73      0.00
   -4    2   12     -3.05      0.00
   -2    2   12     -1.28      0.00
    0    2   12     -0.23      0.00
    2    2   12     -0.36      0.00
    4    2   12     -0.22      0.00
    6    2   12      0.37      0.00
    8    2   12     -0.99      0.00
   10    2   12     -1.44      0.00
  -33    3   12     -0.58      0.00
  -31    3   12      2.04      0.00
  -29    3   12      2.64      0.00
  -27    3   12     -0.54      0.00
  -25    3   12     -3.08      0.00
  -23    3   12     -3.77      0.00
  -21    3   12     -4.41      0.00
  -19    3   12     -6.12      0.00
  -17    3   12     -3.54      0.00
  -15    3   12      1.38      0.00
  -13    3   12      2.47      0.00
  -11    3   12      0.42      0.00
   -9    3   12     -0.74      0.00
   -7    3   12     -0.87      0.00
   -5    3   12     -0.84      0.00
   -3    3   12     -0.42      0.00
   -1    3   12     -0.86      0.00
    1    3   12     -1.36      0.00
    3    3   12     -1.36      0.00
    5    3   12     -0.44      0.00
    7    3   12     -0.82      0.00
    9    3   12     -1.02      0.00
  -32    4   12      2.06      0.00
  -30    4   12      3.39      0.00
  -28    4   12     -0.35      0.00
  -26    4   12     -4.52      0.00
  -24    4   12     -4.72      0.00
  -22    4   12     -2.40      0.00
  -20    4   12     -2.10      0.00
  -18    4   12     -1.54      0.00
  -16    4   12      1.57      0.00
  -14    4   12      4.12      0.00
  -12    4   12      3.45      0.00
  -10    4   12      1.87      0.00
   -8    4   12      1.44      0.00
   -6    4   12      1.37      0.00
   -4    4   12      0.51      0.00
   -2    4   12     -0.42      0.00
    0    4   12     -2.18      0.00
    2    4   12     -2.72      0.00
    4    4   12     -1.39      0.00
    6    4   12     -0.61      0.00
    8    4   12     -0.36      0.00
   10    4   12     -0.01      0.00
  -33    5   12      1.03      0.00
  -31    5   12      2.00      0.00
  -29    5   12      1.08      0.00
  -27    5   12     -2.32      0.00
  -25    5   12     -4.72      0.00
  -23    5   12     -2.87      0.00
  -21    5   12     -0.60      0.00
  -19    5   12      1.30      0.00
  -17    5   12      3.48      0.00
  -15    5   12      4.96      0.00
  -13    5   12      4.99      0.00
  -11    5   12      4.95      0.00
   -9    5   12      4.96      0.00
   -7    5   12      3.86      0.00
   -5    5   12      2.00      0.00
   -3    5   12      0.64      0.00
   -1    5   12     -1.30      0.00
    1    5   12     -3.26      0.00
    3    5   12     -2.46      0.00
    5    5   12     -1.01      0.00
    7    5   12      0.05      0.00
    9    5   12      0.07      0.00
  -32    6   12     -0.26      0.00
  -30    6   12     -0.49      0.00
  -28    6   12     -0.41      0.00
  -26    6   12     -2.00      0.00
  -24    6   12     -2.90      0.00
  -22    6   12     -1.21      0.00
  -20    6   12      1.39      0.00
  -18    6   12      4.22      0.00
  -16    6   12      6.33      0.00
  -14    6   12      5.07      0.00
  -12    6   12      3.96      0.00
  -10    6   12      6.08      0.00
   -8    6   12      6.77      0.00
   -6    6   12      5.05      0.00
   -4    6   12      2.91      0.00
   -2    6   12     -0.04      0.00
    0    6   12     -2.44      0.00
    2    6   12     -1.99      0.00
    4    6   12     -0.77      0.00
    6    6   12     -0.77      0.00
    8    6   12     -0.59      0.00
  -31    7   12     -1.95      0.00
  -29    7   12     -1.42      0.00
  -27    7   12     -1.30      0.00
  -25    7   12     -1.71      0.00
  -23    7   12     -0.94      0.00
  -21    7   12      0.45      0.00
  -19    7   12      2.24      0.00
  -17    7   12      5.02      0.00
  -15    7   12      4.96      0.00
  -13    7   12      2.17      0.00
  -11    7   12      2.95      0.00
   -9    7   12      6.28      0.00
   -7    7   12      7.12      0.00
   -5    7   12      5.55      0.00
   -3    7   12      2.10      0.00
   -1    7   12     -0.78      0.00
    1    7   12     -1.02      0.00
    3    7   12     -0.19      0.00
    5    7   12     -0.33      0.00
    7    7   12     -0.90      0.00
  -30    8   12     -1.94      0.00
  -28    8   12     -1.88      0.00
  -26    8   12     -2.11      0.00
  -24    8   12     -0.60      0.00
  -22    8   12      0.50      0.00
  -20    8   12      0.68      0.00
  -18    8   12      2.36      0.00
  -16    8   12      2.98      0.00
  -14    8   12      1.35      0.00
  -12    8   12      0.90      0.00
  -10    8   12      3.53      0.00
   -8    8   12      6.11      0.00
   -6    8   12      5.12      0.00
   -4    8   12      2.86      0.00
   -2    8   12      1.60      0.00
    0    8   12      1.05      0.00
    2    8   12     -0.37      0.00
    4    8   12     -0.69      0.00
    6    8   12      0.66      0.00
    8    8   12      1.43      0.00
  -31    9   12     -0.67      0.00
  -29    9   12     -1.24      0.00
  -27    9   12     -1.18      0.00
  -25    9   12     -1.06      0.00
  -23    9   12     -0.44      0.00
  -21    9   12      0.64      0.00
  -19    9   12      1.63      0.00
  -17    9   12      1.66      0.00
  -15    9   12      0.90      0.00
  -13    9   12      0.62      0.00
  -11    9   12      2.09      0.00
   -9    9   12      4.37      0.00
   -7    9   12      3.55      0.00
   -5    9   12      1.17      0.00
   -3    9   12      1.72      0.00
   -1    9   12      2.84      0.00
    1    9   12      1.07      0.00
    3    9   12     -1.20      0.00
    5    9   12      0.44      0.00
    7    9   12      2.84      0.00
  -30   10   12      0.75      0.00
  -28   10   12      0.78      0.00
  -26   10   12      0.74      0.00
  -24   10   12     -0.84      0.00
  -22   10   12     -0.46      0.00
  -20   10   12      1.75      0.00
  -18   10   12      2.31      0.00
  -16   10   12      1.91      0.00
  -14   10   12      1.19      0.00
  -12   10   12      1.25      0.00
  -10   10   12      2.55      0.00
   -8   10   12      2.64      0.00
   -6   10   12      1.33      0.00
   -4   10   12      0.73      0.00
   -2   10   12      2.18      0.00
    2   10   12      0.67      0.00
    4   10   12     -0.23      0.00
    6   10   12      1.48      0.00
  -29   11   12      2.31      0.00
  -27   11   12      2.23      0.00
  -25   11   12      1.40      0.00
  -23   11   12      0.04      0.00
  -21   11   12     -0.05      0.00
  -19   11   12      1.71      0.00
  -17   11   12      3.10      0.00
  -15   11   12      2.11      0.00
  -13   11   12      1.00      0.00
  -11   11   12      0.77      0.00
   -9   11   12      0.69      0.00
   -7   11   12      2.04      0.00
   -5   11   12      2.07      0.00
   -3   11   12      1.17      0.00
   -1   11   12      2.36      0.00
    1   11   12      2.79      0.00
    3   11   12      0.48      0.00
    5   11   12     -0.82      0.00
  -28   12   12      1.95      0.00
  -26   12   12      2.19      0.00
  -24   12   12      2.07      0.00
  -22   12   12     -0.01      0.00
  -18   12   12      1.03      0.00
  -16   12   12      1.60      0.00
  -14   12   12      1.27      0.00
  -12   12   12      0.83      0.00
  -10   12   12     -0.83      0.00
   -8   12   12      0.35      0.00
   -6   12   12      2.58      0.00
   -4   12   12      1.83      0.00
   -2   12   12      1.39      0.00
    0   12   12      3.20      0.00
    2   12   12      1.72      0.00
    4   12   12     -1.57      0.00
  -25   13   12      1.67      0.00
  -23   13   12      0.71      0.00
  -21   13   12     -0.82      0.00
  -19   13   12     -1.38      0.00
  -15   13   12      0.22      0.00
  -13   13   12      2.05      0.00
  -11   13   12      0.21      0.00
   -9   13   12     -1.09      0.00
   -7   13   12      0.53      0.00
   -5   13   12      1.78      0.00
   -3   13   12      0.73      0.00
   -1   13   12      0.94      0.00
    1   13   12      1.42      0.00
    3   13   12     -0.43      0.00
  -24   14   12      0.18      0.00
  -22   14   12     -0.40      0.00
  -20   14   12     -0.79      0.00
  -18   14   12     -2.10      0.00
  -16   14   12     -1.93      0.00
  -14   14   12      1.02      0.00
  -12   14   12      1.53      0.00
  -10   14   12     -0.15      0.00
   -8   14   12     -0.62      0.00
   -6   14   12      0.68      0.00
   -4   14   12      0.08      0.00
   -2   14   12     -1.38      0.00
    0   14   12     -1.03      0.00
  -23   15   12      0.21      0.00
  -21   15   12     -0.31      0.00
  -19   15   12     -0.56      0.00
  -17   15   12     -0.75      0.00
  -15   15   12     -0.87      0.00
  -13   15   12     -0.23      0.00
  -11   15   12      0.37      0.00
   -9   15   12      0.12      0.00
   -7   15   12      0.71      0.00
   -5   15   12     -0.13      0.00
   -3   15   12     -2.34      0.00
   -1   15   12     -2.61      0.00
  -20   16   12     -0.15      0.00
  -18   16   12     -0.44      0.00
  -16   16   12     -0.58      0.00
  -14   16   12     -1.77      0.00
  -12   16   12     -1.06      0.00
  -10   16   12     -0.03      0.00
   -8   16   12      0.97      0.00
   -6   16   12      0.60      0.00
   -4   16   12     -1.54      0.00
  -17   17   12     -1.70      0.00
  -15   17   12     -1.53      0.00
  -13   17   12     -1.18      0.00
  -11   17   12     -0.84      0.00
   -9   17   12      0.03      0.00
   -7   17   12      0.40      0.00
  -33    1   13      1.40      0.00
  -31    1   13      0.69      0.00
  -29    1   13      1.28      0.00
  -27    1   13      1.88      0.00
  -25    1   13      1.35      0.00
  -23    1   13      1.38      0.00
  -21    1   13      0.16      0.00
  -19    1   13     -1.70      0.00
  -17    1   13     -2.33      0.00
  -15    1   13     -1.37      0.00
  -13    1   13     -1.63      0.00
  -11    1   13     -0.72      0.00
   -9    1   13      0.66      0.00
   -7    1   13      0.41      0.00
   -5    1   13     -1.37      0.00
   -3    1   13     -0.81      0.00
   -1    1   13     -0.14      0.00
    1    1   13      0.62      0.00
    3    1   13      1.12      0.00
    5    1   13      1.01      0.00
    7    1   13      1.89      0.00
    9    1   13      0.42      0.00
  -34    2   13      1.66      0.00
  -32    2   13      2.02      0.00
  -30    2   13      1.80      0.00
  -28    2   13      2.24      0.00
  -26    2   13      2.49      0.00
  -24    2   13      1.39      0.00
  -22    2   13     -0.51      0.00
  -20    2   13     -1.19      0.00
  -18    2   13     -2.02      0.00
  -16    2   13     -1.80      0.00
  -14    2   13     -1.40      0.00
  -12    2   13     -0.86      0.00
  -10    2   13      0.17      0.00
   -8    2   13      0.30      0.00
   -6    2   13     -0.53      0.00
   -4    2   13     -0.70      0.00
   -2    2   13     -0.11      0.00
    0    2   13     -0.08      0.00
    2    2   13      1.09      0.00
    4    2   13      2.86      0.00
    6    2   13      3.26      0.00
    8    2   13      1.19      0.00
  -33    3   13      2.44      0.00
  -31    3   13      1.93      0.00
  -29    3   13      1.15      0.00
  -27    3   13      1.53      0.00
  -25    3   13      1.71      0.00
  -23    3   13     -0.79      0.00
  -21    3   13     -1.72      0.00
  -19    3   13     -0.36      0.00
  -17    3   13      0.47      0.00
  -15    3   13     -0.12      0.00
  -13    3   13      0.27      0.00
  -11    3   13      0.70      0.00
   -9    3   13      0.01      0.00
   -7    3   13     -0.68      0.00
   -5    3   13     -0.14      0.00
   -3    3   13     -0.03      0.00
   -1    3   13      0.12      0.00
    1    3   13      0.43      0.00
    3    3   13      2.64      0.00
    5    3   13      4.70      0.00
    7    3   13      2.41      0.00
  -32    4   13      1.85      0.00
  -30    4   13     -0.58      0.00
  -28    4   13     -0.87      0.00
  -26    4   13      0.85      0.00
  -24    4   13      0.69      0.00
  -22    4   13     -0.47      0.00
  -20    4   13     -0.02      0.00
  -18    4   13      2.30      0.00
  -16    4   13      2.01      0.00
  -14    4   13      0.94      0.00
  -12    4   13      1.01      0.00
  -10    4   13      0.70      0.00
   -8    4   13     -0.58      0.00
   -6    4   13     -1.38      0.00
   -4    4   13     -1.16      0.00
   -2    4   13     -0.44      0.00
    0    4   13      0.49      0.00
    2    4   13      1.62      0.00
    4    4   13      3.71      0.00
    6    4   13      3.58      0.00
    8    4   13      0.87      0.00
  -33    5   13      1.94      0.00
  -31    5   13     -0.20      0.00
  -29    5   13     -2.65      0.00
  -27    5   13     -0.74      0.00
  -25    5   13      1.21      0.00
  -23    5   13      1.03      0.00
  -21    5   13      1.41      0.00
  -19    5   13      2.82      0.00
  -17    5   13      2.31      0.00
  -15    5   13      1.06      0.00
  -13    5   13      0.63      0.00
  -11    5   13      0.23      0.00
   -9    5   13     -0.61      0.00
   -7    5   13     -2.24      0.00
   -5    5   13     -2.93      0.00
   -3    5   13     -1.78      0.00
   -1    5   13     -0.80      0.00
    1    5   13     -0.06      0.00
    3    5   13      1.78      0.00
    5    5   13      3.37      0.00
    7    5   13      2.01      0.00
  -32    6   13      0.91      0.00
  -30    6   13     -0.80      0.00
  -28    6   13     -1.16      0.00
  -26    6   13      0.45      0.00
  -24    6   13      0.61      0.00
  -22    6   13      1.18      0.00
  -20    6   13      3.33      0.00
  -18    6   13      2.26      0.00
  -16    6   13      0.12      0.00
  -14    6   13      0.26      0.00
  -12    6   13      0.04      0.00
  -10    6   13     -2.08      0.00
   -8    6   13     -3.33      0.00
   -6    6   13     -3.31      0.00
   -4    6   13     -2.51      0.00
   -2    6   13     -1.86      0.00
    0    6   13     -1.90      0.00
    2    6   13     -1.08      0.00
    4    6   13      1.42      0.00
    6    6   13      2.43      0.00
  -31    7   13      0.84      0.00
  -29    7   13      0.51      0.00
  -27    7   13      0.24      0.00
  -25    7   13     -0.29      0.00
  -23    7   13     -0.16      0.00
  -21    7   13      1.64      0.00
  -19    7   13      2.46      0.00
  -17    7   13      0.88      0.00
  -15    7   13      0.01      0.00
  -13    7   13      0.47      0.00
  -11    7   13     -1.95      0.00
   -9    7   13     -4.80      0.00
   -7    7   13     -3.51      0.00
   -5    7   13     -2.10      0.00
   -3    7   13     -1.87      0.00
   -1    7   13     -1.61      0.00
    1    7   13     -1.74      0.00
    3    7   13     -1.47      0.00
    5    7   13      0.49      0.00
    7    7   13      1.52      0.00
  -32    8   13      1.03      0.00
  -30    8   13      0.52      0.00
  -28    8   13      0.15      0.00
  -26    8   13      0.22      0.00
  -24    8   13      0.13      0.00
  -22    8   13      0.26      0.00
  -20    8   13      1.57      0.00
  -18    8   13      2.44      0.00
  -16    8   13      1.51      0.00
  -14    8   13      0.84      0.00
  -12    8   13     -0.92      0.00
  -10    8   13     -4.06      0.00
   -8    8   13     -4.10      0.00
   -6    8   13     -1.86      0.00
   -4    8   13     -1.07      0.00
   -2    8   13     -0.05      0.00
    0    8   13      0.32      0.00
    2    8   13     -1.00      0.00
    4    8   13     -1.22      0.00
    6    8   13      0.71      0.00
  -31    9   13      0.22      0.00
  -29    9   13     -0.77      0.00
  -27    9   13     -0.24      0.00
  -25    9   13      1.74      0.00
  -23    9   13      1.62      0.00
  -21    9   13      1.47      0.00
  -19    9   13      2.68      0.00
  -17    9   13      2.70      0.00
  -15    9   13      1.94      0.00
  -13    9   13     -0.15      0.00
  -11    9   13     -3.03      0.00
   -9    9   13     -3.83      0.00
   -7    9   13     -2.47      0.00
   -5    9   13     -0.48      0.00
   -3    9   13      1.22      0.00
   -1    9   13      2.66      0.00
    1    9   13      1.73      0.00
    3    9   13      0.48      0.00
    5    9   13      0.54      0.00
  -30   10   13     -0.19      0.00
  -28   10   13     -0.75      0.00
  -26   10   13      0.48      0.00
  -24   10   13      3.00      0.00
  -22   10   13      3.16      0.00
  -20   10   13      1.95      0.00
  -18   10   13      1.78      0.00
  -16   10   13      2.48      0.00
  -14   10   13      1.21      0.00
  -12   10   13     -2.18      0.00
  -10   10   13     -4.22      0.00
   -8   10   13     -3.33      0.00
   -6   10   13     -0.87      0.00
   -4   10   13      1.10      0.00
   -2   10   13      2.67      0.00
    0   10   13      3.93      0.00
    2   10   13      3.42      0.00
    4   10   13      1.90      0.00
  -29   11   13      0.19      0.00
  -27   11   13     -0.60      0.00
  -25   11   13      0.61      0.00
  -23   11   13      2.91      0.00
  -21   11   13      1.57      0.00
  -19   11   13     -0.22      0.00
  -17   11   13      1.70      0.00
  -15   11   13      2.62      0.00
  -13   11   13     -0.08      0.00
  -11   11   13     -3.80      0.00
   -9   11   13     -4.94      0.00
   -7   11   13     -2.29      0.00
   -5   11   13     -0.13      0.00
   -3   11   13      0.66      0.00
   -1   11   13      2.44      0.00
    1   11   13      4.58      0.00
    3   11   13      3.32      0.00
  -28   12   13     -0.18      0.00
  -26   12   13     -0.77      0.00
  -24   12   13     -0.44      0.00
  -22   12   13     -0.37      0.00
  -20   12   13     -1.05      0.00
  -18   12   13      0.79      0.00
  -16   12   13      3.35      0.00
  -14   12   13      2.46      0.00
  -12   12   13     -1.47      0.00
  -10   12   13     -4.93      0.00
   -8   12   13     -4.43      0.00
   -6   12   13     -2.06      0.00
   -4   12   13     -1.10      0.00
   -2   12   13     -0.61      0.00
    0   12   13      1.53      0.00
    2   12   13      2.75      0.00
  -27   13   13     -0.43      0.00
  -25   13   13     -1.50      0.00
  -23   13   13     -2.28      0.00
  -21   13   13     -1.88      0.00
  -19   13   13      0.53      0.00
  -17   13   13      3.56      0.00
  -15   13   13      4.11      0.00
  -13   13   13      0.88      0.00
   -9   13   13     -4.49      0.00
   -7   13   13     -3.53      0.00
   -5   13   13     -2.17      0.00
   -3   13   13     -2.14      0.00
   -1   13   13     -1.72      0.00
    1   13   13     -0.05      0.00
  -24   14   13     -1.40      0.00
  -22   14   13     -1.21      0.00
  -20   14   13     -0.09      0.00
  -18   14   13      2.31      0.00
  -16   14   13      3.99      0.00
  -14   14   13      2.00      0.00
  -12   14   13     -1.90      0.00
  -10   14   13     -3.08      0.00
   -8   14   13     -2.56      0.00
   -6   14   13     -2.03      0.00
   -4   14   13     -2.26      0.00
   -2   14   13     -2.60      0.00
    0   14   13     -1.53      0.00
  -23   15   13     -0.05      0.00
  -21   15   13      0.63      0.00
  -19   15   13      0.45      0.00
  -17   15   13      1.19      0.00
  -15   15   13      1.20      0.00
  -13   15   13     -0.92      0.00
  -11   15   13     -1.20      0.00
   -9   15   13     -0.60      0.00
   -7   15   13     -0.69      0.00
   -5   15   13     -1.37      0.00
   -3   15   13     -1.58      0.00
  -20   16   13      0.25      0.00
  -18   16   13     -0.95      0.00
  -16   16   13     -0.96      0.00
  -14   16   13     -0.94      0.00
  -12   16   13      0.27      0.00
  -10   16   13      1.39      0.00
   -8   16   13      0.66      0.00
   -6   16   13     -0.58      0.00
  -15   17   13     -1.03      0.00
  -13   17   13      0.44      0.00
  -11   17   13      1.64      0.00
  -34    0   14     -0.36      0.00
  -32    0   14      0.86      0.00
  -30    0   14      2.04      0.00
  -28    0   14      3.81      0.00
  -26    0   14      3.61      0.00
  -24    0   14      3.28      0.00
  -22    0   14      4.23      0.00
  -20    0   14      1.20      0.00
  -18    0   14     -4.08      0.00
  -16    0   14     -3.27      0.00
  -14    0   14      4.44      0.00
  -12    0   14      7.80      0.00
  -10    0   14      6.94      0.00
   -8    0   14      5.39      0.00
   -6    0   14      1.91      0.00
   -4    0   14     -3.34      0.00
   -2    0   14     -5.31      0.00
    0    0   14     -4.63      0.00
    2    0   14     -1.97      0.00
    4    0   14      0.30      0.00
    6    0   14     -0.21      0.00
  -33    1   14     -0.09      0.00
  -31    1   14      1.20      0.00
  -29    1   14      2.68      0.00
  -27    1   14      3.52      0.00
  -25    1   14      3.42      0.00
  -23    1   14      2.76      0.00
  -21    1   14      0.70      0.00
  -19    1   14     -2.93      0.00
  -17    1   14     -4.46      0.00
  -15    1   14      0.67      0.00
  -13    1   14      6.41      0.00
  -11    1   14      7.03      0.00
   -9    1   14      5.21      0.00
   -7    1   14      2.87      0.00
   -5    1   14     -0.46      0.00
   -3    1   14     -3.25      0.00
   -1    1   14     -4.01      0.00
    1    1   14     -3.06      0.00
    3    1   14     -0.52      0.00
    5    1   14      1.00      0.00
    7    1   14      0.41      0.00
  -34    2   14      1.05      0.00
  -32    2   14      0.22      0.00
  -30    2   14      1.63      0.00
  -28    2   14      2.24      0.00
  -26    2   14      2.55      0.00
  -24    2   14      1.69      0.00
  -22    2   14     -1.54      0.00
  -20    2   14     -4.47      0.00
  -18    2   14     -5.19      0.00
  -16    2   14     -1.48      0.00
  -14    2   14      3.34      0.00
  -12    2   14      5.70      0.00
  -10    2   14      4.54      0.00
   -8    2   14      2.40      0.00
   -6    2   14      0.81      0.00
   -4    2   14      0.21      0.00
   -2    2   14     -1.19      0.00
    0    2   14     -1.98      0.00
    2    2   14     -0.95      0.00
    4    2   14      1.25      0.00
    6    2   14      1.90      0.00
  -33    3   14      1.71      0.00
  -31    3   14      1.34      0.00
  -29    3   14      1.81      0.00
  -27    3   14      0.96      0.00
  -25    3   14     -0.50      0.00
  -23    3   14     -1.88      0.00
  -21    3   14     -3.81      0.00
  -19    3   14     -6.04      0.00
  -17    3   14     -3.46      0.00
  -15    3   14      1.03      0.00
  -13    3   14      3.28      0.00
  -11    3   14      3.50      0.00
   -9    3   14      3.32      0.00
   -7    3   14      2.50      0.00
   -5    3   14      1.66      0.00
   -3    3   14      1.13      0.00
   -1    3   14     -0.24      0.00
    1    3   14     -0.28      0.00
    3    3   14      1.22      0.00
    5    3   14      1.74      0.00
    7    3   14      0.60      0.00
  -34    4   14      1.68      0.00
  -32    4   14      2.48      0.00
  -30    4   14      2.79      0.00
  -28    4   14      1.26      0.00
  -26    4   14     -1.35      0.00
  -24    4   14     -3.00      0.00
  -22    4   14     -3.32      0.00
  -20    4   14     -4.54      0.00
  -18    4   14     -4.10      0.00
  -16    4   14     -1.08      0.00
  -14    4   14      1.34      0.00
  -12    4   14      2.01      0.00
  -10    4   14      3.55      0.00
   -8    4   14      5.11      0.00
   -6    4   14      3.99      0.00
   -4    4   14      2.04      0.00
   -2    4   14      1.06      0.00
    0    4   14      0.03      0.00
    2    4   14      0.29      0.00
    4    4   14      1.12      0.00
    6    4   14      0.51      0.00
  -33    5   14      1.01      0.00
  -31    5   14      3.08      0.00
  -29    5   14      3.01      0.00
  -27    5   14      0.67      0.00
  -25    5   14     -2.16      0.00
  -23    5   14     -4.67      0.00
  -21    5   14     -5.70      0.00
  -19    5   14     -3.73      0.00
  -17    5   14     -1.71      0.00
  -15    5   14     -0.17      0.00
  -13    5   14      0.90      0.00
  -11    5   14      2.45      0.00
   -9    5   14      4.59      0.00
   -7    5   14      5.80      0.00
   -5    5   14      4.28      0.00
   -3    5   14      1.81      0.00
   -1    5   14      0.21      0.00
    1    5   14     -0.74      0.00
    3    5   14     -0.47      0.00
    5    5   14      0.16      0.00
  -32    6   14      0.75      0.00
  -30    6   14      1.87      0.00
  -28    6   14      2.50      0.00
  -26    6   14      0.28      0.00
  -24    6   14     -3.85      0.00
  -22    6   14     -7.00      0.00
  -20    6   14     -5.83      0.00
  -18    6   14     -2.28      0.00
  -16    6   14     -0.37      0.00
  -14    6   14     -0.06      0.00
  -12    6   14      0.75      0.00
  -10    6   14      1.95      0.00
   -8    6   14      3.55      0.00
   -6    6   14      5.04      0.00
   -4    6   14      3.26      0.00
   -2    6   14      0.13      0.00
    0    6   14     -0.96      0.00
    2    6   14     -0.64      0.00
    4    6   14     -0.66      0.00
    6    6   14     -0.82      0.00
  -31    7   14     -0.74      0.00
  -29    7   14     -0.16      0.00
  -27    7   14      0.35      0.00
  -25    7   14     -1.70      0.00
  -23    7   14     -4.73      0.00
  -21    7   14     -5.82      0.00
  -19    7   14     -3.59      0.00
  -17    7   14     -0.37      0.00
  -15    7   14     -0.33      0.00
  -13    7   14     -1.36      0.00
  -11    7   14     -0.77      0.00
   -9    7   14      0.78      0.00
   -7    7   14      2.12      0.00
   -5    7   14      2.33      0.00
   -3    7   14      0.51      0.00
   -1    7   14     -0.51      0.00
    1    7   14     -0.11      0.00
    3    7   14     -0.18      0.00
    5    7   14     -0.86      0.00
  -32    8   14     -0.74      0.00
  -30    8   14     -2.15      0.00
  -28    8   14     -2.49      0.00
  -26    8   14     -2.12      0.00
  -24    8   14     -2.00      0.00
  -22    8   14     -2.82      0.00
  -20    8   14     -2.40      0.00
  -18    8   14     -0.02      0.00
  -16    8   14      0.00      0.00
  -14    8   14     -2.46      0.00
  -12    8   14     -3.06      0.00
  -10    8   14     -0.91      0.00
   -8    8   14      0.22      0.00
   -6    8   14     -0.76      0.00
   -4    8   14     -0.74      0.00
   -2    8   14      0.41      0.00
    0    8   14      1.01      0.00
    2    8   14     -0.09      0.00
    4    8   14     -0.23      0.00
  -31    9   14     -1.68      0.00
  -29    9   14     -1.87      0.00
  -27    9   14     -2.52      0.00
  -25    9   14     -2.53      0.00
  -23    9   14     -1.46      0.00
  -21    9   14     -0.58      0.00
  -19    9   14      0.89      0.00
  -17    9   14      1.07      0.00
  -15    9   14     -1.52      0.00
  -13    9   14     -3.51      0.00
  -11    9   14     -2.20      0.00
   -9    9   14     -0.68      0.00
   -7    9   14     -1.40      0.00
   -5    9   14     -1.93      0.00
   -1    9   14      1.46      0.00
    1    9   14      0.90      0.00
    3    9   14     -0.14      0.00
  -30   10   14     -0.27      0.00
  -28   10   14      0.48      0.00
  -26   10   14     -1.17      0.00
  -24   10   14     -2.69      0.00
  -22   10   14     -1.68      0.00
  -20   10   14      0.11      0.00
  -18   10   14      1.32      0.00
  -16   10   14      0.82      0.00
  -14   10   14     -1.62      0.00
  -12   10   14     -2.40      0.00
  -10   10   14     -1.60      0.00
   -8   10   14     -1.40      0.00
   -6   10   14     -0.95      0.00
   -4   10   14     -0.29      0.00
   -2   10   14      0.35      0.00
    0   10   14      0.90      0.00
    2   10   14      1.13      0.00
  -29   11   14      1.44      0.00
  -27   11   14      2.09      0.00
  -25   11   14     -0.05      0.00
  -23   11   14     -2.92      0.00
  -21   11   14     -2.55      0.00
  -19   11   14     -0.49      0.00
  -17   11   14      1.37      0.00
  -15   11   14      1.06      0.00
  -13   11   14     -0.92      0.00
  -11   11   14     -1.78      0.00
   -9   11   14     -1.57      0.00
   -7   11   14     -0.69      0.00
   -5   11   14      0.08      0.00
   -3   11   14     -0.35      0.00
   -1   11   14     -0.16      0.00
    1   11   14      1.12      0.00
  -28   12   14      1.96      0.00
  -26   12   14      2.68      0.00
  -24   12   14      0.44      0.00
  -22   12   14     -2.22      0.00
  -20   12   14     -2.30      0.00
  -18   12   14     -0.69      0.00
  -16   12   14      0.83      0.00
  -14   12   14      1.20      0.00
  -12   12   14     -0.08      0.00
   -8   12   14     -0.90      0.00
   -6   12   14     -0.24      0.00
   -4   12   14     -0.66      0.00
   -2   12   14     -1.14      0.00
    0   12   14      0.06      0.00
  -25   13   14      1.91      0.00
  -23   13   14      1.45      0.00
  -21   13   14     -0.53      0.00
  -19   13   14     -2.04      0.00
  -17   13   14     -1.77      0.00
  -15   13   14      0.45      0.00
  -13   13   14      2.18      0.00
  -11   13   14      0.52      0.00
   -9   13   14     -0.89      0.00
   -7   13   14     -0.14      0.00
   -5   13   14     -0.25      0.00
   -3   13   14     -1.63      0.00
   -1   13   14     -1.40      0.00
  -24   14   14      1.56      0.00
  -22   14   14      1.32      0.00
  -20   14   14     -0.65      0.00
  -18   14   14     -2.47      0.00
  -16   14   14     -1.54      0.00
  -14   14   14      1.36      0.00
  -12   14   14      2.13      0.00
  -10   14   14      0.90      0.00
   -8   14   14      0.37      0.00
   -6   14   14      0.76      0.00
   -4   14   14     -0.66      0.00
  -21   15   14     -0.48      0.00
  -19   15   14     -1.21      0.00
  -17   15   14     -1.39      0.00
  -15   15   14     -0.02      0.00
  -13   15   14      0.78      0.00
  -11   15   14      1.67      0.00
   -9   15   14      2.00      0.00
   -7   15   14      1.53      0.00
   -5   15   14      0.42      0.00
  -18   16   14     -0.72      0.00
  -16   16   14      0.02      0.00
  -14   16   14     -0.21      0.00
  -12   16   14      0.29      0.00
  -10   16   14      1.65      0.00
   -8   16   14      2.41      0.00
  -35    1   15      0.20      0.00
  -33    1   15     -1.05      0.00
  -31    1   15     -1.99      0.00
  -29    1   15     -1.19      0.00
  -27    1   15     -0.03      0.00
  -25    1   15      2.93      0.00
  -23    1   15      2.80      0.00
  -21    1   15     -0.52      0.00
  -19    1   15     -0.90      0.00
  -17    1   15      0.78      0.00
  -15    1   15      2.20      0.00
  -13    1   15      1.60      0.00
  -11    1   15      0.95      0.00
   -9    1   15     -0.40      0.00
   -7    1   15     -2.06      0.00
   -5    1   15     -2.86      0.00
   -3    1   15     -2.04      0.00
   -1    1   15     -1.40      0.00
    1    1   15     -1.36      0.00
    3    1   15     -1.01      0.00
    5    1   15      0.04      0.00
  -34    2   15     -1.12      0.00
  -32    2   15     -2.15      0.00
  -30    2   15     -2.97      0.00
  -28    2   15     -1.20      0.00
  -26    2   15      1.63      0.00
  -24    2   15      2.66      0.00
  -22    2   15      0.73      0.00
  -20    2   15     -0.43      0.00
  -18    2   15      0.40      0.00
  -16    2   15      2.91      0.00
  -14    2   15      3.75      0.00
  -12    2   15      2.25      0.00
  -10    2   15      0.04      0.00
   -8    2   15     -1.84      0.00
   -6    2   15     -3.29      0.00
   -4    2   15     -3.56      0.00
   -2    2   15     -2.73      0.00
    0    2   15     -2.80      0.00
    2    2   15     -2.34      0.00
    4    2   15     -0.37      0.00
  -33    3   15     -1.55      0.00
  -31    3   15     -2.44      0.00
  -29    3   15     -3.01      0.00
  -27    3   15     -1.17      0.00
  -25    3   15      0.03      0.00
  -23    3   15     -0.25      0.00
  -21    3   15     -0.17      0.00
  -19    3   15      0.56      0.00
  -17    3   15      2.82      0.00
  -15    3   15      4.38      0.00
  -13    3   15      3.64      0.00
  -11    3   15      1.01      0.00
   -9    3   15     -0.97      0.00
   -7    3   15     -1.87      0.00
   -5    3   15     -2.76      0.00
   -3    3   15     -3.18      0.00
   -1    3   15     -2.98      0.00
    1    3   15     -3.27      0.00
    3    3   15     -2.01      0.00
    5    3   15      0.57      0.00
  -34    4   15     -0.26      0.00
  -32    4   15     -1.34      0.00
  -30    4   15     -2.61      0.00
  -28    4   15     -3.61      0.00
  -26    4   15     -2.43      0.00
  -24    4   15     -1.14      0.00
  -22    4   15     -0.91      0.00
  -20    4   15     -0.27      0.00
  -18    4   15      2.74      0.00
  -16    4   15      3.98      0.00
  -14    4   15      3.34      0.00
  -12    4   15      2.17      0.00
  -10    4   15      0.60      0.00
   -8    4   15     -0.83      0.00
   -6    4   15     -1.32      0.00
   -4    4   15     -1.95      0.00
   -2    4   15     -2.40      0.00
    0    4   15     -2.49      0.00
    2    4   15     -2.80      0.00
    4    4   15     -1.04      0.00
  -33    5   15      1.09      0.00
  -31    5   15     -1.39      0.00
  -29    5   15     -3.32      0.00
  -27    5   15     -2.95      0.00
  -25    5   15     -1.54      0.00
  -23    5   15     -0.77      0.00
  -21    5   15      0.00      0.00
  -19    5   15      2.45      0.00
  -17    5   15      3.28      0.00
  -15    5   15      2.07      0.00
  -13    5   15      2.07      0.00
  -11    5   15      2.15      0.00
   -9    5   15      0.56      0.00
   -7    5   15     -0.71      0.00
   -5    5   15     -0.57      0.00
   -3    5   15     -0.93      0.00
   -1    5   15     -1.76      0.00
    1    5   15     -2.10      0.00
    3    5   15     -1.15      0.00
  -32    6   15      1.55      0.00
  -30    6   15     -1.30      0.00
  -28    6   15     -1.77      0.00
  -26    6   15     -0.93      0.00
  -24    6   15     -0.28      0.00
  -22    6   15      1.29      0.00
  -20    6   15      3.49      0.00
  -18    6   15      2.88      0.00
  -16    6   15      1.32      0.00
  -14    6   15      1.67      0.00
  -12    6   15      2.63      0.00
  -10    6   15      1.82      0.00
   -8    6   15      0.78      0.00
   -6    6   15      0.34      0.00
   -4    6   15      0.15      0.00
   -2    6   15     -0.69      0.00
    0    6   15     -1.34      0.00
    2    6   15     -0.76      0.00
    4    6   15      0.58      0.00
  -33    7   15      1.80      0.00
  -31    7   15      1.72      0.00
  -29    7   15      0.39      0.00
  -27    7   15     -0.50      0.00
  -25    7   15      0.15      0.00
  -23    7   15      2.15      0.00
  -21    7   15      4.05      0.00
  -19    7   15      2.98      0.00
  -17    7   15      1.11      0.00
  -15    7   15      1.93      0.00
  -13    7   15      3.38      0.00
  -11    7   15      2.85      0.00
   -9    7   15      2.14      0.00
   -7    7   15      2.20      0.00
   -5    7   15      1.17      0.00
   -1    7   15     -0.37      0.00
    1    7   15     -0.36      0.00
    3    7   15     -0.35      0.00
  -32    8   15      1.21      0.00
  -30    8   15      1.85      0.00
  -28    8   15      0.85      0.00
  -26    8   15      0.05      0.00
  -24    8   15      1.32      0.00
  -22    8   15      3.29      0.00
  -20    8   15      2.61      0.00
  -18    8   15      0.90      0.00
  -16    8   15      1.51      0.00
  -14    8   15      4.04      0.00
  -12    8   15      4.72      0.00
  -10    8   15      3.36      0.00
   -8    8   15      2.86      0.00
   -6    8   15      2.89      0.00
   -4    8   15      1.18      0.00
   -2    8   15     -0.12      0.00
    0    8   15     -0.54      0.00
    2    8   15     -0.68      0.00
  -31    9   15      0.66      0.00
  -29    9   15      1.28      0.00
  -27    9   15      0.92      0.00
  -25    9   15      0.51      0.00
  -23    9   15      1.19      0.00
  -21    9   15      1.61      0.00
  -19    9   15      0.83      0.00
  -17    9   15      0.70      0.00
  -15    9   15      3.11      0.00
  -13    9   15      5.38      0.00
  -11    9   15      4.59      0.00
   -9    9   15      2.93      0.00
   -7    9   15      2.90      0.00
   -5    9   15      2.43      0.00
   -3    9   15      0.26      0.00
   -1    9   15     -1.40      0.00
    1    9   15     -1.17      0.00
  -30   10   15      0.98      0.00
  -28   10   15      0.81      0.00
  -26   10   15      0.72      0.00
  -24   10   15      1.07      0.00
  -22   10   15      0.57      0.00
  -20   10   15      0.38      0.00
  -18   10   15      0.33      0.00
  -16   10   15      1.93      0.00
  -14   10   15      4.37      0.00
  -12   10   15      4.09      0.00
  -10   10   15      2.55      0.00
   -8   10   15      2.42      0.00
   -6   10   15      1.91      0.00
   -4   10   15     -0.23      0.00
   -2   10   15     -2.14      0.00
    0   10   15     -1.32      0.00
  -29   11   15      1.22      0.00
  -27   11   15      0.58      0.00
  -25   11   15      1.24      0.00
  -23   11   15      1.39      0.00
  -21   11   15      0.22      0.00
  -19   11   15     -0.39      0.00
  -17   11   15      1.02      0.00
  -15   11   15      3.30      0.00
  -13   11   15      3.51      0.00
  -11   11   15      1.88      0.00
   -9   11   15      1.25      0.00
   -7   11   15      0.95      0.00
   -5   11   15     -1.21      0.00
   -3   11   15     -3.17      0.00
   -1   11   15     -1.77      0.00
  -28   12   15      1.58      0.00
  -26   12   15      0.76      0.00
  -24   12   15      0.48      0.00
  -22   12   15      0.47      0.00
  -20   12   15     -1.05      0.00
  -18   12   15     -0.06      0.00
  -16   12   15      2.67      0.00
  -14   12   15      3.36      0.00
  -12   12   15      2.45      0.00
  -10   12   15      0.75      0.00
   -8   12   15     -0.64      0.00
   -6   12   15     -1.66      0.00
   -4   12   15     -2.97      0.00
   -2   12   15     -2.60      0.00
  -25   13   15     -0.67      0.00
  -23   13   15     -1.27      0.00
  -21   13   15     -2.34      0.00
  -19   13   15     -1.39      0.00
  -17   13   15      2.43      0.00
  -15   13   15      3.91      0.00
  -13   13   15      2.46      0.00
  -11   13   15      0.84      0.00
   -9   13   15     -0.67      0.00
   -7   13   15     -2.01      0.00
   -5   13   15     -2.23      0.00
   -3   13   15     -2.24      0.00
  -24   14   15     -1.51      0.00
  -22   14   15     -3.74      0.00
  -20   14   15     -3.14      0.00
  -18   14   15      1.06      0.00
  -16   14   15      4.11      0.00
  -14   14   15      2.70      0.00
  -12   14   15     -0.45      0.00
  -10   14   15     -0.73      0.00
   -8   14   15     -0.68      0.00
   -6   14   15     -1.66      0.00
  -21   15   15     -2.83      0.00
  -19   15   15     -0.92      0.00
  -17   15   15      1.82      0.00
  -15   15   15      1.91      0.00
  -13   15   15     -0.80      0.00
  -11   15   15     -1.58      0.00
   -9   15   15     -0.33      0.00
  -16   16   15     -0.37      0.00
  -14   16   15     -1.55      0.00
  -34    0   16     -1.45      0.00
  -32    0   16      0.10      0.00
  -30    0   16      0.31      0.00
  -28    0   16     -0.58      0.00
  -26    0   16     -0.55      0.00
  -24    0   16      3.79      0.00
  -22    0   16      5.29      0.00
  -20    0   16      2.39      0.00
  -18    0   16      0.97      0.00
  -16    0   16      0.58      0.00
  -14    0   16      1.08      0.00
  -12    0   16      1.32      0.00
  -10    0   16      2.54      0.00
   -8    0   16      3.54      0.00
   -6    0   16      3.21      0.00
   -4    0   16      3.02      0.00
   -2    0   16      3.36      0.00
    0    0   16      1.24      0.00
    2    0   16     -2.37      0.00
  -35    1   16     -1.71      0.00
  -33    1   16     -0.58      0.00
  -31    1   16      0.28      0.00
  -29    1   16     -0.59      0.00
  -27    1   16     -0.02      0.00
  -25    1   16      2.45      0.00
  -23    1   16      3.94      0.00
  -21    1   16      2.41      0.00
  -19    1   16      0.27      0.00
  -17    1   16     -0.85      0.00
  -15    1   16     -0.09      0.00
  -13    1   16      0.87      0.00
  -11    1   16      1.19      0.00
   -9    1   16      1.80      0.00
   -7    1   16      2.26      0.00
   -5    1   16      2.54      0.00
   -3    1   16      3.35      0.00
   -1    1   16      2.59      0.00
    1    1   16     -0.74      0.00
    3    1   16     -2.24      0.00
  -34    2   16     -0.78      0.00
  -32    2   16      0.08      0.00
  -30    2   16     -0.23      0.00
  -28    2   16     -0.30      0.00
  -26    2   16      2.59      0.00
  -24    2   16      2.92      0.00
  -22    2   16      0.92      0.00
  -20    2   16     -1.32      0.00
  -18    2   16     -3.80      0.00
  -16    2   16     -3.05      0.00
  -14    2   16     -0.97      0.00
  -12    2   16     -0.18      0.00
  -10    2   16     -0.49      0.00
   -8    2   16     -0.24      0.00
   -6    2   16      0.85      0.00
   -4    2   16      2.45      0.00
   -2    2   16      2.74      0.00
    0    2   16      0.84      0.00
    2    2   16     -0.40      0.00
  -33    3   16      0.39      0.00
  -31    3   16      0.59      0.00
  -29    3   16      0.65      0.00
  -27    3   16      0.75      0.00
  -25    3   16      2.13      0.00
  -23    3   16      1.50      0.00
  -21    3   16     -1.36      0.00
  -19    3   16     -5.05      0.00
  -17    3   16     -5.20      0.00
  -15    3   16     -3.64      0.00
  -13    3   16     -2.65      0.00
  -11    3   16     -1.74      0.00
   -9    3   16     -0.94      0.00
   -7    3   16     -0.41      0.00
   -5    3   16      0.87      0.00
   -3    3   16      1.71      0.00
   -1    3   16      1.23      0.00
    1    3   16      1.44      0.00
    3    3   16      2.00      0.00
  -34    4   16      0.86      0.00
  -32    4   16      1.40      0.00
  -30    4   16      1.71      0.00
  -28    4   16      1.62      0.00
  -26    4   16      1.46      0.00
  -24    4   16      1.57      0.00
  -22    4   16     -0.37      0.00
  -20    4   16     -3.46      0.00
  -18    4   16     -3.89      0.00
  -16    4   16     -3.98      0.00
  -14    4   16     -4.76      0.00
  -12    4   16     -3.66      0.00
  -10    4   16     -1.20      0.00
   -8    4   16      0.15      0.00
   -6    4   16      0.30      0.00
   -4    4   16      0.78      0.00
   -2    4   16      1.19      0.00
    0    4   16      1.78      0.00
    2    4   16      3.02      0.00
  -33    5   16      0.55      0.00
  -31    5   16      2.21      0.00
  -29    5   16      2.93      0.00
  -27    5   16      3.65      0.00
  -25    5   16      2.41      0.00
  -23    5   16     -0.24      0.00
  -21    5   16     -2.35      0.00
  -19    5   16     -1.63      0.00
  -17    5   16     -1.81      0.00
  -15    5   16     -3.36      0.00
  -13    5   16     -3.86      0.00
  -11    5   16     -2.88      0.00
   -9    5   16     -1.09      0.00
   -7    5   16      0.56      0.00
   -5    5   16      0.84      0.00
   -3    5   16      1.22      0.00
   -1    5   16      1.90      0.00
    1    5   16      2.79      0.00
    3    5   16      3.18      0.00
  -32    6   16      0.56      0.00
  -30    6   16      3.39      0.00
  -28    6   16      4.54      0.00
  -26    6   16      3.28      0.00
  -24    6   16      0.52      0.00
  -22    6   16     -1.53      0.00
  -20    6   16     -1.12      0.00
  -18    6   16     -0.80      0.00
  -16    6   16     -0.87      0.00
  -14    6   16     -0.74      0.00
  -12    6   16     -2.19      0.00
  -10    6   16     -3.37      0.00
   -8    6   16     -1.76      0.00
   -6    6   16      0.80      0.00
   -4    6   16      1.30      0.00
   -2    6   16      1.34      0.00
    0    6   16      2.45      0.00
    2    6   16      2.81      0.00
  -33    7   16     -0.05      0.00
  -31    7   16      1.60      0.00
  -29    7   16      3.21      0.00
  -27    7   16      1.82      0.00
  -25    7   16     -0.29      0.00
  -23    7   16     -1.28      0.00
  -21    7   16     -0.60      0.00
  -19    7   16     -0.10      0.00
  -17    7   16      0.61      0.00
  -15    7   16      1.34      0.00
  -13    7   16      0.38      0.00
  -11    7   16     -1.97      0.00
   -9    7   16     -3.14      0.00
   -7    7   16     -1.66      0.00
   -5    7   16      0.49      0.00
   -3    7   16      0.65      0.00
   -1    7   16      1.28      0.00
    1    7   16      1.80      0.00
  -32    8   16      1.22      0.00
  -30    8   16      0.92      0.00
  -28    8   16     -0.35      0.00
  -26    8   16     -2.25      0.00
  -24    8   16     -2.86      0.00
  -22    8   16     -1.39      0.00
  -20    8   16      0.84      0.00
  -18    8   16      3.17      0.00
  -16    8   16      3.21      0.00
  -14    8   16      1.16      0.00
  -12    8   16     -0.06      0.00
  -10    8   16     -1.04      0.00
   -8    8   16     -1.99      0.00
   -6    8   16     -1.56      0.00
   -4    8   16     -0.49      0.00
   -2    8   16      0.28      0.00
    0    8   16      0.34      0.00
  -31    9   16      0.62      0.00
  -29    9   16     -0.36      0.00
  -27    9   16     -2.87      0.00
  -25    9   16     -4.05      0.00
  -23    9   16     -2.39      0.00
  -21    9   16     -0.06      0.00
  -19    9   16      3.74      0.00
  -17    9   16      5.68      0.00
  -15    9   16      3.25      0.00
  -13    9   16      0.49      0.00
  -11    9   16     -0.37      0.00
   -9    9   16     -0.66      0.00
   -7    9   16     -1.04      0.00
   -5    9   16     -1.27      0.00
   -3    9   16     -0.78      0.00
   -1    9   16     -0.58      0.00
  -30   10   16      0.58      0.00
  -28   10   16     -0.54      0.00
  -26   10   16     -2.70      0.00
  -24   10   16     -2.11      0.00
  -22   10   16     -0.56      0.00
  -20   10   16      1.55      0.00
  -18   10   16      4.28      0.00
  -16   10   16      4.97      0.00
  -14   10   16      2.56      0.00
  -12   10   16     -0.29      0.00
  -10   10   16     -1.06      0.00
   -8   10   16     -0.56      0.00
   -6   10   16     -0.36      0.00
   -4   10   16     -0.68      0.00
   -2   10   16     -1.20      0.00
  -29   11   16      0.11      0.00
  -27   11   16      0.35      0.00
  -25   11   16     -0.06      0.00
  -23   11   16     -0.29      0.00
  -21   11   16      0.31      0.00
  -19   11   16      0.86      0.00
  -17   11   16      2.88      0.00
  -15   11   16      3.45      0.00
  -13   11   16      0.94      0.00
  -11   11   16     -0.66      0.00
   -9   11   16     -0.78      0.00
   -7   11   16     -0.54      0.00
   -5   11   16     -0.05      0.00
   -3   11   16     -0.55      0.00
  -28   12   16     -0.11      0.00
  -26   12   16      1.14      0.00
  -24   12   16      0.90      0.00
  -22   12   16      0.59      0.00
  -20   12   16     -0.55      0.00
  -18   12   16     -0.11      0.00
  -16   12   16      2.01      0.00
  -14   12   16      1.63      0.00
  -12   12   16      0.21      0.00
  -10   12   16     -0.07      0.00
   -8   12   16     -0.11      0.00
   -6   12   16     -0.05      0.00
   -4   12   16     -0.20      0.00
  -25   13   16      0.54      0.00
  -23   13   16      1.71      0.00
  -21   13   16      0.25      0.00
  -19   13   16     -0.78      0.00
  -17   13   16      0.22      0.00
  -15   13   16      1.42      0.00
  -13   13   16      1.11      0.00
  -11   13   16      0.16      0.00
   -9   13   16      0.69      0.00
   -7   13   16      1.25      0.00
   -5   13   16      0.18      0.00
  -24   14   16      1.00      0.00
  -22   14   16      0.99      0.00
  -20   14   16      0.39      0.00
  -18   14   16      0.12      0.00
  -16   14   16      0.45      0.00
  -14   14   16      1.16      0.00
  -12   14   16      0.73      0.00
  -10   14   16      0.82      0.00
   -8   14   16      1.79      0.00
  -19   15   16      0.56      0.00
  -17   15   16      0.32      0.00
  -15   15   16      0.50      0.00
  -13   15   16      0.31      0.00
  -11   15   16      1.07      0.00
  -35    1   17      0.84      0.00
  -33    1   17      1.01      0.00
  -31    1   17     -0.10      0.00
  -29    1   17     -1.32      0.00
  -27    1   17     -0.01      0.00
  -25    1   17      3.06      0.00
  -23    1   17      0.60      0.00
  -21    1   17     -2.53      0.00
  -19    1   17     -1.72      0.00
  -17    1   17     -0.55      0.00
  -15    1   17      2.08      0.00
  -13    1   17      3.71      0.00
  -11    1   17      2.50      0.00
   -9    1   17      0.17      0.00
   -7    1   17     -1.10      0.00
   -5    1   17     -1.29      0.00
   -3    1   17     -1.17      0.00
   -1    1   17     -0.90      0.00
    1    1   17     -0.94      0.00
  -34    2   17      1.39      0.00
  -32    2   17      0.53      0.00
  -30    2   17     -0.86      0.00
  -28    2   17     -0.82      0.00
  -26    2   17      0.77      0.00
  -24    2   17      1.11      0.00
  -22    2   17     -2.18      0.00
  -20    2   17     -3.65      0.00
  -18    2   17     -1.94      0.00
  -16    2   17      2.23      0.00
  -14    2   17      5.42      0.00
  -12    2   17      4.89      0.00
  -10    2   17      2.36      0.00
   -8    2   17      0.28      0.00
   -6    2   17     -0.82      0.00
   -4    2   17     -1.41      0.00
   -2    2   17     -1.72      0.00
    0    2   17     -1.82      0.00
    2    2   17     -1.48      0.00
  -33    3   17      0.50      0.00
  -31    3   17     -0.17      0.00
  -29    3   17     -1.30      0.00
  -27    3   17     -1.08      0.00
  -25    3   17     -0.89      0.00
  -23    3   17     -1.83      0.00
  -21    3   17     -4.28      0.00
  -19    3   17     -3.91      0.00
  -17    3   17      1.72      0.00
  -15    3   17      5.57      0.00
  -13    3   17      5.16      0.00
  -11    3   17      3.53      0.00
   -9    3   17      2.51      0.00
   -7    3   17      1.77      0.00
   -5    3   17      0.08      0.00
   -3    3   17     -1.04      0.00
   -1    3   17     -1.44      0.00
    1    3   17     -2.30      0.00
  -34    4   17     -1.12      0.00
  -32    4   17     -0.53      0.00
  -30    4   17     -1.65      0.00
  -28    4   17     -2.53      0.00
  -26    4   17     -0.86      0.00
  -24    4   17     -1.05      0.00
  -22    4   17     -3.49      0.00
  -20    4   17     -4.85      0.00
  -18    4   17     -0.38      0.00
  -16    4   17      4.12      0.00
  -14    4   17      4.66      0.00
  -12    4   17      3.59      0.00
  -10    4   17      2.77      0.00
   -8    4   17      2.99      0.00
   -6    4   17      2.54      0.00
   -4    4   17      0.81      0.00
   -2    4   17      0.12      0.00
    0    4   17     -1.32      0.00
  -33    5   17     -1.86      0.00
  -31    5   17     -2.24      0.00
  -29    5   17     -2.19      0.00
  -27    5   17     -1.27      0.00
  -25    5   17     -0.16      0.00
  -23    5   17     -0.95      0.00
  -21    5   17     -2.09      0.00
  -19    5   17     -0.88      0.00
  -17    5   17      0.55      0.00
  -15    5   17      1.99      0.00
  -13    5   17      3.48      0.00
  -11    5   17      2.99      0.00
   -9    5   17      2.24      0.00
   -7    5   17      2.58      0.00
   -5    5   17      2.88      0.00
   -3    5   17      1.58      0.00
   -1    5   17     -0.44      0.00
    1    5   17     -2.23      0.00
  -32    6   17     -1.72      0.00
  -30    6   17     -1.19      0.00
  -28    6   17     -0.63      0.00
  -26    6   17     -0.92      0.00
  -24    6   17      0.24      0.00
  -22    6   17      1.52      0.00
  -20    6   17      2.21      0.00
  -18    6   17      0.18      0.00
  -16    6   17     -1.29      0.00
  -14    6   17      0.53      0.00
  -12    6   17      2.54      0.00
  -10    6   17      2.67      0.00
   -8    6   17      2.09      0.00
   -6    6   17      2.44      0.00
   -4    6   17      2.37      0.00
   -2    6   17     -0.20      0.00
    0    6   17     -1.73      0.00
  -33    7   17      0.05      0.00
  -31    7   17      1.10      0.00
  -29    7   17      0.54      0.00
  -27    7   17     -0.67      0.00
  -25    7   17      0.00      0.00
  -23    7   17      2.64      0.00
  -21    7   17      4.21      0.00
  -19    7   17      2.23      0.00
  -17    7   17     -0.51      0.00
  -15    7   17     -1.64      0.00
  -13    7   17     -0.57      0.00
  -11    7   17      1.79      0.00
   -9    7   17      2.58      0.00
   -7    7   17      2.31      0.00
   -5    7   17      1.55      0.00
   -3    7   17     -0.18      0.00
   -1    7   17     -1.55      0.00
  -32    8   17      1.53      0.00
  -30    8   17      2.66      0.00
  -28    8   17      1.58      0.00
  -26    8   17      0.42      0.00
  -24    8   17      1.81      0.00
  -22    8   17      4.43      0.00
  -20    8   17      3.17      0.00
  -18    8   17      0.49      0.00
  -16    8   17     -1.06      0.00
  -14    8   17     -1.51      0.00
  -12    8   17     -0.46      0.00
  -10    8   17      0.59      0.00
   -8    8   17      1.49      0.00
   -6    8   17      1.81      0.00
   -4    8   17      0.18      0.00
   -2    8   17     -1.19      0.00
  -31    9   17      1.53      0.00
  -29    9   17      4.00      0.00
  -27    9   17      2.71      0.00
  -25    9   17      0.97      0.00
  -23    9   17      2.85      0.00
  -21    9   17      3.76      0.00
  -19    9   17      1.29      0.00
  -17    9   17     -1.37      0.00
  -15    9   17     -1.27      0.00
  -13    9   17     -0.44      0.00
  -11    9   17     -1.38      0.00
   -9    9   17     -1.37      0.00
   -7    9   17      0.72      0.00
   -5    9   17      1.55      0.00
   -3    9   17      0.21      0.00
  -30   10   17      2.49      0.00
  -28   10   17      3.61      0.00
  -26   10   17      1.72      0.00
  -24   10   17      1.18      0.00
  -22   10   17      2.45      0.00
  -20   10   17      2.52      0.00
  -18   10   17     -0.33      0.00
  -16   10   17     -1.49      0.00
  -14   10   17     -0.64      0.00
  -12   10   17     -1.56      0.00
  -10   10   17     -2.22      0.00
   -8   10   17     -0.60      0.00
   -6   10   17      1.20      0.00
   -4   10   17      1.40      0.00
  -29   11   17      2.18      0.00
  -27   11   17      1.48      0.00
  -25   11   17      0.23      0.00
  -23   11   17      0.72      0.00
  -21   11   17      2.24      0.00
  -19   11   17      1.03      0.00
  -17   11   17     -0.32      0.00
  -15   11   17     -0.36      0.00
  -13   11   17     -1.46      0.00
  -11   11   17     -1.65      0.00
   -9   11   17      0.16      0.00
   -7   11   17      1.38      0.00
   -5   11   17      1.30      0.00
  -26   12   17     -0.65      0.00
  -24   12   17     -1.09      0.00
  -22   12   17      1.05      0.00
  -20   12   17      0.94      0.00
  -18   12   17      0.23      0.00
  -16   12   17      0.53      0.00
  -14   12   17      0.07      0.00
  -12   12   17     -0.40      0.00
  -10   12   17      0.80      0.00
   -8   12   17      2.13      0.00
   -6   12   17      1.88      0.00
  -25   13   17     -1.36      0.00
  -23   13   17     -0.75      0.00
  -21   13   17     -0.87      0.00
  -19   13   17     -0.54      0.00
  -17   13   17      0.76      0.00
  -15   13   17      1.27      0.00
  -13   13   17      1.22      0.00
  -11   13   17      1.38      0.00
   -9   13   17      2.01      0.00
  -22   14   17     -2.38      0.00
  -20   14   17     -2.53      0.00
  -18   14   17     -0.25      0.00
  -16   14   17      1.69      0.00
  -14   14   17      1.69      0.00
  -12   14   17      1.17      0.00
  -34    0   18     -2.14      0.00
  -32    0   18     -1.18      0.00
  -30    0   18     -2.81      0.00
  -28    0   18     -3.63      0.00
  -26    0   18     -1.12      0.00
  -24    0   18      2.61      0.00
  -22    0   18      1.99      0.00
  -20    0   18      1.07      0.00
  -18    0   18      1.03      0.00
  -16    0   18     -2.51      0.00
  -14    0   18     -4.37      0.00
  -12    0   18     -3.64      0.00
  -10    0   18     -2.18      0.00
   -8    0   18     -0.73      0.00
   -6    0   18      0.82      0.00
   -4    0   18      5.18      0.00
   -2    0   18      9.82      0.00
  -35    1   18     -1.53      0.00
  -33    1   18     -1.37      0.00
  -31    1   18     -2.22      0.00
  -29    1   18     -2.98      0.00
  -27    1   18     -1.39      0.00
  -25    1   18      1.14      0.00
  -23    1   18      2.26      0.00
  -21    1   18      1.60      0.00
  -19    1   18      0.78      0.00
  -17    1   18     -1.50      0.00
  -15    1   18     -3.53      0.00
  -13    1   18     -3.62      0.00
  -11    1   18     -2.76      0.00
   -9    1   18     -1.73      0.00
   -7    1   18     -0.85      0.00
   -5    1   18      1.78      0.00
   -3    1   18      6.63      0.00
   -1    1   18      8.71      0.00
  -34    2   18     -0.87      0.00
  -32    2   18     -1.77      0.00
  -30    2   18     -2.10      0.00
  -28    2   18     -1.15      0.00
  -26    2   18      1.08      0.00
  -24    2   18      1.87      0.00
  -22    2   18      2.24      0.00
  -20    2   18      0.74      0.00
  -18    2   18     -2.48      0.00
  -16    2   18     -2.82      0.00
  -14    2   18     -2.41      0.00
  -12    2   18     -2.38      0.00
  -10    2   18     -2.34      0.00
   -8    2   18     -2.37      0.00
   -6    2   18     -1.19      0.00
   -4    2   18      1.40      0.00
   -2    2   18      4.53      0.00
    0    2   18      4.48      0.00
  -33    3   18     -1.41      0.00
  -31    3   18     -1.06      0.00
  -29    3   18     -1.24      0.00
  -27    3   18     -0.39      0.00
  -25    3   18      2.02      0.00
  -23    3   18      2.38      0.00
  -21    3   18      1.06      0.00
  -19    3   18     -2.13      0.00
  -17    3   18     -3.03      0.00
  -15    3   18     -1.92      0.00
  -13    3   18     -1.23      0.00
  -11    3   18     -1.56      0.00
   -9    3   18     -2.67      0.00
   -7    3   18     -2.61      0.00
   -5    3   18     -1.86      0.00
   -3    3   18     -0.71      0.00
   -1    3   18      1.22      0.00
  -34    4   18     -1.20      0.00
  -32    4   18     -1.64      0.00
  -30    4   18     -1.12      0.00
  -28    4   18     -0.15      0.00
  -26    4   18      0.55      0.00
  -24    4   18      0.80      0.00
  -22    4   18      0.16      0.00
  -20    4   18     -0.54      0.00
  -18    4   18     -1.16      0.00
  -16    4   18     -2.30      0.00
  -14    4   18     -1.33      0.00
  -12    4   18      0.08      0.00
  -10    4   18     -1.24      0.00
   -8    4   18     -2.84      0.00
   -6    4   18     -3.31      0.00
   -4    4   18     -2.68      0.00
   -2    4   18     -1.95      0.00
  -33    5   18     -2.17      0.00
  -31    5   18     -1.82      0.00
  -29    5   18      0.92      0.00
  -27    5   18      1.30      0.00
  -25    5   18     -1.49      0.00
  -23    5   18     -2.13      0.00
  -21    5   18     -1.08      0.00
  -19    5   18      0.21      0.00
  -17    5   18     -1.10      0.00
  -15    5   18     -1.62      0.00
  -13    5   18      0.28      0.00
  -11    5   18      0.38      0.00
   -9    5   18     -1.65      0.00
   -7    5   18     -3.55      0.00
   -5    5   18     -3.37      0.00
   -3    5   18     -2.23      0.00
   -1    5   18     -1.97      0.00
  -32    6   18     -1.46      0.00
  -30    6   18      1.98      0.00
  -28    6   18      1.95      0.00
  -26    6   18     -1.64      0.00
  -24    6   18     -3.24      0.00
  -22    6   18     -2.06      0.00
  -20    6   18     -1.62      0.00
  -18    6   18     -2.40      0.00
  -16    6   18     -1.26      0.00
  -14    6   18      0.64      0.00
  -12    6   18      0.75      0.00
  -10    6   18     -0.57      0.00
   -8    6   18     -2.47      0.00
   -6    6   18     -2.83      0.00
   -4    6   18     -2.21      0.00
   -2    6   18     -1.42      0.00
  -31    7   18      2.27      0.00
  -29    7   18      2.97      0.00
  -27    7   18     -1.03      0.00
  -25    7   18     -3.65      0.00
  -23    7   18     -2.95      0.00
  -21    7   18     -2.43      0.00
  -19    7   18     -4.81      0.00
  -17    7   18     -4.19      0.00
  -15    7   18     -0.30      0.00
  -13    7   18      1.53      0.00
  -11    7   18      0.86      0.00
   -9    7   18     -0.98      0.00
   -7    7   18     -1.57      0.00
   -5    7   18     -1.01      0.00
   -3    7   18     -0.71      0.00
  -32    8   18      0.98      0.00
  -30    8   18      2.10      0.00
  -28    8   18      0.68      0.00
  -26    8   18     -3.23      0.00
  -24    8   18     -4.80      0.00
  -22    8   18     -3.85      0.00
  -20    8   18     -4.65      0.00
  -18    8   18     -5.52      0.00
  -16    8   18     -3.58      0.00
  -14    8   18      0.12      0.00
  -12    8   18      2.47      0.00
  -10    8   18      1.94      0.00
   -8    8   18      0.61      0.00
   -6    8   18      0.33      0.00
   -4    8   18      0.71      0.00
  -31    9   18      0.45      0.00
  -29    9   18      0.15      0.00
  -27    9   18     -2.46      0.00
  -25    9   18     -4.74      0.00
  -23    9   18     -4.71      0.00
  -21    9   18     -5.29      0.00
  -19    9   18     -5.17      0.00
  -17    9   18     -3.73      0.00
  -15    9   18     -1.47      0.00
  -13    9   18      1.42      0.00
  -11    9   18      3.50      0.00
   -9    9   18      4.07      0.00
   -7    9   18      2.85      0.00
   -5    9   18      1.41      0.00
  -30   10   18     -0.31      0.00
  -28   10   18     -2.85      0.00
  -26   10   18     -3.96      0.00
  -24   10   18     -2.70      0.00
  -22   10   18     -3.62      0.00
  -20   10   18     -5.37      0.00
  -18   10   18     -4.20      0.00
  -16   10   18     -0.93      0.00
  -14   10   18      1.01      0.00
  -12   10   18      2.46      0.00
  -10   10   18      4.92      0.00
   -8   10   18      5.39      0.00
   -6   10   18      2.66      0.00
  -27   11   18     -2.75      0.00
  -25   11   18     -0.84      0.00
  -23   11   18     -0.04      0.00
  -21   11   18     -2.48      0.00
  -19   11   18     -4.52      0.00
  -17   11   18     -2.34      0.00
  -15   11   18      0.58      0.00
  -13   11   18      1.88      0.00
  -11   11   18      3.78      0.00
   -9   11   18      5.01      0.00
   -7   11   18      3.10      0.00
  -26   12   18      0.49      0.00
  -24   12   18      2.19      0.00
  -22   12   18      1.09      0.00
  -20   12   18     -2.48      0.00
  -18   12   18     -2.80      0.00
  -16   12   18     -0.89      0.00
  -14   12   18      0.42      0.00
  -12   12   18      2.13      0.00
  -10   12   18      3.33      0.00
  -23   13   18      2.83      0.00
  -21   13   18     -0.07      0.00
  -19   13   18     -1.83      0.00
  -17   13   18     -0.81      0.00
  -15   13   18     -0.16      0.00
  -13   13   18     -0.14      0.00
  -11   13   18      0.74      0.00
  -18   14   18     -0.35      0.00
  -35    1   19     -0.23      0.00
  -33    1   19      1.20      0.00
  -31    1   19      0.39      0.00
  -29    1   19      1.50      0.00
  -27    1   19      3.07      0.00
  -25    1   19      3.28      0.00
  -23    1   19      1.36      0.00
  -21    1   19      0.49      0.00
  -19    1   19     -0.07      0.00
  -17    1   19     -1.14      0.00
  -15    1   19      1.18      0.00
  -13    1   19      3.24      0.00
  -11    1   19      2.73      0.00
   -9    1   19      1.16      0.00
   -7    1   19     -0.03      0.00
   -5    1   19     -0.03      0.00
   -3    1   19     -0.79      0.00
  -34    2   19     -0.16      0.00
  -32    2   19      1.20      0.00
  -30    2   19      2.50      0.00
  -28    2   19      3.51      0.00
  -26    2   19      4.02      0.00
  -24    2   19      3.19      0.00
  -22    2   19      0.27      0.00
  -20    2   19     -1.45      0.00
  -18    2   19     -1.96      0.00
  -16    2   19      0.06      0.00
  -14    2   19      3.17      0.00
  -12    2   19      4.18      0.00
  -10    2   19      2.93      0.00
   -8    2   19      1.50      0.00
   -6    2   19      1.21      0.00
   -4    2   19     -0.15      0.00
  -33    3   19     -0.16      0.00
  -31    3   19      1.71      0.00
  -29    3   19      2.26      0.00
  -27    3   19      3.66      0.00
  -25    3   19      3.70      0.00
  -23    3   19      0.09      0.00
  -21    3   19     -4.21      0.00
  -19    3   19     -4.11      0.00
  -17    3   19     -0.52      0.00
  -15    3   19      1.25      0.00
  -13    3   19      2.24      0.00
  -11    3   19      3.16      0.00
   -9    3   19      3.20      0.00
   -7    3   19      2.87      0.00
   -5    3   19      0.97      0.00
   -3    3   19     -0.60      0.00
  -34    4   19     -1.00      0.00
  -32    4   19     -0.49      0.00
  -30    4   19     -0.78      0.00
  -28    4   19      1.41      0.00
  -26    4   19      4.08      0.00
  -24    4   19      1.27      0.00
  -22    4   19     -4.26      0.00
  -20    4   19     -6.60      0.00
  -18    4   19     -2.69      0.00
  -16    4   19      0.36      0.00
  -14    4   19      0.38      0.00
  -12    4   19      1.27      0.00
  -10    4   19      3.12      0.00
   -8    4   19      3.71      0.00
   -6    4   19      1.62      0.00
   -4    4   19      0.13      0.00
  -33    5   19     -1.72      0.00
  -31    5   19     -1.86      0.00
  -29    5   19     -0.59      0.00
  -27    5   19      1.20      0.00
  -25    5   19      1.79      0.00
  -23    5   19     -0.48      0.00
  -21    5   19     -3.89      0.00
  -19    5   19     -4.27      0.00
  -17    5   19     -2.00      0.00
  -15    5   19     -0.07      0.00
  -13    5   19      0.61      0.00
  -11    5   19      1.69      0.00
   -9    5   19      2.78      0.00
   -7    5   19      1.83      0.00
   -5    5   19      0.97      0.00
  -32    6   19     -1.16      0.00
  -30    6   19      0.21      0.00
  -28    6   19     -0.15      0.00
  -26    6   19     -0.34      0.00
  -24    6   19      0.94      0.00
  -22    6   19      0.37      0.00
  -20    6   19     -0.65      0.00
  -18    6   19     -1.43      0.00
  -16    6   19     -1.23      0.00
  -14    6   19     -0.17      0.00
  -12    6   19      1.06      0.00
  -10    6   19      2.02      0.00
   -8    6   19      1.64      0.00
   -6    6   19      1.74      0.00
   -4    6   19      1.50      0.00
  -31    7   19      1.12      0.00
  -29    7   19      0.55      0.00
  -27    7   19      0.22      0.00
  -25    7   19      0.41      0.00
  -23    7   19      0.20      0.00
  -21    7   19      1.04      0.00
  -19    7   19      2.67      0.00
  -17    7   19      1.98      0.00
  -15    7   19     -0.68      0.00
  -13    7   19     -0.73      0.00
  -11    7   19      1.54      0.00
   -9    7   19      2.42      0.00
   -7    7   19      2.42      0.00
   -5    7   19      2.16      0.00
  -30    8   19      1.28      0.00
  -28    8   19      1.47      0.00
  -26    8   19      0.90      0.00
  -24    8   19     -0.52      0.00
  -22    8   19     -0.10      0.00
  -20    8   19      2.43      0.00
  -18    8   19      4.80      0.00
  -16    8   19      3.07      0.00
  -14    8   19     -0.21      0.00
  -12    8   19      0.03      0.00
  -10    8   19      1.80      0.00
   -8    8   19      2.92      0.00
   -6    8   19      2.76      0.00
  -29    9   19      2.54      0.00
  -27    9   19      0.85      0.00
  -25    9   19     -1.19      0.00
  -23    9   19     -0.32      0.00
  -21    9   19      1.47      0.00
  -19    9   19      2.95      0.00
  -17    9   19      3.76      0.00
  -15    9   19      2.96      0.00
  -13    9   19      1.16      0.00
  -11    9   19      0.39      0.00
   -9    9   19      1.10      0.00
   -7    9   19      2.23      0.00
  -28   10   19      1.48      0.00
  -26   10   19     -1.52      0.00
  -24   10   19     -1.56      0.00
  -22   10   19      0.77      0.00
  -20   10   19      2.05      0.00
  -18   10   19      1.97      0.00
  -16   10   19      2.27      0.00
  -14   10   19      2.01      0.00
  -12   10   19      0.49      0.00
  -10   10   19     -0.25      0.00
   -8   10   19      0.27      0.00
  -27   11   19     -0.39      0.00
  -25   11   19     -2.42      0.00
  -23   11   19     -1.23      0.00
  -21   11   19      1.09      0.00
  -19   11   19      1.23      0.00
  -17   11   19      1.00      0.00
  -15   11   19      0.53      0.00
  -13   11   19     -0.65      0.00
  -11   11   19     -0.99      0.00
  -24   12   19     -2.58      0.00
  -22   12   19     -0.22      0.00
  -20   12   19      0.54      0.00
  -18   12   19     -0.20      0.00
  -16   12   19     -0.12      0.00
  -14   12   19     -0.97      0.00
  -12   12   19     -2.15      0.00
  -19   13   19     -0.33      0.00
  -17   13   19     -1.18      0.00
  -34    0   20      0.47      0.00
  -32    0   20     -0.46      0.00
  -30    0   20     -4.74      0.00
  -28    0   20     -3.44      0.00
  -26    0   20     -0.47      0.00
  -24    0   20     -0.33      0.00
  -22    0   20     -0.54      0.00
  -20    0   20      2.38      0.00
  -18    0   20      4.55      0.00
  -16    0   20      2.04      0.00
  -14    0   20      0.05      0.00
  -12    0   20     -0.56      0.00
  -10    0   20     -1.15      0.00
   -8    0   20     -2.52      0.00
   -6    0   20     -3.84      0.00
  -33    1   20      0.18      0.00
  -31    1   20     -2.25      0.00
  -29    1   20     -3.36      0.00
  -27    1   20     -1.66      0.00
  -25    1   20     -0.62      0.00
  -23    1   20     -0.69      0.00
  -21    1   20      0.66      0.00
  -19    1   20      3.29      0.00
  -17    1   20      3.06      0.00
  -15    1   20      0.85      0.00
  -13    1   20     -0.27      0.00
  -11    1   20     -0.54      0.00
   -9    1   20     -1.54      0.00
   -7    1   20     -3.07      0.00
   -5    1   20     -2.66      0.00
  -34    2   20      1.25      0.00
  -32    2   20     -0.43      0.00
  -30    2   20     -1.24      0.00
  -28    2   20     -2.23      0.00
  -26    2   20     -1.32      0.00
  -24    2   20     -0.74      0.00
  -22    2   20     -0.63      0.00
  -20    2   20      0.73      0.00
  -18    2   20      1.90      0.00
  -16    2   20      1.80      0.00
  -14    2   20      0.39      0.00
  -12    2   20     -0.07      0.00
  -10    2   20     -0.30      0.00
   -8    2   20     -1.37      0.00
   -6    2   20     -1.92      0.00
  -33    3   20      1.64      0.00
  -31    3   20      0.00      0.00
  -29    3   20     -2.17      0.00
  -27    3   20     -2.19      0.00
  -25    3   20     -0.99      0.00
  -23    3   20     -1.76      0.00
  -21    3   20     -1.47      0.00
  -19    3   20     -0.16      0.00
  -17    3   20      0.93      0.00
  -15    3   20      1.03      0.00
  -13    3   20      0.91      0.00
  -11    3   20      0.71      0.00
   -9    3   20      0.24      0.00
   -7    3   20     -0.28      0.00
   -5    3   20     -1.80      0.00
  -34    4   20      1.70      0.00
  -32    4   20      0.36      0.00
  -30    4   20     -1.01      0.00
  -28    4   20     -1.10      0.00
  -26    4   20     -2.43      0.00
  -24    4   20     -3.99      0.00
  -22    4   20     -2.97      0.00
  -20    4   20     -0.97      0.00
  -18    4   20     -0.59      0.00
  -16    4   20     -0.77      0.00
  -14    4   20      1.11      0.00
  -12    4   20      2.45      0.00
  -10    4   20      1.29      0.00
   -8    4   20      0.23      0.00
   -6    4   20     -0.53      0.00
  -33    5   20     -0.71      0.00
  -31    5   20     -0.34      0.00
  -29    5   20      1.56      0.00
  -27    5   20     -0.85      0.00
  -25    5   20     -5.50      0.00
  -23    5   20     -5.04      0.00
  -21    5   20     -2.02      0.00
  -19    5   20     -0.91      0.00
  -17    5   20     -2.02      0.00
  -15    5   20     -1.18      0.00
  -13    5   20      1.96      0.00
  -11    5   20      2.54      0.00
   -9    5   20      0.56      0.00
   -7    5   20     -0.35      0.00
  -32    6   20     -0.25      0.00
  -30    6   20      2.44      0.00
  -28    6   20      1.36      0.00
  -26    6   20     -2.53      0.00
  -24    6   20     -3.89      0.00
  -22    6   20     -3.06      0.00
  -20    6   20     -2.52      0.00
  -18    6   20     -2.38      0.00
  -16    6   20     -1.70      0.00
  -14    6   20     -0.26      0.00
  -12    6   20      1.15      0.00
  -10    6   20      1.14      0.00
   -8    6   20      0.32      0.00
  -31    7   20      1.76      0.00
  -29    7   20      2.42      0.00
  -27    7   20      0.30      0.00
  -25    7   20     -0.71      0.00
  -23    7   20     -0.52      0.00
  -21    7   20     -1.72      0.00
  -19    7   20     -3.82      0.00
  -17    7   20     -2.92      0.00
  -15    7   20     -0.36      0.00
  -13    7   20      0.29      0.00
  -11    7   20      0.46      0.00
   -9    7   20      0.74      0.00
   -7    7   20      0.99      0.00
  -30    8   20      1.96      0.00
  -28    8   20      2.47      0.00
  -26    8   20      0.54      0.00
  -24    8   20      0.78      0.00
  -22    8   20      1.78      0.00
  -20    8   20     -1.50      0.00
  -18    8   20     -4.55      0.00
  -16    8   20     -2.17      0.00
  -14    8   20      0.99      0.00
  -12    8   20      1.26      0.00
  -10    8   20      0.88      0.00
   -8    8   20      0.67      0.00
  -29    9   20      1.82      0.00
  -27    9   20      1.10      0.00
  -25    9   20      0.68      0.00
  -23    9   20      2.33      0.00
  -21    9   20      0.96      0.00
  -19    9   20     -2.77      0.00
  -17    9   20     -2.92      0.00
  -15    9   20     -0.24      0.00
  -13    9   20      1.28      0.00
  -11    9   20      1.36      0.00
  -28   10   20     -0.68      0.00
  -26   10   20      0.21      0.00
  -24   10   20      2.28      0.00
  -22   10   20      1.18      0.00
  -20   10   20     -1.86      0.00
  -18   10   20     -2.04      0.00
  -16   10   20     -0.29      0.00
  -14   10   20     -0.15      0.00
  -12   10   20     -0.18      0.00
  -25   11   20      1.29      0.00
  -23   11   20      1.82      0.00
  -21   11   20     -0.71      0.00
  -19   11   20     -1.99      0.00
  -17   11   20     -0.91      0.00
  -15   11   20     -0.43      0.00
  -13   11   20     -1.25      0.00
  -20   12   20     -0.88      0.00
  -18   12   20     -1.16      0.00
  -33    1   21     -1.53      0.00
  -31    1   21     -2.32      0.00
  -29    1   21      0.69      0.00
  -27    1   21      0.92      0.00
  -25    1   21      0.76      0.00
  -23    1   21      2.15      0.00
  -21    1   21      2.26      0.00
  -19    1   21      0.25      0.00
  -17    1   21     -1.85      0.00
  -15    1   21     -1.10      0.00
  -13    1   21      0.17      0.00
  -11    1   21      0.16      0.00
   -9    1   21     -0.43      0.00
   -7    1   21     -0.49      0.00
  -34    2   21     -2.04      0.00
  -32    2   21     -2.62      0.00
  -30    2   21     -1.21      0.00
  -28    2   21      0.83      0.00
  -26    2   21      1.62      0.00
  -24    2   21      2.73      0.00
  -22    2   21      2.38      0.00
  -20    2   21      0.13      0.00
  -18    2   21     -2.36      0.00
  -16    2   21     -2.38      0.00
  -14    2   21     -0.81      0.00
  -12    2   21     -0.50      0.00
  -10    2   21     -1.10      0.00
   -8    2   21     -0.50      0.00
  -33    3   21     -2.49      0.00
  -31    3   21     -2.41      0.00
  -29    3   21     -1.07      0.00
  -27    3   21      2.19      0.00
  -25    3   21      2.92      0.00
  -23    3   21      0.60      0.00
  -21    3   21     -1.99      0.00
  -19    3   21     -3.49      0.00
  -17    3   21     -2.78      0.00
  -15    3   21     -1.93      0.00
  -13    3   21     -1.89      0.00
  -11    3   21     -1.69      0.00
   -9    3   21     -0.75      0.00
   -7    3   21      0.79      0.00
  -32    4   21     -2.95      0.00
  -30    4   21     -2.57      0.00
  -28    4   21      0.44      0.00
  -26    4   21      2.63      0.00
  -24    4   21      0.23      0.00
  -22    4   21     -3.70      0.00
  -20    4   21     -5.87      0.00
  -18    4   21     -3.91      0.00
  -16    4   21     -1.50      0.00
  -14    4   21     -2.38      0.00
  -12    4   21     -2.64      0.00
  -10    4   21     -0.62      0.00
   -8    4   21      0.59      0.00
  -31    5   21     -1.51      0.00
  -29    5   21     -1.29      0.00
  -27    5   21     -1.08      0.00
  -25    5   21      0.24      0.00
  -23    5   21     -1.14      0.00
  -21    5   21     -6.01      0.00
  -19    5   21     -6.16      0.00
  -17    5   21     -1.32      0.00
  -15    5   21      0.07      0.00
  -13    5   21     -2.23      0.00
  -11    5   21     -1.95      0.00
   -9    5   21      0.42      0.00
  -32    6   21      0.66      0.00
  -30    6   21      0.11      0.00
  -28    6   21     -2.46      0.00
  -26    6   21     -2.08      0.00
  -24    6   21      0.39      0.00
  -22    6   21     -2.24      0.00
  -20    6   21     -5.02      0.00
  -18    6   21     -1.67      0.00
  -16    6   21      1.91      0.00
  -14    6   21      0.63      0.00
  -12    6   21     -2.09      0.00
  -10    6   21     -1.35      0.00
  -31    7   21      1.04      0.00
  -29    7   21     -0.23      0.00
  -27    7   21     -0.46      0.00
  -25    7   21     -0.11      0.00
  -23    7   21     -1.45      0.00
  -21    7   21     -2.12      0.00
  -19    7   21      0.34      0.00
  -17    7   21      3.14      0.00
  -15    7   21      2.40      0.00
  -13    7   21     -0.65      0.00
  -11    7   21     -1.81      0.00
  -30    8   21      1.06      0.00
  -28    8   21      1.58      0.00
  -26    8   21      1.65      0.00
  -24    8   21     -0.59      0.00
  -22    8   21     -1.95      0.00
  -20    8   21      0.37      0.00
  -18    8   21      3.96      0.00
  -16    8   21      4.34      0.00
  -14    8   21      0.71      0.00
  -12    8   21     -1.57      0.00
  -27    9   21      0.94      0.00
  -25    9   21      0.80      0.00
  -23    9   21      0.18      0.00
  -21    9   21     -0.74      0.00
  -19    9   21      1.23      0.00
  -17    9   21      4.16      0.00
  -15    9   21      2.91      0.00
  -13    9   21     -0.49      0.00
  -26   10   21     -0.70      0.00
  -24   10   21      0.69      0.00
  -22   10   21      0.77      0.00
  -20   10   21      0.07      0.00
  -18   10   21      1.38      0.00
  -16   10   21      2.18      0.00
  -21   11   21      1.05      0.00
  -19   11   21      0.72      0.00
  -32    0   22     -2.79      0.00
  -28    0   22     -2.69      0.00
  -26    0   22      0.01      0.00
  -24    0   22      0.59      0.00
  -22    0   22      0.33      0.00
  -20    0   22      1.26      0.00
  -18    0   22      4.34      0.00
  -16    0   22      4.42      0.00
  -14    0   22      1.50      0.00
  -12    0   22     -0.06      0.00
  -10    0   22      0.47      0.00
  -33    1   22     -1.70      0.00
  -31    1   22     -3.11      0.00
  -29    1   22     -3.67      0.00
  -27    1   22     -1.43      0.00
  -25    1   22      0.71      0.00
  -23    1   22      0.52      0.00
  -21    1   22     -0.16      0.00
  -19    1   22      2.18      0.00
  -17    1   22      4.56      0.00
  -15    1   22      2.98      0.00
  -13    1   22      0.15      0.00
  -11    1   22     -0.39      0.00
  -32    2   22     -0.88      0.00
  -30    2   22     -1.57      0.00
  -28    2   22     -2.72      0.00
  -26    2   22      0.19      0.00
  -24    2   22      1.12      0.00
  -22    2   22     -1.47      0.00
  -20    2   22     -0.65      0.00
  -18    2   22      2.68      0.00
  -16    2   22      3.51      0.00
  -14    2   22      0.76      0.00
  -12    2   22     -1.16      0.00
  -10    2   22     -0.56      0.00
  -33    3   22      0.68      0.00
  -31    3   22     -0.12      0.00
  -29    3   22     -1.87      0.00
  -27    3   22     -1.19      0.00
  -25    3   22      0.74      0.00
  -23    3   22     -1.38      0.00
  -21    3   22     -2.52      0.00
  -19    3   22      0.07      0.00
  -17    3   22      2.09      0.00
  -15    3   22      0.99      0.00
  -13    3   22     -0.93      0.00
  -11    3   22     -0.53      0.00
  -32    4   22      0.93      0.00
  -28    4   22     -0.97      0.00
  -26    4   22     -1.91      0.00
  -24    4   22     -1.60      0.00
  -22    4   22     -1.22      0.00
  -20    4   22     -1.16      0.00
  -18    4   22     -0.24      0.00
  -16    4   22     -0.14      0.00
  -14    4   22     -0.24      0.00
  -12    4   22      0.45      0.00
  -31    5   22      1.88      0.00
  -29    5   22      1.20      0.00
  -27    5   22     -1.82      0.00
  -25    5   22     -2.97      0.00
  -23    5   22     -0.48      0.00
  -21    5   22      0.32      0.00
  -19    5   22     -0.64      0.00
  -17    5   22     -1.08      0.00
  -15    5   22     -0.77      0.00
  -13    5   22      0.91      0.00
  -11    5   22      0.76      0.00
  -30    6   22      1.61      0.00
  -28    6   22      0.19      0.00
  -26    6   22     -0.74      0.00
  -24    6   22     -0.16      0.00
  -22    6   22      0.40      0.00
  -20    6   22      0.50      0.00
  -18    6   22     -0.18      0.00
  -16    6   22     -0.56      0.00
  -14    6   22     -0.09      0.00
  -12    6   22      0.02      0.00
  -29    7   22      0.69      0.00
  -25    7   22      1.38      0.00
  -23    7   22      1.64      0.00
  -21    7   22      1.11      0.00
  -19    7   22      0.13      0.00
  -17    7   22     -0.30      0.00
  -15    7   22      0.38      0.00
  -13    7   22     -0.45      0.00
  -28    8   22      0.51      0.00
  -26    8   22     -0.40      0.00
  -24    8   22      1.76      0.00
  -22    8   22      3.61      0.00
  -20    8   22      0.84      0.00
  -18    8   22     -1.54      0.00
  -16    8   22     -0.03      0.00
  -25    9   22     -0.89      0.00
  -23    9   22      2.49      0.00
  -21    9   22      2.63      0.00
  -19    9   22     -0.73      0.00
  -17    9   22     -0.87      0.00
  -31    1   23     -1.51      0.00
  -29    1   23     -0.36      0.00
  -27    1   23     -2.07      0.00
  -25    1   23     -1.91      0.00
  -23    1   23      0.56      0.00
  -21    1   23      1.22      0.00
  -19    1   23      0.24      0.00
  -17    1   23     -0.84      0.00
  -15    1   23      0.26      0.00
  -13    1   23      1.29      0.00
  -32    2   23     -1.88      0.00
  -30    2   23     -1.96      0.00
  -28    2   23     -1.88      0.00
  -26    2   23     -2.42      0.00
  -24    2   23     -0.37      0.00
  -22    2   23      1.49      0.00
  -20    2   23      0.63      0.00
  -18    2   23     -0.97      0.00
  -16    2   23     -0.07      0.00
  -14    2   23      1.87      0.00
  -31    3   23     -2.47      0.00
  -29    3   23     -1.82      0.00
  -27    3   23     -1.12      0.00
  -25    3   23     -0.94      0.00
  -23    3   23      0.77      0.00
  -21    3   23      1.05      0.00
  -19    3   23     -1.37      0.00
  -17    3   23     -0.75      0.00
  -15    3   23      1.76      0.00
  -30    4   23     -1.39      0.00
  -26    4   23     -0.83      0.00
  -24    4   23      0.14      0.00
  -22    4   23      0.92      0.00
  -20    4   23     -1.57      0.00
  -18    4   23     -2.12      0.00
  -16    4   23      1.12      0.00
  -14    4   23      2.41      0.00
  -29    5   23     -1.58      0.00
  -25    5   23      0.15      0.00
  -23    5   23      1.44      0.00
  -21    5   23     -2.07      0.00
  -19    5   23     -3.55      0.00
  -17    5   23     -0.21      0.00
  -15    5   23      2.50      0.00
  -28    6   23     -3.45      0.00
  -26    6   23     -2.17      0.00
  -24    6   23      1.60      0.00
  -22    6   23     -0.22      0.00
  -20    6   23     -3.89      0.00
  -18    6   23     -2.27      0.00
  -16    6   23      1.24      0.00
  -27    7   23     -2.35      0.00
  -25    7   23     -0.88      0.00
  -23    7   23      0.90      0.00
  -21    7   23     -0.62      0.00
  -19    7   23     -2.55      0.00
  -24    8   23      0.48      0.00
  -22    8   23      0.97      0.00
  -30    0   24     -0.15      0.00
  -28    0   24     -1.03      0.00
  -26    0   24     -2.31      0.00
  -24    0   24     -1.75      0.00
  -22    0   24     -1.77      0.00
  -20    0   24     -2.04      0.00
  -18    0   24      1.07      0.00
  -29    1   24     -0.34      0.00
  -27    1   24     -1.15      0.00
  -25    1   24     -0.51      0.00
  -23    1   24     -0.45      0.00
  -21    1   24     -1.91      0.00
  -19    1   24     -0.71      0.00
  -17    1   24      2.46      0.00
  -30    2   24      1.02      0.00
  -28    2   24      0.10      0.00
  -26    2   24      1.69      0.00
  -24    2   24      2.17      0.00
  -22    2   24     -0.19      0.00
  -20    2   24     -1.05      0.00
  -18    2   24      0.99      0.00
  -29    3   24      1.18      0.00
  -27    3   24      1.66      0.00
  -25    3   24      3.04      0.00
  -23    3   24      1.74      0.00
  -21    3   24     -0.26      0.00
  -19    3   24      0.00      0.00
  -28    4   24      0.13      0.00
  -26    4   24      0.27      0.00
  -24    4   24      1.72      0.00
  -22    4   24      0.68      0.00
  -20    4   24     -1.00      0.00
  -18    4   24     -0.40      0.00
  -27    5   24     -2.32      0.00
  -25    5   24     -1.27      0.00
  -23    5   24      0.14      0.00
  -21    5   24     -1.08      0.00
  -24    6   24     -2.15      0.00
  -25    1   25     -0.48      0.00
    0    2    0    138.72      0.00
    2    2    0    110.81      0.00
    3    3    0     38.13      0.00
   23    9    0     -0.94      0.00
   17   15    0      1.56      0.00
    2   20    0     -1.57      0.00
    4   20    0      0.50      0.00
  -26    4    1      0.54      0.00
   24    4    1      0.02      0.00
  -25    7    1     -0.33      0.00
   23    7    1     -2.09      0.00
   12   16    1     -1.73      0.00
   13   17    1     -1.60      0.00
   -4   20    1     -0.45      0.00
    2   20    1     -0.09      0.00
   21    9    2     -0.05      0.00
  -24   10    2     -1.13      0.00
  -19   15    2     -2.57      0.00
   15   15    2      2.79      0.00
   -4   20    2      3.82      0.00
   -2   20    2      1.88      0.00
    0   20    2     -0.82      0.00
  -11    3    3    -15.18      0.00
   22    4    3      2.33      0.00
   21    7    3      0.08      0.00
    1   13    3      2.89      0.00
  -18   16    3     -0.05      0.00
  -14   18    3     -1.95      0.00
    8   18    3     -0.71      0.00
  -11   19    3     -1.86      0.00
   -5   19    3      0.99      0.00
    5   19    3     -0.66      0.00
   -4   20    3      1.10      0.00
   -2   20    3      0.75      0.00
    0   20    3      0.09      0.00
   -4    0    4    -41.34      0.00
  -29    3    4     -0.80      0.00
   21    3    4     -0.98      0.00
  -28    6    4     -1.88      0.00
   18   10    4     -0.55      0.00
  -25   11    4     -0.43      0.00
  -24   12    4     -1.30      0.00
  -23   13    4     -1.35      0.00
  -22   14    4      1.27      0.00
   14   14    4      1.51      0.00
  -19   15    4     -1.88      0.00
  -17   17    4      0.21      0.00
    9   17    4     -0.40      0.00
  -11   19    4     -1.53      0.00
   -5   19    4      3.06      0.00
   -3   19    4      1.93      0.00
   -4   20    4      0.81      0.00
  -30    2    5      1.16      0.00
   20    2    5     -0.07      0.00
  -12    6    5     -3.47      0.00
  -28    8    5      2.44      0.00
   18    8    5     -2.10      0.00
    3    9    5      6.20      0.00
    1   11    5      4.21      0.00
   10   16    5     -0.17      0.00
   19    1    6      1.08      0.00
  -29    7    6     -1.14      0.00
  -20   16    6      0.00      0.00
  -16   18    6      3.68      0.00
    4   18    6     -0.35      0.00
   17    5    7      2.41      0.00
    0    6    7      6.16      0.00
   15    9    7     -2.02      0.00
  -28   10    7      1.13      0.00
  -27   11    7      1.46      0.00
  -26   12    7     -0.51      0.00
  -25   13    7     -1.99      0.00
  -24   14    7     -0.03      0.00
    5   17    7     -0.84      0.00
  -16   18    7     -1.53      0.00
    2   18    7     -2.43      0.00
  -11   19    7      2.44      0.00
   -3   19    7      0.87      0.00
  -32    0    8     -0.28      0.00
  -32    2    8     -0.54      0.00
   16    4    8      0.71      0.00
  -30    8    8     -1.10      0.00
  -23   15    8      0.21      0.00
  -19   17    8     -0.63      0.00
  -16   18    8      0.26      0.00
    0   18    8     -0.86      0.00
  -11   19    8     -2.17      0.00
   -9   19    8      0.20      0.00
   -7   19    8      0.44      0.00
   -5   19    8     -0.94      0.00
   14    6    9      0.29      0.00
  -31    7    9      3.25      0.00
   -3    7    9      2.73      0.00
    4   16    9      0.78      0.00
  -19   17    9      1.54      0.00
  -16   18    9     -1.31      0.00
   -2   18    9      2.40      0.00
  -33    3   10      0.67      0.00
  -32    6   10     -0.10      0.00
   10   10   10     -0.47      0.00
    7   13   10      0.60      0.00
    2   16   10      0.97      0.00
  -19   17   10     -3.01      0.00
   -4   18   10     -0.81      0.00
  -33    5   11     -0.35      0.00
   10    8   11      0.45      0.00
  -30   10   11     -1.93      0.00
  -29   11   11     -0.48      0.00
  -28   12   11     -1.04      0.00
  -27   13   11     -2.53      0.00
    4   14   11      0.12      0.00
  -22   16   11      0.43      0.00
    0   16   11      0.02      0.00
  -19   17   11      1.96      0.00
  -14   18   11      0.08      0.00
  -12   18   11     -1.07      0.00
   -8   18   11     -0.16      0.00
  -34    2   12     -1.72      0.00
    9    7   12      0.11      0.00
  -32    8   12     -1.52      0.00
    0   10   12      2.43      0.00
  -20   12   12     -0.85      0.00
  -27   13   12      0.85      0.00
  -17   13   12     -1.62      0.00
    2   14   12     -0.03      0.00
   -2   16   12     -2.72      0.00
   -5   17   12     -0.10      0.00
    9    3   13     -0.59      0.00
  -34    4   13      2.88      0.00
    8    6   13      0.42      0.00
  -11   13   13     -3.33      0.00
   -4   16   13     -0.14      0.00
  -17   17   13     -1.08      0.00
   -9   17   13      1.64      0.00
  -35    1   14      0.56      0.00
  -33    7   14      0.69      0.00
   -3    9   14     -0.10      0.00
  -10   12   14     -1.38      0.00
  -27   13   14      1.68      0.00
   -2   14   14     -1.78      0.00
  -23   15   14     -0.10      0.00
  -20   16   14     -1.28      0.00
  -35    3   15     -1.51      0.00
    5    5   15      0.61      0.00
  -34    6   15      2.02      0.00
   -3    7   15     -0.06      0.00
  -27   13   15      0.83      0.00
   -4   14   15     -1.90      0.00
  -23   15   15     -2.08      0.00
   -7   15   15     -0.31      0.00
  -18   16   15     -0.58      0.00
  -12   16   15     -1.24      0.00
    4    0   16     -2.62      0.00
    4    2   16      0.14      0.00
  -35    3   16      0.43      0.00
  -34    6   16     -1.07      0.00
  -21   15   16      0.56      0.00
  -35    3   17      0.09      0.00
  -34    6   17     -1.00      0.00
  -28   12   17      1.76      0.00
   -7   13   17      1.96      0.00
  -10   14   17      1.58      0.00
  -17   15   17      0.27      0.00
  -15   15   17      1.54      0.00
    0    0   18      8.90      0.00
  -35    3   18     -0.57      0.00
  -34    6   18     -2.39      0.00
  -33    7   18     -1.17      0.00
  -29   11   18     -1.74      0.00
   -8   12   18      2.25      0.00
  -25   13   18      2.57      0.00
  -20   14   18      0.24      0.00
  -16   14   18     -0.02      0.00
  -14   14   18     -0.31      0.00
   -2    2   19     -1.59      0.00
  -35    3   19     -1.52      0.00
   -3    5   19      0.53      0.00
  -33    7   19      0.40      0.00
  -32    8   19      1.08      0.00
  -31    9   19      0.86      0.00
  -30   10   19      1.90      0.00
   -9   11   19     -0.32      0.00
  -26   12   19     -1.84      0.00
  -23   13   19     -1.25      0.00
  -21   13   19      0.05      0.00
  -15   13   19     -0.49      0.00
   -4    0   20     -1.69      0.00
  -35    1   20      0.71      0.00
   -4    2   20     -1.87      0.00
  -35    3   20      1.61      0.00
   -6    6   20      0.83      0.00
   -9    9   20      1.28      0.00
  -27   11   20     -1.47      0.00
  -24   12   20      1.54      0.00
  -22   12   20      0.76      0.00
  -16   12   20     -1.16      0.00
  -35    1   21     -0.52      0.00
  -34    4   21     -0.89      0.00
  -33    5   21     -1.35      0.00
  -29    9   21      1.77      0.00
  -14   10   21      0.98      0.00
  -23   11   21      0.41      0.00
  -17   11   21      0.43      0.00
  -34    0   22     -1.11      0.00
  -30    0   22     -5.46      0.00
   -9    1   22      0.06      0.00
  -34    2   22     -0.91      0.00
  -30    4   22      0.29      0.00
  -10    4   22      0.57      0.00
  -27    7   22      0.56      0.00
  -14    8   22      1.08      0.00
  -27    9   22     -1.07      0.00
  -22   10   22      0.77      0.00
  -20   10   22      0.43      0.00
  -33    1   23     -1.03      0.00
  -12    2   23      1.40      0.00
  -13    3   23      2.25      0.00
  -32    4   23     -2.35      0.00
  -28    4   23     -0.82      0.00
  -31    5   23     -0.55      0.00
  -27    5   23     -2.44      0.00
  -30    6   23     -0.79      0.00
  -17    7   23     -1.01      0.00
  -26    8   23     -0.41      0.00
  -20    8   23     -0.33      0.00
  -16    0   24      2.70      0.00
  -31    1   24      0.88      0.00
  -16    2   24      2.75      0.00
  -31    3   24      1.38      0.00
  -17    3   24      1.32      0.00
  -30    4   24      1.90      0.00
  -29    5   24      0.03      0.00
  -19    5   24     -1.82      0.00
  -26    6   24     -2.26      0.00
  -22    6   24     -1.55      0.00
  -20    6   24     -1.22      0.00
  -27    1   25     -0.24      0.00
  -23    1   25      0.17      0.00
  -21    1   25      0.54      0.00
  -28    2   25      0.64      0.00
  -26    2   25     -0.44      0.00
  -24    2   25     -0.49      0.00
  -22    2   25      0.56      0.00
  -27    3   25      0.00      0.00
  -25    3   25     -1.02      0.00
  -23    3   25      0.18      0.00
    0    0    0      0.00      0.00
# SQUEEZE RESULTS (Version = 201118)
# Note: Data are Listed for all Voids in the P1 Unit Cell
# i.e. Centre of Gravity, Solvent Accessible Volume,
# Recovered number of Electrons in the Void and
# Details about the Squeezed Material
loop_
  _platon_squeeze_void_nr
  _platon_squeeze_void_average_x
  _platon_squeeze_void_average_y
  _platon_squeeze_void_average_z
  _platon_squeeze_void_volume
  _platon_squeeze_void_count_electrons
  _platon_squeeze_void_content
   1  0.000  0.000  0.001       657       119 ' '
   2  0.194  0.202  0.979         7         0 ' '
   3  0.806  0.202  0.521         7         0 ' '
   4  0.500  0.500  1.096       657       119 ' '
   5  0.306  0.298  0.021         7         0 ' '
   6  0.694  0.298  0.479         7         0 ' '
   7  0.306  0.702  0.521         7         0 ' '
   8  0.694  0.702  0.979         7         0 ' '
   9  0.194  0.798  0.479         7         0 ' '
  10  0.806  0.798  0.021         7         0 ' '
# Missing Reflections Below sin(th)/lambda = 0.25
loop_
  _platon_missing_refln_index_h
  _platon_missing_refln_index_k
  _platon_missing_refln_index_l
  _platon_missing_refln_theta
    0    2    0     4.792
    2    2    0     6.105
    3    3    0     9.179
  -11    3    3    18.054
   -4    0    4     7.663
_platon_squeeze_void_probe_radius                  1.20
_platon_squeeze_details
)
TITL ZYBB8_0m         C 2/c        R = 0.13
CELL   28.3600   16.0571   20.1217     90.00    134.05     90.00
SPGR C2/c
# Solvent Accessible Volume =      1373
# Electrons Found in S.A.V. =       237
# Note: Atoms in Void are Labelled as Cxxx and Qxxx for all Others
Q101 0.249 0.503 0.124 !       2.75 eA-3
Q102 0.846 0.500 0.968 !       2.69 eA-3
C103 0.939 0.066 0.101 !       2.66 eA-3
C104 0.448 0.434 0.047 !       2.60 eA-3
C105 0.546 0.472 0.393 !       2.51 eA-3
C106 0.471 0.437 0.168 !       2.33 eA-3
C107 0.955 0.052 0.059 !       2.18 eA-3
C108 0.962 0.094 0.012 !       1.71 eA-3
Q109 0.117 0.064 0.458 !       0.83 eA-3
Q110 0.587 0.078 0.475 !       0.78 eA-3
Q111 0.312 0.079 0.444 !       0.75 eA-3
Q112 0.149 0.139 0.236 !       0.74 eA-3
Q113 0.672 0.357 0.344 !       0.73 eA-3
Q114 0.783 0.419 0.399 !       0.72 eA-3
Q115 0.204 0.483 0.600 !       0.70 eA-3
Q116 0.414 0.159 0.480 !       0.68 eA-3
Q117 0.303 0.126 0.892 !       0.68 eA-3
Q118 0.431 0.371 0.108 !       0.68 eA-3
Q119 0.517 0.250 0.113 !       0.66 eA-3
Q120 0.703 0.422 0.323 !       0.66 eA-3
Q121 0.203 0.922 0.323 !       0.66 eA-3
Q122 0.977 0.239 0.375 !       0.65 eA-3
Q123 0.218 0.360 0.151 !       0.64 eA-3
Q124 0.617 0.272 0.222 !       0.63 eA-3
Q125 0.273 0.124 0.454 !       0.63 eA-3
Q126 0.069 0.302 0.925 !       0.63 eA-3
Q127 0.850 0.436 0.680 !       0.61 eA-3
Q128 0.665 0.308 0.280 !       0.60 eA-3
Q129 0.165 0.183 0.782 !       0.60 eA-3
Q130 0.219 0.403 0.600 !       0.59 eA-3
Q131 0.210 0.053 0.113 !       0.59 eA-3
Q132 0.483 0.333 0.048 !       0.59 eA-3
Q133 0.562 0.201 0.952 !       0.58 eA-3
Q134 0.968 0.423 0.121 !       0.58 eA-3
Q135 0.923 0.418 0.064 !       0.58 eA-3
Q136 0.320 0.308 0.745 !       0.57 eA-3
Q137 0.023 0.234 0.671 !       0.57 eA-3
C138 0.492 0.469 0.899 !       0.57 eA-3
Q139 0.484 0.284 0.623 !       0.56 eA-3
Q140 0.851 0.416 0.263 !       0.53 eA-3
Q141 0.697 0.125 0.036 !       0.53 eA-3
Q142 0.055 0.191 0.949 !       0.53 eA-3
Q143 0.805 0.141 0.239 !       0.53 eA-3
Q144 0.152 0.434 0.307 !       0.53 eA-3
Q145 0.370 0.386 0.213 !       0.53 eA-3
C146 0.476 0.392 0.725 !       0.53 eA-3
Q147 0.776 0.187 0.704 !       0.52 eA-3
Q148 0.797 0.092 0.163 !       0.52 eA-3
Q149 0.602 0.076 0.992 !       0.52 eA-3
C150 0.384 0.436 0.590 !       0.51 eA-3
Q151 0.902 0.043 0.555 !       0.51 eA-3
Q152 0.101 0.034 0.531 !       0.51 eA-3
Q153 0.882 0.237 0.233 !       0.50 eA-3
Q154 0.206 0.072 0.545 !       0.50 eA-3
Q155 0.381 0.426 0.810 !       0.50 eA-3
)
;
_shelx_fab_checksum              46982
loop_
_space_group_symop_operation_xyz
'x, y, z'
'-x, y, -z+1/2'
'x+1/2, y+1/2, z'
'-x+1/2, y+1/2, -z+1/2'
'-x, -y, -z'
'x, -y, z-1/2'
'-x+1/2, -y+1/2, -z'
'x+1/2, -y+1/2, z-1/2'
loop_
_atom_site_label
_atom_site_type_symbol
_atom_site_fract_x
_atom_site_fract_y
_atom_site_fract_z
_atom_site_U_iso_or_equiv
_atom_site_adp_type
_atom_site_occupancy
_atom_site_site_symmetry_order
_atom_site_calc_flag
_atom_site_refinement_flags_posn
_atom_site_refinement_flags_adp
_atom_site_refinement_flags_occupancy
_atom_site_disorder_assembly
_atom_site_disorder_group
Cu1 Cu 0.19932(5) 0.49937(7) 0.07229(7) 0.0234(4) Uani 1 1 d . . . . .
B1 B 0.1582(5) 0.4245(7) 0.3227(7) 0.036(3) Uani 1 1 d . . . . .
H1 H 0.131641 0.373959 0.324100 0.043 Uiso 1 1 calc R U . . .
B10 B 0.1515(5) 0.5746(7) 0.2390(8) 0.038(3) Uani 1 1 d . . . . .
H10 H 0.120279 0.623277 0.184066 0.045 Uiso 1 1 calc R U . . .
B11 B 0.1948(4) 0.4994(6) 0.2353(7) 0.028(2) Uani 1 1 d . . . . .
H11 H 0.192625 0.498757 0.177602 0.033 Uiso 1 1 calc R U . . .
B12 B 0.2382(5) 0.5773(7) 0.3197(7) 0.036(3) Uani 1 1 d . . . . .
H12 H 0.264722 0.628284 0.318883 0.043 Uiso 1 1 calc R U . . .
B9 B 0.1978(5) 0.5956(7) 0.3574(7) 0.034(3) Uani 1 1 d . . . . .
H9 H 0.197439 0.658341 0.381491 0.040 Uiso 1 1 calc R U . . .
B8 B 0.2697(5) 0.5318(8) 0.4248(8) 0.046(3) Uani 1 1 d . . . . .
H8 H 0.317453 0.552268 0.493799 0.055 Uiso 1 1 calc R U . . .
B7 B 0.2675(5) 0.4723(7) 0.3478(7) 0.040(3) Uani 1 1 d . . . . .
H7 H 0.312906 0.453430 0.364759 0.048 Uiso 1 1 calc R U . . .
B6 B 0.1976(5) 0.4069(7) 0.2850(8) 0.039(3) Uani 1 1 d . . . . .
H6 H 0.196810 0.343863 0.260429 0.047 Uiso 1 1 calc R U . . .
B5 B 0.1267(5) 0.4675(8) 0.2173(7) 0.038(3) Uani 1 1 d . . . . .
H5 H 0.079632 0.445221 0.148628 0.046 Uiso 1 1 calc R U . . .
B4 B 0.1298(5) 0.5296(8) 0.2944(7) 0.039(3) Uani 1 1 d . . . . .
H4 H 0.084062 0.548689 0.276389 0.047 Uiso 1 1 calc R U . . .
B3 B 0.2455(5) 0.4271(7) 0.4039(8) 0.039(3) Uani 1 1 d . . . . .
H3 H 0.276651 0.378230 0.458588 0.047 Uiso 1 1 calc R U . . .
B2 B 0.2027(4) 0.5044(6) 0.4082(6) 0.026(2) Uani 1 1 d . . . . .
H2 H 0.205594 0.506819 0.466576 0.031 Uiso 1 1 calc R U . . .
N1_1 N 0.6297(3) 0.0900(4) 0.5045(5) 0.0262(17) Uani 1 1 d . . . . .
C1_1 C 0.6262(4) 0.1442(6) 0.4484(6) 0.033(2) Uani 1 1 d . . . . .
H1_1 H 0.661042 0.145908 0.451328 0.040 Uiso 1 1 calc R U . . .
N2_1 N 0.4680(3) 0.2461(5) 0.3167(5) 0.039(2) Uani 1 1 d . . . . .
C2_1 C 0.5737(4) 0.1956(6) 0.3888(6) 0.037(2) Uani 1 1 d . . . . .
H2_1 H 0.572086 0.232180 0.350112 0.045 Uiso 1 1 calc R U . . .
N3_1 N 0.4355(3) 0.2614(5) 0.3350(5) 0.0360(19) Uani 1 1 d . . . . .
C3_1 C 0.5241(4) 0.1950(6) 0.3843(6) 0.034(2) Uani 1 1 d . . . . .
N4_1 N 0.2705(3) 0.4133(4) 0.1431(4) 0.0241(16) Uani 1 1 d . . . . .
C5_1 C 0.5814(4) 0.0897(5) 0.4998(6) 0.029(2) Uani 1 1 d . . . . .
H5_1 H 0.583966 0.052501 0.538891 0.035 Uiso 1 1 calc R U . . .
C6_1 C 0.3787(4) 0.3121(6) 0.2636(6) 0.029(2) Uani 1 1 d . . . . .
C7_1 C 0.3748(4) 0.3673(6) 0.2071(6) 0.035(2) Uani 1 1 d . . . . .
H7_1 H 0.409371 0.370797 0.209515 0.042 Uiso 1 1 calc R U . . .
C8_1 C 0.3211(4) 0.4161(6) 0.1485(6) 0.038(2) Uani 1 1 d . . . . .
H8_1 H 0.318487 0.453693 0.109678 0.046 Uiso 1 1 calc R U . . .
C9_1 C 0.2724(4) 0.3596(6) 0.1935(6) 0.032(2) Uani 1 1 d . . . . .
H9_1 H 0.235844 0.355631 0.186837 0.038 Uiso 1 1 calc R U . . .
C10_1 C 0.3270(4) 0.3073(6) 0.2576(6) 0.037(2) Uani 1 1 d . . . . .
H10_1 H 0.328318 0.270002 0.295540 0.045 Uiso 1 1 calc R U . . .
C4_1 C 0.5268(4) 0.1402(6) 0.4412(6) 0.036(2) Uani 1 1 d . . . . .
H4_1 H 0.492521 0.137919 0.439454 0.043 Uiso 1 1 calc R U . . .
N1_2 N 0.6288(3) 0.9129(4) 0.5005(4) 0.0247(17) Uani 1 1 d . . . . .
C1_2 C 0.5770(4) 0.9189(6) 0.4085(6) 0.032(2) Uani 1 1 d . . . . .
H1_2 H 0.578015 0.959920 0.375405 0.038 Uiso 1 1 calc R U . . .
N2_2 N 0.4666(3) 0.7557(5) 0.3662(5) 0.039(2) Uani 1 1 d . . . . .
C2_2 C 0.5227(4) 0.8681(6) 0.3602(6) 0.031(2) Uani 1 1 d . . . . .
H2_2 H 0.486424 0.874729 0.295452 0.037 Uiso 1 1 calc R U . . .
N3_2 N 0.4348(3) 0.7422(5) 0.2840(5) 0.0358(19) Uani 1 1 d . . . . .
C3_2 C 0.5223(4) 0.8070(6) 0.4086(6) 0.029(2) Uani 1 1 d . . . . .
N4_2 N 0.2697(3) 0.5873(4) 0.1423(5) 0.0248(16) Uani 1 1 d . . . . .
C5_2 C 0.6266(4) 0.8517(6) 0.5456(6) 0.033(2) Uani 1 1 d . . . . .
H5_2 H 0.663634 0.844389 0.609981 0.040 Uiso 1 1 calc R U . . .
C6_2 C 0.3777(4) 0.6893(5) 0.2402(6) 0.030(2) Uani 1 1 d . . . . .
C7_2 C 0.3705(4) 0.6357(6) 0.2869(6) 0.036(2) Uani 1 1 d . . . . .
H7_2 H 0.402463 0.633708 0.352499 0.043 Uiso 1 1 calc R U . . .
C8_2 C 0.3174(4) 0.5873(6) 0.2371(6) 0.031(2) Uani 1 1 d . . . . .
H8_2 H 0.312416 0.550799 0.268960 0.037 Uiso 1 1 calc R U . . .
C9_2 C 0.2751(4) 0.6391(5) 0.0984(6) 0.031(2) Uani 1 1 d . . . . .
H9_2 H 0.241137 0.641129 0.032816 0.037 Uiso 1 1 calc R U . . .
C10_2 C 0.3302(4) 0.6929(6) 0.1451(6) 0.038(2) Uani 1 1 d . . . . .
H10_2 H 0.333947 0.729708 0.111997 0.046 Uiso 1 1 calc R U . . .
C4_2 C 0.5746(4) 0.8013(6) 0.5032(6) 0.036(2) Uani 1 1 d . . . . .
H4_2 H 0.573772 0.762270 0.537926 0.043 Uiso 1 1 calc R U . . .
loop_
_atom_site_aniso_label
_atom_site_aniso_U_11
_atom_site_aniso_U_22
_atom_site_aniso_U_33
_atom_site_aniso_U_23
_atom_site_aniso_U_13
_atom_site_aniso_U_12
Cu1 0.0282(6) 0.0142(7) 0.0278(7) -0.0003(6) 0.0194(6) -0.0006(6)
B1 0.060(7) 0.024(7) 0.048(7) -0.005(5) 0.046(6) -0.003(5)
B10 0.051(6) 0.037(7) 0.042(6) 0.017(5) 0.038(6) 0.015(5)
B11 0.039(5) 0.026(6) 0.030(5) -0.003(5) 0.028(5) 0.003(5)
B12 0.053(7) 0.021(6) 0.048(7) -0.010(5) 0.041(6) -0.018(5)
B9 0.054(7) 0.026(7) 0.042(6) -0.001(5) 0.041(6) 0.003(5)
B8 0.041(6) 0.051(8) 0.043(7) -0.011(6) 0.028(6) -0.004(5)
B7 0.038(6) 0.046(8) 0.040(6) -0.007(6) 0.029(5) 0.004(5)
B6 0.056(7) 0.036(7) 0.048(7) -0.003(6) 0.044(6) -0.001(5)
B5 0.039(6) 0.058(8) 0.030(6) -0.008(6) 0.028(5) -0.011(5)
B4 0.040(6) 0.054(8) 0.040(6) 0.014(6) 0.034(6) 0.013(5)
B3 0.051(7) 0.034(7) 0.046(7) 0.004(6) 0.039(6) 0.011(5)
B2 0.036(5) 0.021(6) 0.027(5) -0.003(5) 0.024(5) 0.002(5)
N1_1 0.028(4) 0.019(4) 0.034(4) 0.001(3) 0.023(3) 0.000(3)
C1_1 0.034(5) 0.030(6) 0.040(5) 0.013(4) 0.027(4) 0.010(4)
N2_1 0.045(4) 0.042(5) 0.038(4) 0.006(4) 0.032(4) 0.002(4)
C2_1 0.046(5) 0.042(7) 0.037(5) 0.012(5) 0.034(5) 0.007(5)
N3_1 0.040(4) 0.032(5) 0.046(5) 0.001(4) 0.033(4) 0.003(4)
C3_1 0.032(5) 0.031(6) 0.036(5) 0.005(4) 0.023(4) 0.011(4)
N4_1 0.029(4) 0.025(4) 0.020(4) 0.002(3) 0.018(3) 0.003(3)
C5_1 0.038(5) 0.028(6) 0.033(5) 0.006(4) 0.029(4) 0.006(4)
C6_1 0.033(5) 0.023(5) 0.029(5) 0.006(4) 0.021(4) 0.004(4)
C7_1 0.035(5) 0.037(6) 0.039(5) 0.004(5) 0.028(5) 0.005(4)
C8_1 0.028(5) 0.050(7) 0.035(5) 0.004(5) 0.021(4) 0.004(4)
C9_1 0.035(5) 0.029(6) 0.033(5) 0.001(4) 0.024(4) 0.002(4)
C10_1 0.050(6) 0.024(6) 0.048(6) 0.008(5) 0.038(5) 0.005(4)
C4_1 0.037(5) 0.043(6) 0.042(5) 0.009(5) 0.032(5) 0.006(4)
N1_2 0.027(4) 0.026(4) 0.022(4) 0.006(3) 0.017(3) 0.002(3)
C1_2 0.035(5) 0.031(6) 0.028(5) -0.004(4) 0.022(4) -0.003(4)
N2_2 0.043(4) 0.034(5) 0.034(4) -0.005(4) 0.024(4) -0.010(4)
C2_2 0.035(5) 0.034(6) 0.027(5) -0.002(4) 0.023(4) -0.005(4)
N3_2 0.038(4) 0.032(5) 0.035(4) 0.000(4) 0.024(4) -0.002(3)
C3_2 0.031(5) 0.027(6) 0.035(5) -0.005(4) 0.025(4) -0.006(4)
N4_2 0.031(4) 0.018(4) 0.028(4) -0.003(3) 0.022(3) 0.001(3)
C5_2 0.035(5) 0.028(6) 0.030(5) -0.004(4) 0.020(4) -0.006(4)
C6_2 0.031(5) 0.022(5) 0.032(5) -0.006(4) 0.020(4) -0.008(4)
C7_2 0.038(5) 0.042(7) 0.027(5) -0.003(5) 0.023(4) -0.005(4)
C8_2 0.032(5) 0.038(6) 0.026(5) -0.001(4) 0.021(4) -0.008(4)
C9_2 0.042(5) 0.021(5) 0.031(5) 0.001(4) 0.026(4) -0.001(4)
C10_2 0.041(5) 0.032(6) 0.035(5) -0.001(4) 0.024(5) -0.009(4)
C4_2 0.050(6) 0.026(6) 0.038(5) -0.001(4) 0.032(5) -0.007(4)
loop_
_atom_type_symbol
_atom_type_description
_atom_type_scat_dispersion_real
_atom_type_scat_dispersion_imag
_atom_type_scat_source
C C 0.0137 0.0067 'International Tables Vol C Tables 4.2.6.8 and 6.1.1.4'
B B 0.0070 0.0029 'International Tables Vol C Tables 4.2.6.8 and 6.1.1.4'
Cu Cu -2.7974 3.6876 'International Tables Vol C Tables 4.2.6.8 and 6.1.1.4'
N N 0.0241 0.0134 'International Tables Vol C Tables 4.2.6.8 and 6.1.1.4'
H H 0.0000 0.0000 'International Tables Vol C Tables 4.2.6.8 and 6.1.1.4'
loop_
_geom_angle_atom_site_label_1
_geom_angle_atom_site_label_2
_geom_angle_atom_site_label_3
_geom_angle
_geom_angle_site_symmetry_1
_geom_angle_site_symmetry_3
_geom_angle_publ_flag
N4_1 Cu1 N4_2 88.2(3) . . ?
N4_1 Cu1 N1_2 178.8(3) . 8_465 ?
N4_2 Cu1 N1_2 91.0(2) . 8_465 ?
N4_1 Cu1 N1_1 91.0(3) . 8_455 ?
N4_2 Cu1 N1_1 178.8(3) . 8_455 ?
N1_2 Cu1 N1_1 89.8(3) 8_465 8_455 ?
B6 B1 B5 59.1(6) . . ?
B6 B1 B3 60.3(6) . . ?
B5 B1 B3 108.1(7) . . ?
B6 B1 B2 107.2(8) . . ?
B5 B1 B2 107.7(8) . . ?
B3 B1 B2 59.9(6) . . ?
B6 B1 B4 107.2(8) . . ?
B5 B1 B4 60.6(6) . . ?
B3 B1 B4 107.5(8) . . ?
B2 B1 B4 59.1(6) . . ?
B6 B1 H1 122.3 . . ?
B5 B1 H1 121.7 . . ?
B3 B1 H1 121.6 . . ?
B2 B1 H1 122.3 . . ?
B4 B1 H1 122.1 . . ?
B4 B10 B11 107.8(8) . . ?
B4 B10 B12 107.6(7) . . ?
B11 B10 B12 59.3(6) . . ?
B4 B10 B9 59.1(6) . . ?
B11 B10 B9 107.4(7) . . ?
B12 B10 B9 60.4(6) . . ?
B4 B10 B5 60.7(6) . . ?
B11 B10 B5 59.8(6) . . ?
B12 B10 B5 107.8(7) . . ?
B9 B10 B5 107.9(7) . . ?
B4 B10 H10 121.9 . . ?
B11 B10 H10 122.2 . . ?
B12 B10 H10 121.9 . . ?
B9 B10 H10 122.0 . . ?
B5 B10 H10 121.5 . . ?
B12 B11 B7 61.4(6) . . ?
B12 B11 B6 109.2(7) . . ?
B7 B11 B6 60.7(6) . . ?
B12 B11 B10 60.6(6) . . ?
B7 B11 B10 110.2(7) . . ?
B6 B11 B10 108.2(7) . . ?
B12 B11 B5 109.7(7) . . ?
B7 B11 B5 109.2(7) . . ?
B6 B11 B5 59.1(6) . . ?
B10 B11 B5 61.0(6) . . ?
B12 B11 H11 120.5 . . ?
B7 B11 H11 120.2 . . ?
B6 B11 H11 122.0 . . ?
B10 B11 H11 120.9 . . ?
B5 B11 H11 121.2 . . ?
B11 B12 B10 60.0(6) . . ?
B11 B12 B8 107.0(8) . . ?
B10 B12 B8 108.0(7) . . ?
B11 B12 B9 107.7(7) . . ?
B10 B12 B9 60.0(6) . . ?
B8 B12 B9 60.3(6) . . ?
B11 B12 B7 59.4(6) . . ?
B10 B12 B7 108.1(7) . . ?
B8 B12 B7 60.0(6) . . ?
B9 B12 B7 108.5(7) . . ?
B11 B12 H12 122.4 . . ?
B10 B12 H12 121.5 . . ?
B8 B12 H12 121.9 . . ?
B9 B12 H12 121.5 . . ?
B7 B12 H12 121.6 . . ?
B2 B9 B4 60.7(6) . . ?
B2 B9 B10 108.1(8) . . ?
B4 B9 B10 59.9(6) . . ?
B2 B9 B12 107.3(7) . . ?
B4 B9 B12 107.6(7) . . ?
B10 B9 B12 59.6(6) . . ?
B2 B9 B8 59.2(6) . . ?
B4 B9 B8 107.7(8) . . ?
B10 B9 B8 107.2(7) . . ?
B12 B9 B8 59.7(6) . . ?
B2 B9 H9 121.7 . . ?
B4 B9 H9 121.5 . . ?
B10 B9 H9 122.0 . . ?
B12 B9 H9 122.2 . . ?
B8 B9 H9 122.3 . . ?
B2 B8 B3 61.2(6) . . ?
B2 B8 B12 107.2(7) . . ?
B3 B8 B12 108.6(8) . . ?
B2 B8 B7 108.9(8) . . ?
B3 B8 B7 60.5(7) . . ?
B12 B8 B7 60.2(6) . . ?
B2 B8 B9 58.8(6) . . ?
B3 B8 B9 108.5(8) . . ?
B12 B8 B9 60.0(6) . . ?
B7 B8 B9 108.4(8) . . ?
B2 B8 H8 121.9 . . ?
B3 B8 H8 120.8 . . ?
B12 B8 H8 121.9 . . ?
B7 B8 H8 121.1 . . ?
B9 B8 H8 122.0 . . ?
B11 B7 B6 59.9(6) . . ?
B11 B7 B3 107.6(7) . . ?
B6 B7 B3 59.9(6) . . ?
B11 B7 B8 106.7(7) . . ?
B6 B7 B8 106.4(8) . . ?
B3 B7 B8 59.0(7) . . ?
B11 B7 B12 59.2(6) . . ?
B6 B7 B12 106.8(7) . . ?
B3 B7 B12 107.1(7) . . ?
B8 B7 B12 59.8(6) . . ?
B11 B7 H7 122.2 . . ?
B6 B7 H7 122.4 . . ?
B3 B7 H7 122.1 . . ?
B8 B7 H7 122.8 . . ?
B12 B7 H7 122.4 . . ?
B5 B6 B1 60.9(6) . . ?
B5 B6 B11 60.8(6) . . ?
B1 B6 B11 108.6(8) . . ?
B5 B6 B7 109.6(8) . . ?
B1 B6 B7 109.2(8) . . ?
B11 B6 B7 59.4(6) . . ?
B5 B6 B3 109.8(8) . . ?
B1 B6 B3 60.6(6) . . ?
B11 B6 B3 107.5(8) . . ?
B7 B6 B3 60.2(6) . . ?
B5 B6 H6 120.1 . . ?
B1 B6 H6 120.9 . . ?
B11 B6 H6 122.1 . . ?
B7 B6 H6 121.2 . . ?
B3 B6 H6 121.4 . . ?
B6 B5 B11 60.1(6) . . ?
B6 B5 B1 59.9(6) . . ?
B11 B5 B1 107.3(7) . . ?
B6 B5 B10 107.6(7) . . ?
B11 B5 B10 59.2(6) . . ?
B1 B5 B10 107.2(7) . . ?
B6 B5 B4 107.3(7) . . ?
B11 B5 B4 105.7(7) . . ?
B1 B5 B4 60.0(6) . . ?
B10 B5 B4 58.7(6) . . ?
B6 B5 H5 121.6 . . ?
B11 B5 H5 122.7 . . ?
B1 B5 H5 121.8 . . ?
B10 B5 H5 122.4 . . ?
B4 B5 H5 122.9 . . ?
B9 B4 B10 61.0(6) . . ?
B9 B4 B2 59.3(6) . . ?
B10 B4 B2 107.9(7) . . ?
B9 B4 B1 108.5(7) . . ?
B10 B4 B1 108.2(7) . . ?
B2 B4 B1 60.4(6) . . ?
B9 B4 B5 109.3(7) . . ?
B10 B4 B5 60.6(6) . . ?
B2 B4 B5 107.7(7) . . ?
B1 B4 B5 59.4(6) . . ?
B9 B4 H4 121.0 . . ?
B10 B4 H4 121.3 . . ?
B2 B4 H4 122.2 . . ?
B1 B4 H4 121.7 . . ?
B5 B4 H4 121.5 . . ?
B8 B3 B6 107.6(8) . . ?
B8 B3 B2 59.1(6) . . ?
B6 B3 B2 106.5(7) . . ?
B8 B3 B7 60.6(7) . . ?
B6 B3 B7 59.9(6) . . ?
B2 B3 B7 107.3(8) . . ?
B8 B3 B1 107.8(8) . . ?
B6 B3 B1 59.1(6) . . ?
B2 B3 B1 60.1(6) . . ?
B7 B3 B1 107.7(8) . . ?
B8 B3 H3 121.7 . . ?
B6 B3 H3 122.6 . . ?
B2 B3 H3 122.6 . . ?
B7 B3 H3 121.6 . . ?
B1 B3 H3 121.9 . . ?
B9 B2 B8 62.0(6) . . ?
B9 B2 B4 59.9(6) . . ?
B8 B2 B4 109.2(7) . . ?
B9 B2 B3 109.8(7) . . ?
B8 B2 B3 59.7(6) . . ?
B4 B2 B3 108.7(7) . . ?
B9 B2 B1 109.1(7) . . ?
B8 B2 B1 108.2(7) . . ?
B4 B2 B1 60.5(6) . . ?
B3 B2 B1 60.0(6) . . ?
B9 B2 H2 120.4 . . ?
B8 B2 H2 121.0 . . ?
B4 B2 H2 121.3 . . ?
B3 B2 H2 121.3 . . ?
B1 B2 H2 121.6 . . ?
C5_1 N1_1 C1_1 118.0(7) . . ?
C5_1 N1_1 Cu1 122.0(6) . 8_556 ?
C1_1 N1_1 Cu1 119.0(5) . 8_556 ?
C2_1 C1_1 N1_1 121.3(8) . . ?
C2_1 C1_1 H1_1 119.3 . . ?
N1_1 C1_1 H1_1 119.3 . . ?
N3_1 N2_1 C3_1 113.4(7) . . ?
C3_1 C2_1 C1_1 120.3(9) . . ?
C3_1 C2_1 H2_1 119.8 . . ?
C1_1 C2_1 H2_1 119.8 . . ?
N2_1 N3_1 C6_1 111.2(7) . . ?
C2_1 C3_1 C4_1 119.2(8) . . ?
C2_1 C3_1 N2_1 118.5(9) . . ?
C4_1 C3_1 N2_1 122.2(8) . . ?
C9_1 N4_1 C8_1 119.3(7) . . ?
C9_1 N4_1 Cu1 119.0(5) . . ?
C8_1 N4_1 Cu1 121.2(6) . . ?
N1_1 C5_1 C4_1 123.8(8) . . ?
N1_1 C5_1 H5_1 118.1 . . ?
C4_1 C5_1 H5_1 118.1 . . ?
C7_1 C6_1 C10_1 119.3(8) . . ?
C7_1 C6_1 N3_1 124.9(7) . . ?
C10_1 C6_1 N3_1 115.7(8) . . ?
C8_1 C7_1 C6_1 119.0(8) . . ?
C8_1 C7_1 H7_1 120.5 . . ?
C6_1 C7_1 H7_1 120.5 . . ?
C7_1 C8_1 N4_1 122.4(9) . . ?
C7_1 C8_1 H8_1 118.8 . . ?
N4_1 C8_1 H8_1 118.8 . . ?
N4_1 C9_1 C10_1 122.0(8) . . ?
N4_1 C9_1 H9_1 119.0 . . ?
C10_1 C9_1 H9_1 119.0 . . ?
C6_1 C10_1 C9_1 117.9(8) . . ?
C6_1 C10_1 H10_1 121.0 . . ?
C9_1 C10_1 H10_1 121.0 . . ?
C5_1 C4_1 C3_1 117.3(8) . . ?
C5_1 C4_1 H4_1 121.3 . . ?
C3_1 C4_1 H4_1 121.3 . . ?
C1_2 N1_2 C5_2 117.1(7) . . ?
C1_2 N1_2 Cu1 121.7(6) . 8_566 ?
C5_2 N1_2 Cu1 120.5(5) . 8_566 ?
N1_2 C1_2 C2_2 122.8(8) . . ?
N1_2 C1_2 H1_2 118.6 . . ?
C2_2 C1_2 H1_2 118.6 . . ?
N3_2 N2_2 C3_2 112.0(7) . . ?
C1_2 C2_2 C3_2 118.3(8) . . ?
C1_2 C2_2 H2_2 120.9 . . ?
C3_2 C2_2 H2_2 120.9 . . ?
N2_2 N3_2 C6_2 112.3(7) . . ?
C4_2 C3_2 C2_2 119.4(8) . . ?
C4_2 C3_2 N2_2 117.8(8) . . ?
C2_2 C3_2 N2_2 122.4(7) . . ?
C9_2 N4_2 C8_2 118.5(7) . . ?
C9_2 N4_2 Cu1 120.1(6) . . ?
C8_2 N4_2 Cu1 120.9(6) . . ?
C4_2 C5_2 N1_2 123.2(8) . . ?
C4_2 C5_2 H5_2 118.4 . . ?
N1_2 C5_2 H5_2 118.4 . . ?
C10_2 C6_2 C7_2 120.2(8) . . ?
C10_2 C6_2 N3_2 114.7(8) . . ?
C7_2 C6_2 N3_2 125.1(7) . . ?
C8_2 C7_2 C6_2 118.2(8) . . ?
C8_2 C7_2 H7_2 120.9 . . ?
C6_2 C7_2 H7_2 120.9 . . ?
C7_2 C8_2 N4_2 123.6(8) . . ?
C7_2 C8_2 H8_2 118.2 . . ?
N4_2 C8_2 H8_2 118.2 . . ?
N4_2 C9_2 C10_2 122.3(8) . . ?
N4_2 C9_2 H9_2 118.9 . . ?
C10_2 C9_2 H9_2 118.9 . . ?
C6_2 C10_2 C9_2 117.2(8) . . ?
C6_2 C10_2 H10_2 121.4 . . ?
C9_2 C10_2 H10_2 121.4 . . ?
C5_2 C4_2 C3_2 119.1(9) . . ?
C5_2 C4_2 H4_2 120.4 . . ?
C3_2 C4_2 H4_2 120.4 . . ?
loop_
_geom_bond_atom_site_label_1
_geom_bond_atom_site_label_2
_geom_bond_distance
_geom_bond_site_symmetry_2
_geom_bond_publ_flag
Cu1 N4_1 2.005(7) . ?
Cu1 N4_2 2.013(7) . ?
Cu1 N1_2 2.014(7) 8_465 ?
Cu1 N1_1 2.018(7) 8_455 ?
B1 B6 1.755(15) . ?
B1 B5 1.773(15) . ?
B1 B3 1.783(15) . ?
B1 B2 1.783(14) . ?
B1 B4 1.785(16) . ?
B1 H1 1.1200 . ?
B10 B4 1.759(15) . ?
B10 B11 1.761(14) . ?
B10 B12 1.771(15) . ?
B10 B9 1.779(15) . ?
B10 B5 1.793(17) . ?
B10 H10 1.1200 . ?
B11 B12 1.748(14) . ?
B11 B7 1.753(14) . ?
B11 B6 1.761(15) . ?
B11 B5 1.772(14) . ?
B11 H11 1.1200 . ?
B12 B8 1.781(16) . ?
B12 B9 1.786(15) . ?
B12 B7 1.788(16) . ?
B12 H12 1.1200 . ?
B9 B2 1.735(15) . ?
B9 B4 1.745(16) . ?
B9 B8 1.791(16) . ?
B9 H9 1.1200 . ?
B8 B2 1.743(15) . ?
B8 B3 1.754(17) . ?
B8 B7 1.784(16) . ?
B8 H8 1.1200 . ?
B7 B6 1.775(16) . ?
B7 B3 1.782(16) . ?
B7 H7 1.1200 . ?
B6 B5 1.742(16) . ?
B6 B3 1.776(15) . ?
B6 H6 1.1200 . ?
B5 B4 1.796(16) . ?
B5 H5 1.1200 . ?
B4 B2 1.760(14) . ?
B4 H4 1.1200 . ?
B3 B2 1.780(14) . ?
B3 H3 1.1200 . ?
B2 H2 1.1200 . ?
N1_1 C5_1 1.305(9) . ?
N1_1 C1_1 1.372(10) . ?
C1_1 C2_1 1.361(11) . ?
C1_1 H1_1 0.9500 . ?
N2_1 N3_1 1.235(9) . ?
N2_1 C3_1 1.429(10) . ?
C2_1 C3_1 1.347(11) . ?
C2_1 H2_1 0.9500 . ?
N3_1 C6_1 1.451(10) . ?
C3_1 C4_1 1.401(12) . ?
N4_1 C9_1 1.303(10) . ?
N4_1 C8_1 1.361(10) . ?
C5_1 C4_1 1.381(11) . ?
C5_1 H5_1 0.9500 . ?
C6_1 C7_1 1.383(11) . ?
C6_1 C10_1 1.387(11) . ?
C7_1 C8_1 1.352(11) . ?
C7_1 H7_1 0.9500 . ?
C8_1 H8_1 0.9500 . ?
C9_1 C10_1 1.411(11) . ?
C9_1 H9_1 0.9500 . ?
C10_1 H10_1 0.9500 . ?
C4_1 H4_1 0.9500 . ?
N1_2 C1_2 1.346(9) . ?
N1_2 C5_2 1.368(10) . ?
C1_2 C2_2 1.380(11) . ?
C1_2 H1_2 0.9500 . ?
N2_2 N3_2 1.234(9) . ?
N2_2 C3_2 1.426(10) . ?
C2_2 C3_2 1.387(11) . ?
C2_2 H2_2 0.9500 . ?
N3_2 C6_2 1.461(10) . ?
C3_2 C4_2 1.381(11) . ?
N4_2 C9_2 1.298(10) . ?
N4_2 C8_2 1.370(10) . ?
C5_2 C4_2 1.345(11) . ?
C5_2 H5_2 0.9500 . ?
C6_2 C10_2 1.376(11) . ?
C6_2 C7_2 1.391(11) . ?
C7_2 C8_2 1.332(11) . ?
C7_2 H7_2 0.9500 . ?
C8_2 H8_2 0.9500 . ?
C9_2 C10_2 1.425(11) . ?
C9_2 H9_2 0.9500 . ?
C10_2 H10_2 0.9500 . ?
C4_2 H4_2 0.9500 . ?
