#------------------------------------------------------------------------------
#$Date: 2020-09-09 04:23:33 +0300 (Wed, 09 Sep 2020) $
#$Revision: 256238 $
#$URL: file:///home/coder/svn-repositories/cod/cif/7/24/11/7241192.cif $
#------------------------------------------------------------------------------
#
# This file is available in the Crystallography Open Database (COD),
# http://www.crystallography.net/
#
# All data on this site have been placed in the public domain by the
# contributors.
#
data_7241192
loop_
_publ_author_name
'Guo, Ruihong'
'Gao, Lingling'
'Liang, Jinxia'
'Zhang, Zhikai'
'Zhang, Jie'
'Niu, Xiao-Yan'
'Hu, Tuoping'
_publ_section_title
;
 Two tetranuclear Cd-based metal-organic frameworks for sensitive sensing
 of TNP/Fe3+ in aqueous medium and gas adsorption
;
_journal_name_full               CrystEngComm
_journal_paper_doi               10.1039/D0CE01193B
_journal_year                    2020
_chemical_formula_moiety         'C82 H50 Cd4 N8 O22'
_chemical_formula_sum            'C80 H50 Cd4 N10 O22'
_chemical_formula_weight         1952.94
_space_group_crystal_system      triclinic
_space_group_IT_number           2
_space_group_name_Hall           '-P 1'
_space_group_name_H-M_alt        'P -1'
_atom_sites_solution_hydrogens   mixed
_audit_creation_date             2019-07-20
_audit_creation_method
;
Olex2 1.2
(compiled 2018.05.29 svn.r3508 for OlexSys, GUI svn.r5506)
;
_audit_update_record
;
2019-09-30 deposited with the CCDC.	2020-09-02 downloaded from the CCDC.
;
_cell_angle_alpha                84.748(4)
_cell_angle_beta                 89.922(4)
_cell_angle_gamma                87.094(4)
_cell_formula_units_Z            2
_cell_length_a                   14.865(2)
_cell_length_b                   15.836(3)
_cell_length_c                   19.119(3)
_cell_measurement_reflns_used    4963
_cell_measurement_temperature    296.15
_cell_measurement_theta_max      27.09
_cell_measurement_theta_min      2.40
_cell_volume                     4476.0(13)
_computing_cell_refinement       'SAINT v8.27A (Bruker, 2012)'
_computing_data_reduction        'SAINT v8.27A (Bruker, 2012)'
_computing_molecular_graphics    'Olex2 (Dolomanov et al., 2009)'
_computing_publication_material  'Olex2 (Dolomanov et al., 2009)'
_computing_structure_refinement  'ShelXL (Sheldrick, 2015)'
_diffrn_ambient_temperature      296.15
_diffrn_measured_fraction_theta_full 0.993
_diffrn_measured_fraction_theta_max 0.993
_diffrn_measurement_device_type  'CCD area detector'
_diffrn_measurement_method       'phi and omega scans'
_diffrn_radiation_monochromator  graphite
_diffrn_radiation_type           MoK\a
_diffrn_radiation_wavelength     0.71073
_diffrn_reflns_av_unetI/netI     0.1439
_diffrn_reflns_Laue_measured_fraction_full 0.993
_diffrn_reflns_Laue_measured_fraction_max 0.993
_diffrn_reflns_limit_h_max       17
_diffrn_reflns_limit_h_min       -17
_diffrn_reflns_limit_k_max       18
_diffrn_reflns_limit_k_min       -18
_diffrn_reflns_limit_l_max       22
_diffrn_reflns_limit_l_min       -22
_diffrn_reflns_number            15712
_diffrn_reflns_point_group_measured_fraction_full 0.993
_diffrn_reflns_point_group_measured_fraction_max 0.993
_diffrn_reflns_theta_full        25.027
_diffrn_reflns_theta_max         25.027
_diffrn_reflns_theta_min         1.070
_exptl_absorpt_coefficient_mu    1.009
_exptl_absorpt_correction_T_max  0.7457
_exptl_absorpt_correction_T_min  0.5789
_exptl_absorpt_correction_type   multi-scan
_exptl_absorpt_process_details
'SADABS-2012/1 (Bruker,2012) was used for absorption correction. wR2(int) was 0.0983 before and 0.0457 after correction. The Ratio of minimum to maximum transmission is 0.7763. The \l/2 correction factor is 0.0015.'
_exptl_crystal_colour            colourless
_exptl_crystal_colour_primary    colourless
_exptl_crystal_density_diffrn    1.449
_exptl_crystal_description       block
_exptl_crystal_F_000             1936
_refine_diff_density_max         2.193
_refine_diff_density_min         -1.913
_refine_diff_density_rms         0.178
_refine_ls_extinction_method     none
_refine_ls_goodness_of_fit_ref   1.031
_refine_ls_hydrogen_treatment    constr
_refine_ls_matrix_type           full
_refine_ls_number_parameters     1049
_refine_ls_number_reflns         15712
_refine_ls_number_restraints     0
_refine_ls_restrained_S_all      1.031
_refine_ls_R_factor_all          0.1267
_refine_ls_R_factor_gt           0.0675
_refine_ls_shift/su_max          0.001
_refine_ls_shift/su_mean         0.000
_refine_ls_structure_factor_coef Fsqd
_refine_ls_weighting_details
'w=1/[\s^2^(Fo^2^)+(0.0889P)^2^+3.4622P] where P=(Fo^2^+2Fc^2^)/3'
_refine_ls_weighting_scheme      calc
_refine_ls_wR_factor_gt          0.1607
_refine_ls_wR_factor_ref         0.1870
_reflns_Friedel_coverage         0.000
_reflns_number_gt                9775
_reflns_number_total             15712
_reflns_threshold_expression     'I > 2\s(I)'
_cod_data_source_file            d0ce01193b2.cif
_cod_data_source_block           n180607a_tw_sq
_cod_database_code               7241192
_shelx_shelxl_version_number     2018/3
_shelx_space_group_comment
;
The symmetry employed for this shelxl refinement is uniquely defined
by the following loop, which should always be used as a source of
symmetry information in preference to the above space-group names.
They are only intended as comments.
;
_olex2_refinement_description
;
1. Twinned data refinement
 Scales: 0.7801(18)
 0.2199(18)
2. Fixed Uiso
 At 1.2 times of:
  All C(H) groups
 At 1.5 times of:
  All O(H) groups, All O(H,H) groups
3.a Riding coordinates:
 O7(H7A,H7B)
3.b Rotating group:
 O18(H18A,H18B)
3.c Aromatic/amide H refined with riding coordinates:
 C3(H3), C6(H6), C7(H7), C12(H12), C13(H13A), C15(H15), C19(H19), C21(H21A),
 C22(H22), C24(H24), C25(H25), C27(H27), C28(H28), C30(H30), C31(H31), C32(H32),
  C33(H33), C34(H34), C40(H40), C41(H41), C43(H43), C50(H50), C51(H51),
 C52(H52), C55(H55), C56(H56), C57(H57), C58(H58), C59(H59), C61(H61), C62(H62),
  C64(H64), C65(H65), C67(H67), C68(H68), C70(H70), C71(H71), C72(H72),
 C73(H73), C74(H74), C75(H75), C76(H76), C78(H78), C79(H79)
3.d Idealised tetrahedral OH refined as rotating group:
 O13(H13), O21(H21)
;
_shelx_res_file
;
TITL n180607a P -1 R = 0.13
    n180607a_tw_sq.res
    created by SHELXL-2018/3 at 20:39:58 on 20-Jul-2019
CELL 0.71073 14.865 15.836 19.119 84.748 89.922 87.094
ZERR 2 0.002 0.003 0.003 0.004 0.004 0.004
LATT 1
SFAC  C 2.310 20.844 1.02 10.208 1.589 0.569 0.865 51.651 0.216 0.003 0.002 =
 11.5 0.68 12.01
SFAC H
SFAC  Cd 19.221 0.595 17.644 6.909 4.461 24.701 1.603 87.483 5.069 -0.808 =
 1.202 5180 1.69 112.41
SFAC  N 12.213 0.006 3.132 9.893 2.013 28.998 1.166 0.583 -11.529 0.006 =
 0.003 19.6 0.68 14.01
SFAC  O 3.049 13.277 2.287 5.701 1.546 0.324 0.867 32.909 0.251 0.011 0.006 =
 32.5 0.68 16
UNIT 160 100 8 20 44

L.S. 5 0 157
PLAN  -20
TEMP 23
CONF
list 8
ABIN
fmap 2
acta
SHEL 999 0.84
OMIT -8 12 6
OMIT 6 -6 1
OMIT 3 10 11
OMIT 0 8 0
REM <olex2.extras>
REM <HklSrc "%.\\N180607A_tw_sq.hkl">
REM </olex2.extras>

WGHT    0.088900    3.462200
BASF   0.21994
FVAR       3.57584
CD1   3    0.545747    0.036882    0.419201    11.00000    0.03548    0.03515 =
         0.02022   -0.00299    0.00364   -0.00389
CD2   3    0.135271    0.055258    0.523732    11.00000    0.02889    0.02636 =
         0.02925    0.00649   -0.00653    0.00202
CD3   3    0.360941    1.054371    0.027974    11.00000    0.03635    0.02679 =
         0.03126    0.00822    0.00113   -0.00488
CD4   3    1.064467    1.011673    0.071021    11.00000    0.02575    0.03034 =
         0.01781   -0.00236   -0.00608    0.00173
O1    5    0.142049    0.071459    0.156971    11.00000    0.03750    0.05446 =
         0.02862    0.01160   -0.01058   -0.00012
O2    5    0.082769   -0.048423    0.191064    11.00000    0.05605    0.06399 =
         0.02903    0.00289   -0.02481   -0.01059
O3    5    0.420480   -0.017884    0.463449    11.00000    0.02084    0.05073 =
         0.03509    0.00208   -0.01024   -0.00268
O4    5    0.287968    0.001301    0.512294    11.00000    0.02770    0.05421 =
         0.02789   -0.01172   -0.00347    0.00639
O5    5    0.068868   -0.026942    0.451306    11.00000    0.03252    0.03001 =
         0.03610   -0.00387   -0.01120    0.00658
O6    5   -0.015014   -0.135013    0.436631    11.00000    0.02423    0.03796 =
         0.05813    0.00474   -0.00837    0.00356
O7    5    0.225074    0.148509    0.587211    11.00000    0.03323    0.04457 =
         0.03753    0.00051   -0.00792   -0.00178
AFIX   3
H7A   2    0.268994    0.136109    0.615711    11.00000   -1.50000
H7B   2    0.239184    0.196549    0.560241    11.00000   -1.50000
AFIX   0
O8    5    0.471490    1.140072    0.064789    11.00000    0.02913    0.05778 =
         0.07781    0.01380    0.00109   -0.00249
O9    5    0.629837    0.945020    0.351227    11.00000    0.05758    0.04524 =
         0.01594    0.00467    0.00517   -0.00194
O10   5    0.550238    1.052681    0.298187    11.00000    0.04752    0.05890 =
         0.02540   -0.00595    0.01440    0.00858
O11   5    0.915626    0.984158    0.054689    11.00000    0.02108    0.04503 =
         0.03908    0.00131   -0.00263   -0.00126
O12   5    1.009784    1.149475    0.036147    11.00000    0.03831    0.02659 =
         0.03767   -0.00773   -0.01266    0.00721
O13   5    0.959477    1.577608   -0.104801    11.00000    0.07306    0.03333 =
         0.04899    0.01014    0.01096   -0.00662
AFIX 147
H13   2    0.944339    1.627744   -0.114937    11.00000   -1.50000
AFIX   0
O14   5    0.825785    1.574295   -0.053605    11.00000    0.05268    0.03032 =
         0.11144    0.00114    0.01055   -0.00005
O15   5    0.921422    1.132097   -0.057363    11.00000    0.03686    0.02384 =
         0.03841   -0.01162   -0.00641    0.00284
O16   5    0.791807    0.991017   -0.005996    11.00000    0.02896    0.04150 =
         0.02254   -0.00282    0.00228   -0.00998
O17   5    0.561539    1.029426    0.046788    11.00000    0.04103    0.04176 =
         0.04761   -0.00253    0.00413   -0.00667
O18   5    0.268679    1.158783    0.083671    11.00000    0.04781    0.04971 =
         0.06394   -0.00359    0.01299   -0.00682
AFIX   7
H18A  2    0.301731    1.197554    0.097242    11.00000   -1.50000
H18B  2    0.246710    1.135860    0.122270    11.00000   -1.50000
AFIX   0
O19   5    0.382356   -0.160848    0.585718    11.00000    0.05309    0.02921 =
         0.04211    0.00494    0.00584    0.01257
O20   5    0.525496   -0.174160    0.558425    11.00000    0.03300    0.03705 =
         0.08174   -0.02112    0.00079   -0.00425
O21   5    0.345447   -0.588197    0.536478    11.00000    0.06693    0.02347 =
         0.08513   -0.00541   -0.02401   -0.00106
AFIX 147
H21   2    0.344542   -0.640146    0.540313    11.00000   -1.50000
AFIX   0
O22   5    0.467362   -0.614688    0.601726    11.00000    0.07877    0.03647 =
         0.08799    0.00771   -0.04232    0.00976
N1    4    0.129317    0.156701    0.430836    11.00000    0.04667    0.02426 =
         0.03652    0.01255   -0.00960   -0.00373
N2    4    0.133827    0.279197    0.366103    11.00000    0.05890    0.03457 =
         0.02623    0.01024   -0.01766   -0.00956
N3    4    0.329404    0.850930    0.193792    11.00000    0.03855    0.02346 =
         0.03664    0.00565    0.00145    0.00147
N4    4    0.353049    0.963615    0.123042    11.00000    0.03342    0.02444 =
         0.02774    0.00588   -0.00375   -0.00471
C82   1    0.781572    1.189276    0.053922    11.00000    0.02306    0.02146 =
         0.02412    0.00300   -0.00015   -0.00121
N6    4    0.136139   -0.027116    0.625892    11.00000    0.02771    0.02337 =
         0.03003    0.01389   -0.00833    0.00106
N7    4    0.158133   -0.136127    0.704513    11.00000    0.03935    0.03206 =
         0.03127    0.01341   -0.00132    0.00130
N8    4    0.346002   -0.727081    0.871608    11.00000    0.05873    0.02964 =
         0.05081    0.01775    0.01703    0.00414
N9    4    0.359021   -0.849302    0.935533    11.00000    0.04958    0.03915 =
         0.03398    0.00537    0.00202   -0.00999
C81   1    0.296491   -0.203900    0.453733    11.00000    0.01436    0.02049 =
         0.04172   -0.00354   -0.01436    0.00710
C1    1    0.414725   -0.565122    0.570489    11.00000    0.04579    0.02647 =
         0.05052    0.00796   -0.00043    0.00870
C2    1    0.422741   -0.471121    0.567398    11.00000    0.04794    0.02572 =
         0.03631    0.00328   -0.00743    0.00992
C3    1    0.356604   -0.416384    0.535483    11.00000    0.03410    0.02162 =
         0.04550    0.00255    0.00011    0.00072
AFIX  43
H3    2    0.307072   -0.438509    0.515335    11.00000   -1.20000
AFIX   0
C4    1    0.362724   -0.328741    0.532922    11.00000    0.01853    0.03107 =
         0.03814    0.00302   -0.01012    0.00428
C5    1    0.285469   -0.271709    0.503012    11.00000    0.02473    0.02751 =
         0.03392   -0.00220   -0.00497    0.00466
C6    1    0.201452   -0.289575    0.528042    11.00000    0.03244    0.01955 =
         0.05915    0.01600   -0.00656   -0.00063
AFIX  43
H6    2    0.193617   -0.336497    0.560020    11.00000   -1.20000
AFIX   0
C7    1    0.127704   -0.236125    0.504731    11.00000    0.02097    0.04692 =
         0.03324    0.01961   -0.00527    0.00535
AFIX  43
H7    2    0.070153   -0.248684    0.520219    11.00000   -1.20000
AFIX   0
C8    1    0.139101   -0.166629    0.460080    11.00000    0.01101    0.03538 =
         0.02995   -0.00107   -0.00624    0.00488
C9    1    0.222976   -0.148876    0.431818    11.00000    0.02037    0.02133 =
         0.01614   -0.00177   -0.00178   -0.00807
C10   1    0.233849   -0.074935    0.378031    11.00000    0.02650    0.02593 =
         0.01790   -0.00224    0.00059   -0.00320
C11   1    0.289519   -0.010158    0.390149    11.00000    0.02622    0.03206 =
         0.01960   -0.00252    0.00309   -0.00108
C12   1    0.297423    0.059055    0.339559    11.00000    0.02115    0.03041 =
         0.02948    0.00068   -0.01307   -0.01268
AFIX  43
H12   2    0.336919    0.101124    0.346860    11.00000   -1.20000
AFIX   0
C13   1    0.246500    0.064441    0.279093    11.00000    0.02334    0.04256 =
         0.02545    0.00773   -0.00649    0.00065
AFIX  43
H13A  2    0.250790    0.110903    0.246013    11.00000   -1.20000
AFIX   0
C14   1    0.188969    0.001224    0.267170    11.00000    0.03335    0.03141 =
         0.01726   -0.00298   -0.00378   -0.00041
C15   1    0.184403   -0.068323    0.317009    11.00000    0.02088    0.02203 =
         0.02432   -0.00354   -0.00166    0.00235
AFIX  43
H15   2    0.146774   -0.111516    0.308700    11.00000   -1.20000
AFIX   0
C16   1    0.134193    0.008742    0.201713    11.00000    0.03168    0.04963 =
         0.02035   -0.00360   -0.00268    0.00361
C17   1    0.333569   -0.008517    0.459766    11.00000    0.01949    0.01350 =
         0.02958    0.00464   -0.00840    0.00109
C18   1    0.060802   -0.105061    0.447894    11.00000    0.02745    0.02739 =
         0.02685    0.00564    0.00121    0.00187
C19   1    0.164959    0.230488    0.424284    11.00000    0.08298    0.05047 =
         0.03560    0.01262   -0.03216   -0.01332
AFIX  43
H19   2    0.206632    0.247805    0.455565    11.00000   -1.20000
AFIX   0
C20   1    0.159317    0.361072    0.342571    11.00000    0.05496    0.02405 =
         0.03665    0.00980   -0.01377   -0.00672
C21   1    0.217612    0.403347    0.381470    11.00000    0.07523    0.04488 =
         0.04340    0.01792   -0.01931   -0.00850
AFIX  43
H21A  2    0.241636    0.377230    0.423350    11.00000   -1.20000
AFIX   0
C22   1    0.240317    0.485253    0.357767    11.00000    0.06368    0.05230 =
         0.05436    0.02276   -0.02417   -0.02517
AFIX  43
H22   2    0.277778    0.513650    0.385573    11.00000   -1.20000
AFIX   0
C23   1    0.209840    0.525927    0.295165    11.00000    0.05553    0.02341 =
         0.04607    0.00888   -0.00687   -0.00551
C24   1    0.152653    0.482329    0.258746    11.00000    0.10815    0.04351 =
         0.04458    0.01312   -0.03666   -0.02283
AFIX  43
H24   2    0.130190    0.507785    0.216128    11.00000   -1.20000
AFIX   0
C25   1    0.125737    0.401962    0.281395    11.00000    0.10294    0.05027 =
         0.05626    0.01820   -0.05060   -0.03563
AFIX  43
H25   2    0.084726    0.375773    0.254914    11.00000   -1.20000
AFIX   0
C26   1    0.237365    0.610656    0.270197    11.00000    0.03741    0.04099 =
         0.05083    0.00648   -0.00397   -0.00167
C27   1    0.187169    0.665411    0.222308    11.00000    0.04596    0.03428 =
         0.03469    0.01335   -0.01484   -0.01178
AFIX  43
H27   2    0.132858    0.648344    0.205647    11.00000   -1.20000
AFIX   0
C28   1    0.216097    0.744085    0.199127    11.00000    0.03313    0.02712 =
         0.04417    0.01139   -0.01807    0.00345
AFIX  43
H28   2    0.180100    0.779973    0.168324    11.00000   -1.20000
AFIX   0
C29   1    0.296068    0.770315    0.220319    11.00000    0.04185    0.02596 =
         0.02338    0.01356    0.00588   -0.00113
C30   1    0.347821    0.717491    0.266075    11.00000    0.05623    0.04371 =
         0.06903    0.01282   -0.02100   -0.02151
AFIX  43
H30   2    0.402975    0.734691    0.280967    11.00000   -1.20000
AFIX   0
C31   1    0.319145    0.639104    0.290335    11.00000    0.05588    0.04142 =
         0.08737    0.03126   -0.01316   -0.00660
AFIX  43
H31   2    0.355789    0.604024    0.321256    11.00000   -1.20000
AFIX   0
C32   1    0.309096    0.895182    0.131570    11.00000    0.03868    0.02349 =
         0.02103    0.00619   -0.00370   -0.00164
AFIX  43
H32   2    0.268653    0.878504    0.099051    11.00000   -1.20000
AFIX   0
C33   1    0.402985    0.966438    0.183330    11.00000    0.03314    0.02687 =
         0.03531    0.00608   -0.00626   -0.00305
AFIX  43
H33   2    0.440146    1.009719    0.192344    11.00000   -1.20000
AFIX   0
C34   1    0.389683    0.897173    0.226917    11.00000    0.03608    0.03688 =
         0.02635    0.00566   -0.00676    0.00580
AFIX  43
H34   2    0.415942    0.883100    0.270835    11.00000   -1.20000
AFIX   0
C35   1    0.547810    1.106608    0.053038    11.00000    0.02736    0.05401 =
         0.02597    0.00746   -0.00582   -0.00150
C36   1    0.623834    1.163525    0.039597    11.00000    0.02437    0.03007 =
         0.03450    0.00204    0.00160   -0.00494
C37   1    0.708845    1.140080    0.071261    11.00000    0.03640    0.02597 =
         0.01688    0.00313    0.00006    0.00008
C38   1    0.717396    1.065731    0.124393    11.00000    0.01463    0.04076 =
         0.02036   -0.00478   -0.00844   -0.00498
C39   1    0.779385    0.997049    0.117038    11.00000    0.02761    0.02840 =
         0.01939    0.00072   -0.00085    0.00110
C40   1    0.787952    0.930380    0.169448    11.00000    0.03556    0.03890 =
         0.03229    0.00253   -0.00256    0.01179
AFIX  43
H40   2    0.830742    0.886331    0.164866    11.00000   -1.20000
AFIX   0
C41   1    0.734118    0.928559    0.227977    11.00000    0.05060    0.03308 =
         0.02311    0.00309    0.00129   -0.00090
AFIX  43
H41   2    0.738353    0.882608    0.261976    11.00000   -1.20000
AFIX   0
C42   1    0.673241    0.996617    0.235442    11.00000    0.02729    0.03544 =
         0.02426   -0.00447    0.00275    0.00190
C43   1    0.666193    1.063954    0.184669    11.00000    0.02552    0.04098 =
         0.01835   -0.00286   -0.00382    0.00405
AFIX  43
H43   2    0.625905    1.109431    0.191127    11.00000   -1.20000
AFIX   0
C44   1    0.613215    0.997838    0.297749    11.00000    0.04911    0.04251 =
         0.02353   -0.00702    0.00462   -0.01432
C45   1    0.832946    0.990603    0.051259    11.00000    0.02730    0.02651 =
         0.02083   -0.00148   -0.00143   -0.00594
C46   1    0.957336    1.175529   -0.015733    11.00000    0.01837    0.03709 =
         0.03387   -0.00088    0.00592   -0.00229
C47   1    0.938012    1.270606   -0.027139    11.00000    0.03184    0.04097 =
         0.01948   -0.00354   -0.00391   -0.00371
C48   1    0.852782    1.308729   -0.018903    11.00000    0.02621    0.03356 =
         0.01167   -0.00276   -0.00334   -0.00229
C49   1    0.774488    1.258801    0.003709    11.00000    0.02691    0.02496 =
         0.03275   -0.00316    0.00261   -0.00080
C50   1    0.689857    1.283539   -0.025630    11.00000    0.03912    0.02498 =
         0.03783    0.00730   -0.00438   -0.00237
AFIX  43
H50   2    0.682728    1.330707   -0.058246    11.00000   -1.20000
AFIX   0
C51   1    0.616575    1.235824   -0.004812    11.00000    0.01871    0.04692 =
         0.04273    0.01027    0.00612    0.01620
AFIX  43
H51   2    0.559838    1.254326   -0.022143    11.00000   -1.20000
AFIX   0
C52   1    0.842097    1.396426   -0.033160    11.00000    0.03090    0.03252 =
         0.02565   -0.00022   -0.00184    0.00534
AFIX  43
H52   2    0.785955    1.422931   -0.026181    11.00000   -1.20000
AFIX   0
C53   1    0.911981    1.445609   -0.057345    11.00000    0.04116    0.02136 =
         0.02885   -0.00468    0.00149   -0.01579
C54   1    0.893399    1.539339   -0.071225    11.00000    0.04959    0.02935 =
         0.03907    0.00071   -0.00195   -0.00877
C55   1    0.995703    1.405220   -0.067623    11.00000    0.03283    0.03982 =
         0.03709    0.00823   -0.00181   -0.00909
AFIX  43
H55   2    1.042786    1.436312   -0.086554    11.00000   -1.20000
AFIX   0
C56   1    1.008760    1.319675   -0.049857    11.00000    0.02538    0.03457 =
         0.05015   -0.00183   -0.00107    0.00498
AFIX  43
H56   2    1.066145    1.294109   -0.053111    11.00000   -1.20000
AFIX   0
C57   1    0.077832    0.227969    0.334471    11.00000    0.09393    0.05441 =
         0.06318    0.03193   -0.06481   -0.03268
AFIX  43
H57   2    0.046929    0.241768    0.292384    11.00000   -1.20000
AFIX   0
C58   1    0.075555    0.155872    0.374175    11.00000    0.07327    0.02565 =
         0.05865    0.01066   -0.03732   -0.02278
AFIX  43
H58   2    0.041586    0.110563    0.364541    11.00000   -1.20000
AFIX   0
C59   1    0.178925   -0.100994    0.639934    11.00000    0.03933    0.02206 =
         0.02807    0.01158    0.00312    0.00460
AFIX  43
H59   2    0.218565   -0.126052    0.609330    11.00000   -1.20000
AFIX   0
C60   1    0.187843   -0.218989    0.733227    11.00000    0.05123    0.02336 =
         0.03620    0.01278   -0.00780    0.00403
C61   1    0.133213   -0.264253    0.779810    11.00000    0.05064    0.03279 =
         0.02964    0.01512   -0.00251    0.00018
AFIX  43
H61   2    0.078763   -0.240098    0.794240    11.00000   -1.20000
AFIX   0
C62   1    0.160771   -0.345493    0.804387    11.00000    0.06240    0.03716 =
         0.05819    0.01667    0.00791   -0.00101
AFIX  43
H62   2    0.124970   -0.375585    0.836790    11.00000   -1.20000
AFIX   0
C63   1    0.239778   -0.383917    0.782603    11.00000    0.05298    0.04547 =
         0.04224    0.01665    0.00843    0.01399
C64   1    0.293691   -0.335516    0.738029    11.00000    0.06467    0.03510 =
         0.08409    0.02086    0.02096    0.01069
AFIX  43
H64   2    0.348232   -0.359307    0.723424    11.00000   -1.20000
AFIX   0
C65   1    0.268605   -0.251672    0.714196    11.00000    0.04003    0.05243 =
         0.08269    0.03298    0.01581    0.01771
AFIX  43
H65   2    0.306929   -0.219052    0.685740    11.00000   -1.20000
AFIX   0
C66   1    0.268176   -0.472495    0.806395    11.00000    0.06919    0.04673 =
         0.04343    0.02051    0.01783    0.01448
C67   1    0.240641   -0.511949    0.870304    11.00000    0.07951    0.04635 =
         0.04561    0.00950    0.02215    0.01588
AFIX  43
H67   2    0.203527   -0.481108    0.899003    11.00000   -1.20000
AFIX   0
C68   1    0.265709   -0.593543    0.892463    11.00000    0.11584    0.04450 =
         0.04653    0.00947    0.03002    0.01264
AFIX  43
H68   2    0.247855   -0.617462    0.936204    11.00000   -1.20000
AFIX   0
C69   1    0.319123   -0.641296    0.848175    11.00000    0.06948    0.03656 =
         0.06056    0.01779    0.01571    0.00735
C70   1    0.346192   -0.605599    0.786553    11.00000    0.11883    0.05580 =
         0.05846    0.02101    0.04043    0.03911
AFIX  43
H70   2    0.382822   -0.637040    0.757954    11.00000   -1.20000
AFIX   0
C71   1    0.320625   -0.522718    0.764652    11.00000    0.11235    0.05461 =
         0.05714    0.03214    0.04221    0.03239
AFIX  43
H71   2    0.338933   -0.499707    0.720747    11.00000   -1.20000
AFIX   0
C72   1    0.316638   -0.773689    0.928460    11.00000    0.05021    0.04443 =
         0.03661    0.02717    0.01381    0.00239
AFIX  43
H72   2    0.272395   -0.755211    0.958788    11.00000   -1.20000
AFIX   0
C73   1    0.415568   -0.850529    0.879359    11.00000    0.05888    0.03543 =
         0.05133    0.00499    0.01825    0.00538
AFIX  43
H73   2    0.454588   -0.896123    0.870636    11.00000   -1.20000
AFIX   0
C74   1    0.407451   -0.778264    0.839024    11.00000    0.07384    0.04494 =
         0.05104    0.00901    0.02486    0.00418
AFIX  43
H74   2    0.437272   -0.764666    0.797019    11.00000   -1.20000
AFIX   0
C75   1    0.098323   -0.080089    0.732305    11.00000    0.04132    0.04485 =
         0.03142   -0.00363    0.01167    0.00126
AFIX  43
H75   2    0.070954   -0.087076    0.776080    11.00000   -1.20000
AFIX   0
C76   1    0.086740   -0.013927    0.685045    11.00000    0.03358    0.03466 =
         0.04640   -0.00220    0.00073    0.00109
AFIX  43
H76   2    0.050441    0.034443    0.691020    11.00000   -1.20000
AFIX   0
C77   1    0.439049   -0.299116    0.560228    11.00000    0.03304    0.02535 =
         0.03784    0.00610   -0.00069    0.00859
C78   1    0.504707   -0.354208    0.592053    11.00000    0.02577    0.03485 =
         0.06913    0.00110   -0.01741    0.00467
AFIX  43
H78   2    0.554924   -0.332320    0.611416    11.00000   -1.20000
AFIX   0
C79   1    0.497670   -0.440466    0.595807    11.00000    0.02668    0.03200 =
         0.07501    0.01149   -0.01752    0.01032
AFIX  43
H79   2    0.542509   -0.477148    0.617047    11.00000   -1.20000
AFIX   0
C80   1    0.450220   -0.205446    0.568202    11.00000    0.03775    0.02304 =
         0.04536    0.00977   -0.00293    0.00694
HKLF 5




REM  n180607a P -1 R = 0.13
REM wR2 = 0.1870, GooF = S = 1.031, Restrained GooF = 1.031 for all data
REM R1 = 0.0675 for 9775 Fo > 4sig(Fo) and 0.1267 for all 15712 data
REM 1049 parameters refined using 0 restraints

END

WGHT      0.0890      3.5912

REM Highest difference peak  2.193,  deepest hole -1.913,  1-sigma level  0.178
Q1    1   0.3227  0.2594  0.5018  11.00000  0.05    2.19
Q2    1   0.5625 -0.0263  0.4309  11.00000  0.05    2.02
Q3    1   1.0366  0.9785  0.1001  11.00000  0.05    1.62
Q4    1   0.1010  0.0365  0.5611  11.00000  0.05    1.46
Q5    1   0.1650  0.0704  0.4928  11.00000  0.05    1.42
Q6    1   0.3889  1.0785 -0.0006  11.00000  0.05    1.39
Q7    1   1.0963  1.0358  0.0342  11.00000  0.05    1.37
Q8    1   0.5794  0.0587  0.3772  11.00000  0.05    1.26
Q9    1   0.5126  0.0135  0.4591  11.00000  0.05    1.25
Q10   1   0.4586  1.0554  0.0348  11.00000  0.05    1.25
Q11   1   0.3328  1.0439  0.0613  11.00000  0.05    1.21
Q12   1   0.0990  0.0633  0.5021  11.00000  0.05    1.16
Q13   1   0.3983  1.0526  0.0516  11.00000  0.05    1.14
Q14   1   1.0571  0.9325  0.0820  11.00000  0.05    1.13
Q15   1   0.1353 -0.0305  0.5289  11.00000  0.05    1.12
Q16   1   0.0379  0.0474  0.5260  11.00000  0.05    1.07
Q17   1   1.1602  1.0031  0.0781  11.00000  0.05    1.04
Q18   1   0.1292  0.1396  0.5254  11.00000  0.05    0.95
Q19   1   0.2360  0.0493  0.5179  11.00000  0.05    0.95
Q20   1   0.3635  0.9748  0.0344  11.00000  0.05    0.94
;
_shelx_res_checksum              13779
_shelx_fab_file
;
    1    0    0     -8.55      0.00
    2    0    0    142.58      0.00
    3    0    0      2.36      0.00
    4    0    0      5.60      0.00
    5    0    0     -1.77      0.00
    6    0    0      7.75      0.00
    7    0    0     -8.99      0.00
    8    0    0     -6.03      0.00
    9    0    0     -0.39      0.00
   10    0    0    -11.89      0.00
   11    0    0      6.79      0.00
   12    0    0     -0.71      0.00
   13    0    0      0.60      0.00
   14    0    0      0.94      0.00
   15    0    0     -0.55      0.00
   16    0    0     -0.35      0.00
   17    0    0     -2.52      0.00
  -17    1    0      0.93      0.00
  -16    1    0      1.86      0.00
  -15    1    0      0.11      0.00
  -14    1    0      7.40      0.00
  -13    1    0     -3.86      0.00
  -12    1    0     10.38      0.00
  -11    1    0     -2.13      0.00
  -10    1    0     -3.66      0.00
   -9    1    0     14.06      0.00
   -8    1    0     -2.15      0.00
   -7    1    0     13.18      0.00
   -6    1    0      6.21      0.00
   -5    1    0      8.97      0.00
   -4    1    0     -0.66      0.00
   -3    1    0     70.56      0.00
   -2    1    0    -66.36      0.00
   -1    1    0     91.62      0.00
    1    1    0    -96.85      0.00
    2    1    0    -53.47      0.00
    3    1    0    -70.91      0.00
    4    1    0    -15.68      0.00
    5    1    0    -16.90      0.00
    6    1    0     -3.76      0.00
    7    1    0    -16.17      0.00
    8    1    0     16.19      0.00
    9    1    0    -11.61      0.00
   10    1    0      4.96      0.00
   11    1    0      4.10      0.00
   12    1    0     -6.35      0.00
   13    1    0      6.91      0.00
   14    1    0      2.45      0.00
   15    1    0      1.78      0.00
   16    1    0      2.02      0.00
   17    1    0     -0.75      0.00
  -17    2    0      4.71      0.00
  -16    2    0     -0.08      0.00
  -15    2    0      3.89      0.00
  -14    2    0     -7.88      0.00
  -13    2    0     -2.56      0.00
  -12    2    0     -7.19      0.00
  -11    2    0    -15.33      0.00
  -10    2    0      7.17      0.00
   -9    2    0     -5.54      0.00
   -8    2    0    -10.37      0.00
   -7    2    0     11.66      0.00
   -6    2    0    -23.67      0.00
   -5    2    0      9.69      0.00
   -4    2    0      2.62      0.00
   -3    2    0    -18.59      0.00
   -2    2    0    -12.20      0.00
   -1    2    0    -27.06      0.00
    0    2    0    -67.83      0.00
    1    2    0     29.32      0.00
    2    2    0     -4.13      0.00
    3    2    0      3.68      0.00
    4    2    0     17.36      0.00
    5    2    0     10.98      0.00
    6    2    0     -5.62      0.00
    7    2    0     13.93      0.00
    8    2    0     -4.34      0.00
    9    2    0     -0.69      0.00
   10    2    0      9.74      0.00
   11    2    0     -1.38      0.00
   12    2    0      2.11      0.00
   13    2    0     -0.03      0.00
   14    2    0     -9.54      0.00
   15    2    0     -0.96      0.00
   16    2    0     -5.03      0.00
   17    2    0      3.69      0.00
  -17    3    0     -1.71      0.00
  -16    3    0     -0.96      0.00
  -15    3    0     -5.84      0.00
  -14    3    0      0.03      0.00
  -13    3    0      1.58      0.00
  -12    3    0     -2.43      0.00
  -11    3    0      8.30      0.00
  -10    3    0      4.90      0.00
   -9    3    0     -7.10      0.00
   -8    3    0     16.46      0.00
   -7    3    0    -14.02      0.00
   -6    3    0     14.54      0.00
   -5    3    0     -5.28      0.00
   -4    3    0     -8.20      0.00
   -3    3    0    -15.81      0.00
   -2    3    0    -20.13      0.00
   -1    3    0    -19.73      0.00
    0    3    0    -17.44      0.00
    1    3    0     50.14      0.00
    2    3    0    -29.68      0.00
    3    3    0     32.03      0.00
    4    3    0      8.05      0.00
    5    3    0     -1.67      0.00
    6    3    0     11.72      0.00
    7    3    0      4.07      0.00
    8    3    0     -4.23      0.00
    9    3    0      7.26      0.00
   10    3    0      0.46      0.00
   11    3    0     -4.39      0.00
   12    3    0      1.16      0.00
   13    3    0     -2.39      0.00
   14    3    0      5.70      0.00
   15    3    0      0.46      0.00
   16    3    0      7.90      0.00
   17    3    0     -3.48      0.00
  -17    4    0     -4.59      0.00
  -16    4    0     -6.29      0.00
  -15    4    0      2.40      0.00
  -14    4    0     -1.84      0.00
  -13    4    0      0.58      0.00
  -12    4    0      2.41      0.00
  -11    4    0      7.09      0.00
  -10    4    0     -7.01      0.00
   -9    4    0      6.40      0.00
   -8    4    0     -5.63      0.00
   -7    4    0     -4.70      0.00
   -6    4    0     -0.81      0.00
   -5    4    0     -9.68      0.00
   -4    4    0     -2.87      0.00
   -3    4    0     -9.72      0.00
   -2    4    0     15.93      0.00
   -1    4    0     -2.41      0.00
    0    4    0     55.25      0.00
    1    4    0     -4.98      0.00
    2    4    0      9.02      0.00
    3    4    0     20.53      0.00
    4    4    0    -19.54      0.00
    5    4    0      0.18      0.00
    6    4    0     -6.95      0.00
    7    4    0     -7.04      0.00
    8    4    0     -2.44      0.00
    9    4    0      4.37      0.00
   10    4    0     -8.77      0.00
   11    4    0     -0.26      0.00
   12    4    0      4.56      0.00
   13    4    0     -1.55      0.00
   14    4    0      0.09      0.00
   15    4    0      0.62      0.00
   16    4    0     -7.58      0.00
   17    4    0      0.19      0.00
  -16    5    0      8.75      0.00
  -15    5    0      1.39      0.00
  -14    5    0      4.23      0.00
  -13    5    0      3.79      0.00
  -12    5    0      2.64      0.00
  -11    5    0     -1.69      0.00
  -10    5    0      1.56      0.00
   -9    5    0     -1.41      0.00
   -8    5    0     -3.85      0.00
   -7    5    0     -1.00      0.00
   -6    5    0      5.55      0.00
   -5    5    0     -4.91      0.00
   -4    5    0     16.07      0.00
   -3    5    0     10.74      0.00
   -2    5    0     23.44      0.00
   -1    5    0     11.17      0.00
    0    5    0     20.27      0.00
    1    5    0    -25.36      0.00
    2    5    0     16.15      0.00
    3    5    0    -20.41      0.00
    4    5    0    -11.37      0.00
    5    5    0      5.17      0.00
    6    5    0     -4.83      0.00
    7    5    0      1.96      0.00
    8    5    0      4.07      0.00
    9    5    0     -2.88      0.00
   10    5    0     -2.83      0.00
   11    5    0      5.66      0.00
   12    5    0     -5.17      0.00
   13    5    0     -2.05      0.00
   14    5    0      2.18      0.00
   15    5    0     -2.44      0.00
   16    5    0      1.52      0.00
   17    5    0      1.39      0.00
  -16    6    0     -1.68      0.00
  -15    6    0     -3.68      0.00
  -14    6    0     -1.07      0.00
  -13    6    0     -7.93      0.00
  -12    6    0     -4.12      0.00
  -11    6    0     -8.10      0.00
  -10    6    0     -5.86      0.00
   -9    6    0      1.40      0.00
   -8    6    0      0.80      0.00
   -7    6    0     18.66      0.00
   -6    6    0     -3.49      0.00
   -5    6    0     19.87      0.00
   -4    6    0     -1.02      0.00
   -3    6    0     11.77      0.00
   -2    6    0    -13.07      0.00
   -1    6    0      1.37      0.00
    0    6    0    -25.45      0.00
    1    6    0    -16.51      0.00
    2    6    0      4.59      0.00
    3    6    0    -31.21      0.00
    4    6    0     19.59      0.00
    5    6    0     -7.87      0.00
    6    6    0      4.61      0.00
    7    6    0      2.81      0.00
    8    6    0      4.62      0.00
    9    6    0     -5.42      0.00
   10    6    0      8.38      0.00
   11    6    0     -1.82      0.00
   12    6    0      0.01      0.00
   13    6    0      4.84      0.00
   14    6    0     -0.25      0.00
   15    6    0      0.61      0.00
   16    6    0      2.46      0.00
   17    6    0      2.21      0.00
  -16    7    0      0.55      0.00
  -15    7    0     -1.98      0.00
  -14    7    0     -0.44      0.00
  -13    7    0      4.99      0.00
  -12    7    0      2.00      0.00
  -11    7    0      4.07      0.00
  -10    7    0     11.10      0.00
   -9    7    0     -0.32      0.00
   -8    7    0      4.95      0.00
   -7    7    0     -9.96      0.00
   -6    7    0     -5.58      0.00
   -5    7    0     -8.15      0.00
   -4    7    0     -7.19      0.00
   -3    7    0    -17.30      0.00
   -2    7    0    -10.81      0.00
   -1    7    0     -4.68      0.00
    0    7    0    -14.29      0.00
    1    7    0     29.29      0.00
    2    7    0    -11.60      0.00
    3    7    0     29.16      0.00
    4    7    0     10.21      0.00
    5    7    0      2.77      0.00
    6    7    0      6.70      0.00
    7    7    0     -2.82      0.00
    8    7    0     -6.03      0.00
    9    7    0     -0.55      0.00
   10    7    0      0.80      0.00
   11    7    0     -5.20      0.00
   12    7    0      3.37      0.00
   13    7    0     -2.76      0.00
   14    7    0     -2.58      0.00
   15    7    0      0.01      0.00
   16    7    0     -0.83      0.00
  -15    8    0      6.49      0.00
  -14    8    0      4.09      0.00
  -13    8    0      0.99      0.00
  -12    8    0      1.24      0.00
  -11    8    0      4.06      0.00
  -10    8    0     -4.03      0.00
   -9    8    0     -4.48      0.00
   -8    8    0     -0.68      0.00
   -7    8    0     -9.57      0.00
   -6    8    0      4.92      0.00
   -5    8    0     -2.68      0.00
   -4    8    0     -7.80      0.00
   -3    8    0      2.42      0.00
   -2    8    0      5.07      0.00
   -1    8    0     -2.40      0.00
    0    8    0     12.37      0.00
    1    8    0     -0.47      0.00
    2    8    0     -1.42      0.00
    3    8    0      6.00      0.00
    4    8    0    -17.53      0.00
    5    8    0     -0.07      0.00
    6    8    0    -10.98      0.00
    7    8    0     -0.11      0.00
    8    8    0     -4.47      0.00
    9    8    0      7.77      0.00
   10    8    0     -4.11      0.00
   11    8    0      6.83      0.00
   12    8    0     -3.87      0.00
   13    8    0      3.37      0.00
   14    8    0     -4.16      0.00
   15    8    0      0.18      0.00
   16    8    0     -2.66      0.00
  -15    9    0     -1.57      0.00
  -14    9    0     -6.64      0.00
  -13    9    0     -1.84      0.00
  -12    9    0     -3.13      0.00
  -11    9    0     -2.64      0.00
  -10    9    0     -6.10      0.00
   -9    9    0      4.04      0.00
   -8    9    0     -5.65      0.00
   -6    9    0      1.98      0.00
   -5    9    0     -4.56      0.00
   -4    9    0      8.58      0.00
   -3    9    0      5.98      0.00
   -2    9    0      3.48      0.00
   -1    9    0      5.23      0.00
    0    9    0      5.60      0.00
    1    9    0     -8.54      0.00
    2    9    0      3.72      0.00
    3    9    0     -7.54      0.00
    4    9    0      0.49      0.00
    6    9    0      1.92      0.00
    7    9    0     -1.79      0.00
    8    9    0      3.58      0.00
    9    9    0     -5.43      0.00
   10    9    0     -2.56      0.00
   11    9    0     -5.79      0.00
   12    9    0      1.06      0.00
   13    9    0     -5.54      0.00
   14    9    0      3.12      0.00
   15    9    0     -0.42      0.00
  -14   10    0      2.59      0.00
  -13   10    0     -1.09      0.00
  -12   10    0      2.82      0.00
  -11   10    0     -5.47      0.00
  -10   10    0      5.08      0.00
   -9   10    0     -2.19      0.00
   -8   10    0      3.60      0.00
   -7   10    0      6.46      0.00
   -6   10    0     -3.07      0.00
   -5   10    0      5.11      0.00
   -4   10    0      2.14      0.00
   -3   10    0     -3.58      0.00
   -2   10    0     -2.77      0.00
   -1   10    0     -3.37      0.00
    0   10    0     -7.72      0.00
    1   10    0     -2.61      0.00
    2   10    0      1.67      0.00
    3   10    0     -6.03      0.00
    4   10    0      4.22      0.00
    5   10    0     -2.90      0.00
    6   10    0      3.08      0.00
    7   10    0      4.53      0.00
    8   10    0      5.08      0.00
    9   10    0      2.34      0.00
   10   10    0      3.98      0.00
   11   10    0      1.20      0.00
   12   10    0     -0.26      0.00
   13   10    0     -2.92      0.00
   14   10    0      2.07      0.00
   15   10    0     -1.90      0.00
  -13   11    0      0.28      0.00
  -12   11    0     -2.43      0.00
  -11   11    0      5.64      0.00
  -10   11    0      4.27      0.00
   -9   11    0      3.30      0.00
   -8   11    0      4.08      0.00
   -7   11    0     -4.58      0.00
   -6   11    0     -4.46      0.00
   -5   11    0      1.51      0.00
   -4   11    0     -3.78      0.00
   -3   11    0     -2.03      0.00
   -2   11    0      3.47      0.00
   -1   11    0     -2.47      0.00
    0   11    0      3.31      0.00
    1   11    0      4.39      0.00
    2   11    0     -0.40      0.00
    3   11    0      3.23      0.00
    4   11    0      7.03      0.00
    5   11    0     -0.63      0.00
    6   11    0      5.82      0.00
    7   11    0     -1.39      0.00
    8   11    0     -2.22      0.00
    9   11    0     -2.15      0.00
   10   11    0     -3.70      0.00
   11   11    0     -0.83      0.00
   12   11    0     -2.06      0.00
   13   11    0      5.81      0.00
   14   11    0      1.04      0.00
  -13   12    0      2.06      0.00
  -12   12    0      2.26      0.00
  -11   12    0      1.11      0.00
  -10   12    0     -7.32      0.00
   -9   12    0     -1.31      0.00
   -8   12    0     -6.31      0.00
   -7   12    0     -2.18      0.00
   -6   12    0      4.82      0.00
   -5   12    0      1.90      0.00
   -4   12    0     -1.04      0.00
   -3   12    0      6.17      0.00
   -2   12    0     -5.01      0.00
   -1   12    0      3.94      0.00
    1   12    0      5.10      0.00
    2   12    0     -3.12      0.00
    3   12    0      6.01      0.00
    4   12    0     -6.49      0.00
    5   12    0     -2.79      0.00
    6   12    0     -2.86      0.00
    7   12    0     -5.14      0.00
    8   12    0     -2.32      0.00
    9   12    0     -0.10      0.00
   10   12    0      1.05      0.00
   11   12    0      3.99      0.00
   12   12    0      0.95      0.00
   13   12    0      4.10      0.00
   14   12    0     -2.86      0.00
  -12   13    0     -1.43      0.00
  -11   13    0     -2.26      0.00
  -10   13    0      0.63      0.00
   -9   13    0      0.33      0.00
   -8   13    0     -1.53      0.00
   -7   13    0      3.47      0.00
   -6   13    0      1.07      0.00
   -5   13    0     -1.91      0.00
   -4   13    0      1.34      0.00
   -3   13    0     -3.87      0.00
   -2   13    0      3.37      0.00
   -1   13    0      4.91      0.00
    0   13    0      7.50      0.00
    1   13    0     -1.73      0.00
    2   13    0     -0.18      0.00
    3   13    0      0.85      0.00
    4   13    0    -10.91      0.00
    5   13    0      7.88      0.00
    6   13    0     -6.01      0.00
    7   13    0      0.20      0.00
    8   13    0      4.04      0.00
    9   13    0     -0.71      0.00
   10   13    0      3.51      0.00
   11   13    0     -0.06      0.00
   12   13    0      5.32      0.00
   13   13    0     -1.94      0.00
  -11   14    0     -0.07      0.00
  -10   14    0      4.45      0.00
   -9   14    0     -0.05      0.00
   -8   14    0      4.52      0.00
   -7   14    0      1.87      0.00
   -6   14    0     -2.12      0.00
   -5   14    0     -3.13      0.00
   -4   14    0      0.35      0.00
   -3   14    0      1.72      0.00
   -2   14    0      4.23      0.00
   -1   14    0     -4.12      0.00
    0   14    0     -7.97      0.00
    1   14    0     -8.60      0.00
    2   14    0      2.65      0.00
    3   14    0     -8.13      0.00
    4   14    0      7.90      0.00
    5   14    0     -0.71      0.00
    6   14    0     -0.83      0.00
    7   14    0      4.97      0.00
    8   14    0     -1.65      0.00
    9   14    0      1.77      0.00
   10   14    0      0.91      0.00
   11   14    0      0.66      0.00
   12   14    0     -3.42      0.00
   -9   15    0     -0.32      0.00
   -8   15    0      0.89      0.00
   -7   15    0     -4.74      0.00
   -6   15    0     -1.43      0.00
   -5   15    0      0.86      0.00
   -4   15    0     -0.38      0.00
   -3   15    0      1.35      0.00
   -2   15    0     -5.94      0.00
   -1   15    0     -2.95      0.00
    0   15    0     -0.49      0.00
    1   15    0      1.77      0.00
    2   15    0      0.52      0.00
    3   15    0     -2.96      0.00
    4   15    0      6.51      0.00
    5   15    0     -2.16      0.00
    6   15    0      1.07      0.00
    7   15    0      2.98      0.00
    8   15    0     -5.07      0.00
    9   15    0     -0.90      0.00
   10   15    0     -2.60      0.00
   11   15    0     -4.88      0.00
   -8   16    0     -1.90      0.00
   -7   16    0     -1.58      0.00
   -6   16    0      3.46      0.00
   -5   16    0      0.90      0.00
   -4   16    0      3.77      0.00
   -3   16    0     -3.67      0.00
   -2   16    0      1.86      0.00
   -1   16    0     -1.94      0.00
    0   16    0      3.70      0.00
    1   16    0      2.19      0.00
    2   16    0      4.00      0.00
    3   16    0      7.74      0.00
    4   16    0      2.70      0.00
    5   16    0     -2.97      0.00
    6   16    0      5.92      0.00
    7   16    0     -3.84      0.00
    8   16    0      4.03      0.00
    9   16    0      3.66      0.00
   10   16    0     -0.09      0.00
   -6   17    0      1.32      0.00
   -5   17    0      2.24      0.00
   -4   17    0     -0.96      0.00
   -3   17    0      3.64      0.00
   -2   17    0     -0.80      0.00
   -1   17    0      8.11      0.00
    0   17    0      1.78      0.00
    1   17    0      3.26      0.00
    2   17    0     -1.41      0.00
    3   17    0     -2.31      0.00
    4   17    0     -7.12      0.00
    5   17    0     -0.07      0.00
    6   17    0     -1.83      0.00
    7   17    0      0.62      0.00
    8   17    0      1.48      0.00
   -4   18    0     -2.90      0.00
   -3   18    0     -4.90      0.00
   -2   18    0      0.80      0.00
   -1   18    0     -4.93      0.00
    0   18    0     -7.66      0.00
    1   18    0     -1.46      0.00
    2   18    0     -7.61      0.00
    3   18    0     -0.24      0.00
    4   18    0     -2.62      0.00
    5   18    0      3.43      0.00
   -5  -18    1     -3.10      0.00
   -4  -18    1     -0.11      0.00
   -3  -18    1      2.01      0.00
   -2  -18    1     -3.67      0.00
   -1  -18    1      7.57      0.00
    0  -18    1     -4.86      0.00
    1  -18    1      4.32      0.00
    2  -18    1      2.26      0.00
    3  -18    1      4.20      0.00
   -8  -17    1     -2.60      0.00
   -7  -17    1     -1.64      0.00
   -6  -17    1      2.05      0.00
   -5  -17    1     -1.90      0.00
   -4  -17    1      4.30      0.00
   -3  -17    1     -8.03      0.00
   -2  -17    1      3.46      0.00
   -1  -17    1     -9.33      0.00
    0  -17    1     -0.94      0.00
    1  -17    1      1.11      0.00
    2  -17    1     -1.51      0.00
    3  -17    1      1.48      0.00
    4  -17    1     -7.63      0.00
    5  -17    1     -3.85      0.00
    6  -17    1     -1.82      0.00
   -9  -16    1     -0.11      0.00
   -8  -16    1     -2.29      0.00
   -7  -16    1     -0.30      0.00
   -6  -16    1     -2.27      0.00
   -5  -16    1     -2.01      0.00
   -4  -16    1     -3.94      0.00
   -3  -16    1      3.56      0.00
   -2  -16    1     -2.83      0.00
   -1  -16    1      5.71      0.00
    0  -16    1      6.38      0.00
    1  -16    1      2.97      0.00
    2  -16    1      3.35      0.00
    3  -16    1     -4.50      0.00
    4  -16    1      2.26      0.00
    5  -16    1     -0.18      0.00
    6  -16    1      0.12      0.00
    7  -16    1      2.54      0.00
    8  -16    1      1.38      0.00
  -11  -15    1      2.60      0.00
  -10  -15    1      2.51      0.00
   -9  -15    1      0.37      0.00
   -8  -15    1     -0.15      0.00
   -7  -15    1      7.15      0.00
   -6  -15    1     -4.04      0.00
   -5  -15    1      7.05      0.00
   -4  -15    1      1.65      0.00
   -3  -15    1      0.28      0.00
   -2  -15    1      1.46      0.00
   -1  -15    1      3.07      0.00
    0  -15    1     -2.97      0.00
    1  -15    1     -1.26      0.00
    2  -15    1     -5.36      0.00
    3  -15    1     -1.26      0.00
    4  -15    1     -1.20      0.00
    5  -15    1      0.76      0.00
    6  -15    1      3.40      0.00
    7  -15    1      1.71      0.00
    8  -15    1     -4.73      0.00
    9  -15    1      2.47      0.00
  -12  -14    1     -2.99      0.00
  -11  -14    1     -3.90      0.00
  -10  -14    1     -5.63      0.00
   -9  -14    1     -3.99      0.00
   -8  -14    1      5.02      0.00
   -7  -14    1     -5.86      0.00
   -6  -14    1      3.18      0.00
   -5  -14    1     -0.53      0.00
   -4  -14    1     -2.31      0.00
   -3  -14    1      0.98      0.00
   -2  -14    1      4.31      0.00
   -1  -14    1      0.06      0.00
    0  -14    1     -2.61      0.00
    1  -14    1     -3.27      0.00
    2  -14    1     -5.56      0.00
    3  -14    1      1.91      0.00
    4  -14    1      1.27      0.00
    5  -14    1      2.55      0.00
    6  -14    1     -0.12      0.00
    7  -14    1     -5.72      0.00
    8  -14    1      1.70      0.00
    9  -14    1     -0.22      0.00
   10  -14    1     -3.35      0.00
  -13  -13    1     -4.19      0.00
  -12  -13    1      1.72      0.00
  -11  -13    1     -3.11      0.00
  -10  -13    1      3.81      0.00
   -9  -13    1      2.10      0.00
   -8  -13    1      1.13      0.00
   -7  -13    1     -3.71      0.00
   -6  -13    1      4.52      0.00
   -5  -13    1     -3.89      0.00
   -4  -13    1     -2.86      0.00
   -3  -13    1      1.17      0.00
   -2  -13    1     -6.72      0.00
   -1  -13    1    -13.04      0.00
    0  -13    1     -0.70      0.00
    1  -13    1     -3.89      0.00
    2  -13    1      9.95      0.00
    3  -13    1      5.07      0.00
    4  -13    1      2.68      0.00
    5  -13    1      0.66      0.00
    6  -13    1     -1.70      0.00
    7  -13    1      3.42      0.00
    8  -13    1      4.62      0.00
    9  -13    1     -3.33      0.00
   10  -13    1      2.01      0.00
   11  -13    1      2.08      0.00
   12  -13    1     -2.52      0.00
  -14  -12    1     -3.26      0.00
  -13  -12    1      1.62      0.00
  -12  -12    1     -4.16      0.00
  -11  -12    1      0.35      0.00
  -10  -12    1      1.33      0.00
   -9  -12    1     -1.14      0.00
   -8  -12    1     -3.74      0.00
   -7  -12    1      7.10      0.00
   -6  -12    1     -1.95      0.00
   -5  -12    1      0.42      0.00
   -4  -12    1      9.40      0.00
   -3  -12    1     -3.05      0.00
   -2  -12    1      0.46      0.00
   -1  -12    1      9.55      0.00
    0  -12    1      5.77      0.00
    1  -12    1      6.68      0.00
    2  -12    1     -0.13      0.00
    3  -12    1     -4.53      0.00
    4  -12    1     -7.14      0.00
    5  -12    1     -3.07      0.00
    6  -12    1     -4.49      0.00
    7  -12    1     -0.73      0.00
    8  -12    1     -4.10      0.00
    9  -12    1     -0.04      0.00
   10  -12    1      2.89      0.00
   11  -12    1     -1.49      0.00
   12  -12    1     -1.24      0.00
  -14  -11    1     -1.90      0.00
  -13  -11    1      2.72      0.00
  -12  -11    1      1.07      0.00
  -11  -11    1      7.22      0.00
  -10  -11    1     -2.01      0.00
   -9  -11    1      1.73      0.00
   -8  -11    1     -0.15      0.00
   -7  -11    1      0.42      0.00
   -6  -11    1     -7.93      0.00
   -5  -11    1      4.50      0.00
   -4  -11    1     -7.57      0.00
   -3  -11    1      0.08      0.00
   -2  -11    1      4.50      0.00
   -1  -11    1      1.93      0.00
    0  -11    1     -2.76      0.00
    1  -11    1     -2.99      0.00
    2  -11    1     -3.33      0.00
    3  -11    1     -6.61      0.00
    4  -11    1      3.86      0.00
    5  -11    1     -1.76      0.00
    6  -11    1      3.79      0.00
    7  -11    1      1.76      0.00
    8  -11    1     -1.44      0.00
    9  -11    1      1.63      0.00
   10  -11    1     -2.00      0.00
   11  -11    1     -2.30      0.00
   12  -11    1      4.22      0.00
   13  -11    1      3.41      0.00
  -15  -10    1      0.25      0.00
  -14  -10    1      7.17      0.00
  -13  -10    1     -0.58      0.00
  -12  -10    1      3.69      0.00
  -11  -10    1     -0.31      0.00
  -10  -10    1     -2.63      0.00
   -9  -10    1      1.14      0.00
   -8  -10    1      1.61      0.00
   -7  -10    1     -4.94      0.00
   -6  -10    1      5.84      0.00
   -5  -10    1      3.18      0.00
   -4  -10    1     -2.04      0.00
   -3  -10    1      5.49      0.00
   -2  -10    1     -3.21      0.00
   -1  -10    1     -3.43      0.00
    0  -10    1     -4.82      0.00
    1  -10    1      1.58      0.00
    2  -10    1     -9.36      0.00
    3  -10    1      8.30      0.00
    4  -10    1     -2.29      0.00
    5  -10    1      3.16      0.00
    6  -10    1      2.83      0.00
    7  -10    1     -0.34      0.00
    8  -10    1      2.90      0.00
    9  -10    1      1.47      0.00
   10  -10    1     -0.14      0.00
   11  -10    1      2.00      0.00
   12  -10    1      3.26      0.00
   13  -10    1     -7.80      0.00
   14  -10    1      2.82      0.00
  -15   -9    1      2.66      0.00
  -14   -9    1      0.22      0.00
  -13   -9    1     -1.80      0.00
  -12   -9    1      4.48      0.00
  -11   -9    1     -3.35      0.00
  -10   -9    1      5.00      0.00
   -9   -9    1      1.53      0.00
   -8   -9    1     -1.53      0.00
   -7   -9    1     -1.51      0.00
   -6   -9    1      1.06      0.00
   -5   -9    1    -13.35      0.00
   -4   -9    1     -1.80      0.00
   -3   -9    1     -4.05      0.00
   -2   -9    1     -4.38      0.00
   -1   -9    1     -2.96      0.00
    0   -9    1      3.35      0.00
    1   -9    1     -3.78      0.00
    3   -9    1      5.78      0.00
    4   -9    1      6.65      0.00
    5   -9    1      5.94      0.00
    6   -9    1      3.00      0.00
    7   -9    1     -2.30      0.00
    8   -9    1     -2.25      0.00
    9   -9    1      0.35      0.00
   10   -9    1     -3.42      0.00
   11   -9    1      6.08      0.00
   12   -9    1     -3.71      0.00
   13   -9    1      2.85      0.00
   14   -9    1      5.81      0.00
   15   -9    1     -1.65      0.00
  -16   -8    1      3.97      0.00
  -15   -8    1     -0.03      0.00
  -14   -8    1     -3.28      0.00
  -13   -8    1      2.85      0.00
  -12   -8    1     -5.60      0.00
  -11   -8    1     -1.50      0.00
  -10   -8    1     -1.54      0.00
   -9   -8    1     -4.24      0.00
   -8   -8    1     -0.82      0.00
   -7   -8    1      3.59      0.00
   -6   -8    1      0.28      0.00
   -5   -8    1      3.81      0.00
   -4   -8    1     10.97      0.00
   -3   -8    1      0.47      0.00
   -2   -8    1      4.76      0.00
   -1   -8    1      8.82      0.00
    0   -8    1      7.34      0.00
    1   -8    1      6.39      0.00
    2   -8    1     12.95      0.00
    3   -8    1     -5.26      0.00
    4   -8    1      0.46      0.00
    5   -8    1     -4.46      0.00
    6   -8    1    -10.06      0.00
    7   -8    1     -0.52      0.00
    8   -8    1      2.63      0.00
    9   -8    1     -4.02      0.00
   10   -8    1      3.87      0.00
   11   -8    1     -4.31      0.00
   12   -8    1     -6.40      0.00
   13   -8    1     -0.47      0.00
   14   -8    1     -4.03      0.00
   15   -8    1     -7.32      0.00
  -16   -7    1     -2.53      0.00
  -15   -7    1     -0.79      0.00
  -14   -7    1      0.26      0.00
  -13   -7    1      0.44      0.00
  -12   -7    1     -2.14      0.00
  -11   -7    1      0.60      0.00
  -10   -7    1      0.60      0.00
   -9   -7    1     -0.63      0.00
   -8   -7    1      3.31      0.00
   -7   -7    1     -0.10      0.00
   -6   -7    1      0.07      0.00
   -5   -7    1      1.32      0.00
   -4   -7    1      2.66      0.00
   -3   -7    1     -5.68      0.00
   -2   -7    1      5.43      0.00
   -1   -7    1     -0.37      0.00
    0   -7    1     -5.09      0.00
    1   -7    1      3.14      0.00
    2   -7    1    -12.59      0.00
    3   -7    1    -11.06      0.00
    4   -7    1     -0.36      0.00
    5   -7    1    -13.60      0.00
    6   -7    1      8.04      0.00
    7   -7    1      0.13      0.00
    8   -7    1     -0.23      0.00
    9   -7    1      1.74      0.00
   10   -7    1      3.35      0.00
   11   -7    1     -8.31      0.00
   12   -7    1      8.29      0.00
   13   -7    1      0.86      0.00
   14   -7    1     -4.91      0.00
   15   -7    1      3.66      0.00
   16   -7    1     -0.12      0.00
  -16   -6    1      1.21      0.00
  -15   -6    1     -0.88      0.00
  -14   -6    1      1.23      0.00
  -13   -6    1     -1.29      0.00
  -12   -6    1      0.87      0.00
  -11   -6    1      6.81      0.00
  -10   -6    1     -4.07      0.00
   -9   -6    1      7.11      0.00
   -8   -6    1     -0.46      0.00
   -7   -6    1      6.04      0.00
   -6   -6    1     -1.20      0.00
   -5   -6    1     11.47      0.00
   -4   -6    1    -12.43      0.00
   -3   -6    1      0.04      0.00
   -2   -6    1     -0.57      0.00
   -1   -6    1    -21.56      0.00
    0   -6    1     -2.25      0.00
    1   -6    1    -23.15      0.00
    2   -6    1    -14.24      0.00
    3   -6    1      2.43      0.00
    4   -6    1    -10.69      0.00
    5   -6    1      9.87      0.00
    6   -6    1     -2.20      0.00
    7   -6    1      3.84      0.00
    8   -6    1      0.14      0.00
    9   -6    1      4.57      0.00
   10   -6    1     -5.30      0.00
   11   -6    1     11.56      0.00
   12   -6    1      0.49      0.00
   13   -6    1     -1.10      0.00
   14   -6    1      4.95      0.00
   15   -6    1      5.87      0.00
   16   -6    1      0.98      0.00
  -16   -5    1     -2.46      0.00
  -15   -5    1      0.48      0.00
  -14   -5    1      2.37      0.00
  -13   -5    1     -0.93      0.00
  -12   -5    1      4.60      0.00
  -11   -5    1     -4.54      0.00
  -10   -5    1      1.73      0.00
   -9   -5    1     -0.89      0.00
   -8   -5    1     -3.97      0.00
   -7   -5    1     -6.68      0.00
   -6   -5    1     -5.77      0.00
   -5   -5    1     -8.57      0.00
   -4   -5    1    -14.39      0.00
   -3   -5    1     18.80      0.00
   -2   -5    1    -26.30      0.00
   -1   -5    1     23.87      0.00
    0   -5    1     -9.70      0.00
    1   -5    1     17.62      0.00
    2   -5    1     16.43      0.00
    3   -5    1     15.51      0.00
    4   -5    1     11.34      0.00
    5   -5    1     14.60      0.00
    6   -5    1      2.20      0.00
    7   -5    1     -3.17      0.00
    8   -5    1     -2.12      0.00
    9   -5    1    -10.07      0.00
   10   -5    1     -0.76      0.00
   11   -5    1     -5.75      0.00
   12   -5    1     -7.29      0.00
   13   -5    1      2.71      0.00
   14   -5    1     -2.67      0.00
   15   -5    1     -2.26      0.00
   16   -5    1     -3.62      0.00
  -17   -4    1     -5.24      0.00
  -16   -4    1      3.13      0.00
  -15   -4    1      2.13      0.00
  -14   -4    1     -5.02      0.00
  -13   -4    1     -1.09      0.00
  -12   -4    1     -2.35      0.00
  -11   -4    1     -4.69      0.00
  -10   -4    1      3.82      0.00
   -9   -4    1     -9.38      0.00
   -8   -4    1      0.31      0.00
   -7   -4    1     -6.19      0.00
   -6   -4    1      7.59      0.00
   -5   -4    1    -10.34      0.00
   -4   -4    1     27.27      0.00
   -3   -4    1     -8.14      0.00
   -2   -4    1     21.00      0.00
   -1   -4    1      7.60      0.00
    0   -4    1     14.31      0.00
    1   -4    1     15.67      0.00
    2   -4    1      6.12      0.00
    3   -4    1      0.08      0.00
    4   -4    1     -1.61      0.00
    5   -4    1    -10.72      0.00
    6   -4    1    -15.94      0.00
    7   -4    1      3.61      0.00
    8   -4    1     -8.76      0.00
    9   -4    1     10.61      0.00
   10   -4    1      0.15      0.00
   11   -4    1      4.71      0.00
   12   -4    1      4.74      0.00
   13   -4    1      0.33      0.00
   14   -4    1      2.68      0.00
   15   -4    1      2.07      0.00
   16   -4    1      1.49      0.00
   17   -4    1      2.51      0.00
  -17   -3    1     -1.54      0.00
  -16   -3    1     -0.52      0.00
  -15   -3    1     -8.09      0.00
  -14   -3    1      1.59      0.00
  -13   -3    1      0.75      0.00
  -12   -3    1     -2.32      0.00
  -11   -3    1     -1.11      0.00
  -10   -3    1     -4.35      0.00
   -9   -3    1     -2.30      0.00
   -8   -3    1      4.25      0.00
   -7   -3    1      3.12      0.00
   -6   -3    1      6.31      0.00
   -5   -3    1     10.84      0.00
   -4   -3    1     15.29      0.00
   -3   -3    1    -11.10      0.00
   -2   -3    1     20.62      0.00
   -1   -3    1     -5.78      0.00
    0   -3    1      5.61      0.00
    1   -3    1     -7.10      0.00
    2   -3    1    -10.46      0.00
    3   -3    1    -13.20      0.00
    4   -3    1    -10.33      0.00
    5   -3    1    -18.46      0.00
    6   -3    1     11.22      0.00
    8   -3    1     17.28      0.00
    9   -3    1     -3.46      0.00
   10   -3    1      8.22      0.00
   11   -3    1     -3.55      0.00
   12   -3    1      1.92      0.00
   13   -3    1     -1.42      0.00
   14   -3    1      1.12      0.00
   15   -3    1     -6.68      0.00
   16   -3    1      3.43      0.00
   17   -3    1     -7.67      0.00
  -17   -2    1      7.51      0.00
  -16   -2    1     -4.06      0.00
  -15   -2    1      8.98      0.00
  -14   -2    1     -0.46      0.00
  -13   -2    1     -1.00      0.00
  -12   -2    1     -2.65      0.00
  -11   -2    1      2.34      0.00
  -10   -2    1      2.04      0.00
   -9   -2    1     10.33      0.00
   -8   -2    1      3.88      0.00
   -7   -2    1     14.59      0.00
   -6   -2    1     -7.24      0.00
   -5   -2    1      1.26      0.00
   -4   -2    1    -29.94      0.00
   -3   -2    1    -11.32      0.00
   -2   -2    1    -13.83      0.00
   -1   -2    1    -22.98      0.00
    0   -2    1     -0.05      0.00
    1   -2    1    -14.45      0.00
    2   -2    1      6.96      0.00
    3   -2    1    -10.22      0.00
    4   -2    1     11.47      0.00
    5   -2    1     18.59      0.00
    6   -2    1     16.01      0.00
    8   -2    1     -3.02      0.00
    9   -2    1      1.79      0.00
   10   -2    1     -3.72      0.00
   11   -2    1     -3.26      0.00
   12   -2    1      1.91      0.00
   13   -2    1     -2.79      0.00
   14   -2    1     -2.72      0.00
   15   -2    1      2.53      0.00
   16   -2    1     -2.43      0.00
   17   -2    1      2.97      0.00
  -17   -1    1     -4.85      0.00
  -16   -1    1     -0.43      0.00
  -15   -1    1     -3.74      0.00
  -14   -1    1     -0.29      0.00
  -13   -1    1      2.35      0.00
  -12   -1    1      6.41      0.00
  -11   -1    1      9.45      0.00
  -10   -1    1      1.05      0.00
   -9   -1    1      5.27      0.00
   -8   -1    1     -5.11      0.00
   -7   -1    1    -14.24      0.00
   -6   -1    1     -6.06      0.00
   -5   -1    1     -3.29      0.00
   -4   -1    1      1.69      0.00
   -3   -1    1     29.12      0.00
   -2   -1    1     18.76      0.00
   -1   -1    1     27.83      0.00
    0   -1    1    -11.08      0.00
    1   -1    1     13.40      0.00
    2   -1    1    -50.61      0.00
    3   -1    1     27.55      0.00
    4   -1    1     -9.94      0.00
    5   -1    1      4.77      0.00
    6   -1    1     -8.23      0.00
    7   -1    1    -27.89      0.00
    8   -1    1     -6.00      0.00
    9   -1    1     -8.47      0.00
   10   -1    1     -9.30      0.00
   11   -1    1      6.65      0.00
   12   -1    1     -8.24      0.00
   13   -1    1      0.56      0.00
   14   -1    1      3.80      0.00
   15   -1    1     -0.98      0.00
   16   -1    1      1.00      0.00
   17   -1    1      0.15      0.00
  -17    0    1      3.44      0.00
  -16    0    1      2.20      0.00
  -15    0    1      4.55      0.00
  -14    0    1     -1.73      0.00
  -13    0    1      1.18      0.00
  -12    0    1     -3.41      0.00
  -11    0    1     -5.49      0.00
  -10    0    1     -4.47      0.00
   -9    0    1     -6.68      0.00
   -8    0    1    -14.43      0.00
   -7    0    1      0.68      0.00
   -6    0    1     -7.07      0.00
   -5    0    1     -4.62      0.00
   -4    0    1    -10.44      0.00
   -3    0    1    -17.20      0.00
   -2    0    1    -75.05      0.00
   -1    0    1    -89.12      0.00
    0    0    1    -14.37      0.00
    1    0    1    -90.10      0.00
    2    0    1     77.97      0.00
    3    0    1    -19.87      0.00
    4    0    1      6.46      0.00
    5    0    1     -4.41      0.00
    6    0    1    -20.19      0.00
    7    0    1     12.78      0.00
    8    0    1      1.59      0.00
    9    0    1      6.06      0.00
   10    0    1      7.07      0.00
   11    0    1     -0.68      0.00
   12    0    1      0.34      0.00
   13    0    1      6.60      0.00
   14    0    1     -8.71      0.00
   15    0    1      0.34      0.00
   16    0    1     -3.22      0.00
   17    0    1     -0.66      0.00
  -17    1    1     -4.20      0.00
  -16    1    1      2.26      0.00
  -15    1    1     -7.26      0.00
  -14    1    1      4.13      0.00
  -13    1    1     -4.27      0.00
  -12    1    1      2.22      0.00
  -11    1    1     -5.68      0.00
  -10    1    1      1.25      0.00
   -9    1    1     -9.32      0.00
   -8    1    1     13.95      0.00
   -7    1    1      3.61      0.00
   -6    1    1     19.01      0.00
   -5    1    1     16.77      0.00
   -4    1    1     26.12      0.00
   -3    1    1     16.99      0.00
   -2    1    1     43.69      0.00
   -1    1    1    159.50      0.00
    0    1    1      4.06      0.00
    1    1    1    165.47      0.00
    2    1    1    -36.88      0.00
    3    1    1     13.27      0.00
    4    1    1     -1.83      0.00
    5    1    1     -2.86      0.00
    6    1    1      8.87      0.00
    7    1    1     10.04      0.00
    8    1    1     -3.58      0.00
    9    1    1     -1.09      0.00
   10    1    1      3.24      0.00
   11    1    1     -3.50      0.00
   12    1    1      3.46      0.00
   13    1    1     -6.51      0.00
   14    1    1      0.58      0.00
   15    1    1      4.72      0.00
   16    1    1     -0.31      0.00
   17    1    1      4.73      0.00
  -17    2    1     -1.60      0.00
  -16    2    1     -1.92      0.00
  -15    2    1      1.35      0.00
  -14    2    1      0.08      0.00
  -13    2    1      3.06      0.00
  -12    2    1      0.43      0.00
  -11    2    1      2.53      0.00
  -10    2    1      5.68      0.00
   -9    2    1      7.02      0.00
   -8    2    1     14.66      0.00
   -7    2    1      4.29      0.00
   -5    2    1     -7.55      0.00
   -4    2    1    -10.05      0.00
   -3    2    1    -21.66      0.00
   -2    2    1     31.64      0.00
   -1    2    1   -108.85      0.00
    0    2    1     23.29      0.00
    1    2    1    -97.22      0.00
    2    2    1     -6.35      0.00
    3    2    1    -10.83      0.00
    4    2    1      2.34      0.00
    5    2    1     -0.83      0.00
    6    2    1     10.25      0.00
    7    2    1     -0.53      0.00
    8    2    1     -0.88      0.00
    9    2    1      8.91      0.00
   10    2    1     -6.50      0.00
   11    2    1     -1.57      0.00
   12    2    1      2.50      0.00
   13    2    1      0.20      0.00
   14    2    1      7.70      0.00
   15    2    1     -0.48      0.00
   16    2    1     -1.61      0.00
   17    2    1     -1.06      0.00
  -17    3    1      3.66      0.00
  -16    3    1      2.30      0.00
  -15    3    1      2.20      0.00
  -14    3    1      0.21      0.00
  -13    3    1     -1.29      0.00
  -12    3    1     -2.05      0.00
  -11    3    1      3.64      0.00
  -10    3    1     -3.11      0.00
   -9    3    1      7.55      0.00
   -8    3    1    -14.18      0.00
   -7    3    1    -15.57      0.00
   -6    3    1    -11.38      0.00
   -5    3    1    -23.79      0.00
   -4    3    1     -8.18      0.00
   -3    3    1      7.60      0.00
   -2    3    1    -29.37      0.00
   -1    3    1     17.46      0.00
    0    3    1      3.97      0.00
    1    3    1      4.82      0.00
    2    3    1     21.57      0.00
    3    3    1      7.61      0.00
    4    3    1     10.21      0.00
    5    3    1     -2.93      0.00
    6    3    1      6.32      0.00
    7    3    1    -21.27      0.00
    8    3    1     10.36      0.00
    9    3    1    -13.81      0.00
   10    3    1      1.12      0.00
   11    3    1      1.60      0.00
   12    3    1     -2.97      0.00
   13    3    1     -1.43      0.00
   14    3    1     -0.65      0.00
   15    3    1     -7.28      0.00
   16    3    1      8.31      0.00
  -17    4    1     -0.48      0.00
  -16    4    1     -1.15      0.00
  -15    4    1      1.45      0.00
  -14    4    1     -3.53      0.00
  -13    4    1      0.95      0.00
  -12    4    1     -0.43      0.00
  -11    4    1     -1.54      0.00
  -10    4    1     -2.52      0.00
   -9    4    1     -5.84      0.00
   -8    4    1    -11.81      0.00
   -7    4    1     12.46      0.00
   -6    4    1     -9.32      0.00
   -5    4    1     23.17      0.00
   -4    4    1      9.67      0.00
   -3    4    1     10.47      0.00
   -2    4    1      1.25      0.00
   -1    4    1     20.10      0.00
    0    4    1    -14.92      0.00
    1    4    1      6.92      0.00
    2    4    1     -5.48      0.00
    3    4    1     -3.15      0.00
    4    4    1    -17.04      0.00
    5    4    1      7.16      0.00
    6    4    1    -20.43      0.00
    7    4    1      9.54      0.00
    8    4    1     -5.48      0.00
    9    4    1     -1.71      0.00
   10    4    1      4.74      0.00
   11    4    1     -0.15      0.00
   12    4    1      0.73      0.00
   13    4    1      3.04      0.00
   14    4    1     -0.24      0.00
   15    4    1      5.67      0.00
   16    4    1     -2.80      0.00
   17    4    1      1.25      0.00
  -16    5    1     -2.72      0.00
  -15    5    1     -0.97      0.00
  -14    5    1      1.96      0.00
  -13    5    1      1.69      0.00
  -12    5    1     -0.22      0.00
  -11    5    1     -0.79      0.00
  -10    5    1      0.38      0.00
   -9    5    1     -6.68      0.00
   -8    5    1     10.06      0.00
   -7    5    1      1.57      0.00
   -6    5    1      9.22      0.00
   -5    5    1      4.14      0.00
   -4    5    1      0.54      0.00
   -3    5    1    -12.05      0.00
   -2    5    1      2.65      0.00
   -1    5    1    -16.23      0.00
    0    5    1    -13.77      0.00
    1    5    1      2.71      0.00
    2    5    1    -14.55      0.00
    3    5    1     -5.65      0.00
    4    5    1      0.29      0.00
    5    5    1     -3.70      0.00
    6    5    1      2.53      0.00
    7    5    1      9.97      0.00
    8    5    1     -3.53      0.00
    9    5    1     10.87      0.00
   10    5    1     -0.93      0.00
   11    5    1      2.60      0.00
   12    5    1      1.31      0.00
   13    5    1      2.42      0.00
   14    5    1     -4.16      0.00
   15    5    1     -3.06      0.00
   16    5    1     -2.07      0.00
   17    5    1     -2.92      0.00
  -16    6    1      1.68      0.00
  -15    6    1      2.13      0.00
  -14    6    1     -1.99      0.00
  -13    6    1     -0.22      0.00
  -12    6    1      3.09      0.00
  -11    6    1      2.42      0.00
  -10    6    1      1.77      0.00
   -9    6    1      8.78      0.00
   -8    6    1      5.76      0.00
   -7    6    1     -2.97      0.00
   -6    6    1      0.98      0.00
   -5    6    1     -2.83      0.00
   -4    6    1    -11.10      0.00
   -3    6    1      5.62      0.00
   -2    6    1     -4.47      0.00
   -1    6    1      3.63      0.00
    0    6    1     13.48      0.00
    1    6    1      6.43      0.00
    2    6    1      7.24      0.00
    3    6    1      8.79      0.00
    4    6    1     13.00      0.00
    5    6    1      1.63      0.00
    6    6    1     12.17      0.00
    7    6    1     -1.08      0.00
    8    6    1      1.53      0.00
    9    6    1      1.51      0.00
   10    6    1     -3.28      0.00
   11    6    1      0.31      0.00
   12    6    1     -1.44      0.00
   13    6    1     -3.21      0.00
   14    6    1      2.16      0.00
   15    6    1      2.99      0.00
   16    6    1     -0.91      0.00
   17    6    1      2.04      0.00
  -16    7    1      2.68      0.00
  -15    7    1     -6.99      0.00
  -14    7    1      2.38      0.00
  -13    7    1     -4.62      0.00
  -12    7    1     -3.82      0.00
  -11    7    1     -5.88      0.00
  -10    7    1      0.94      0.00
   -9    7    1     -1.34      0.00
   -8    7    1     -0.90      0.00
   -7    7    1     -2.31      0.00
   -6    7    1      5.28      0.00
   -5    7    1    -14.40      0.00
   -4    7    1     13.86      0.00
   -3    7    1     -7.71      0.00
   -2    7    1     13.82      0.00
   -1    7    1     -3.48      0.00
    0    7    1      9.58      0.00
    1    7    1    -10.52      0.00
    2    7    1     -0.14      0.00
    3    7    1     -0.92      0.00
    4    7    1     -9.45      0.00
    5    7    1     -0.84      0.00
    6    7    1     -1.34      0.00
    7    7    1     -7.86      0.00
    8    7    1      4.22      0.00
    9    7    1     -4.95      0.00
   10    7    1     -0.59      0.00
   11    7    1     -0.97      0.00
   12    7    1     -1.69      0.00
   13    7    1      1.44      0.00
   14    7    1      0.52      0.00
   15    7    1      0.35      0.00
   16    7    1      4.39      0.00
  -15    8    1      3.63      0.00
  -14    8    1      1.81      0.00
  -13    8    1      2.32      0.00
  -12    8    1      4.32      0.00
  -11    8    1      3.83      0.00
  -10    8    1      0.58      0.00
   -9    8    1     -1.34      0.00
   -8    8    1     -7.02      0.00
   -7    8    1     -1.14      0.00
   -6    8    1     -8.15      0.00
   -5    8    1      9.15      0.00
   -4    8    1     -2.49      0.00
   -3    8    1     10.43      0.00
   -2    8    1     -5.26      0.00
   -1    8    1      9.32      0.00
    0    8    1     -5.53      0.00
    1    8    1      0.74      0.00
    2    8    1      6.61      0.00
    3    8    1     -6.65      0.00
    4    8    1      4.47      0.00
    5    8    1     -3.94      0.00
    6    8    1     -5.93      0.00
    7    8    1     -0.83      0.00
    8    8    1     -3.68      0.00
    9    8    1     -3.60      0.00
   10    8    1      2.82      0.00
   11    8    1     -1.37      0.00
   12    8    1      1.35      0.00
   13    8    1      2.23      0.00
   14    8    1      0.22      0.00
   15    8    1      0.79      0.00
  -15    9    1      1.12      0.00
  -13    9    1     -0.59      0.00
  -12    9    1     -4.92      0.00
  -11    9    1      2.98      0.00
  -10    9    1     -5.94      0.00
   -9    9    1     -0.68      0.00
   -8    9    1     -0.18      0.00
   -7    9    1      5.95      0.00
   -6    9    1      1.35      0.00
   -5    9    1      6.42      0.00
   -4    9    1     -1.61      0.00
   -3    9    1     -1.39      0.00
   -1    9    1     -4.92      0.00
    0    9    1    -13.64      0.00
    1    9    1      4.57      0.00
    2    9    1    -12.08      0.00
    3    9    1      1.55      0.00
    4    9    1     -6.27      0.00
    5    9    1     -0.52      0.00
    6    9    1      2.61      0.00
    7    9    1      3.38      0.00
    8    9    1      4.67      0.00
    9    9    1      6.70      0.00
   10    9    1      3.24      0.00
   11    9    1      1.48      0.00
   12    9    1      5.73      0.00
   13    9    1     -5.17      0.00
   14    9    1      0.94      0.00
   15    9    1     -4.23      0.00
  -14   10    1     -3.47      0.00
  -13   10    1      0.20      0.00
  -12   10    1      5.09      0.00
  -11   10    1     -3.92      0.00
  -10   10    1      3.64      0.00
   -9   10    1      1.71      0.00
   -8   10    1      5.25      0.00
   -7   10    1     -3.84      0.00
   -6   10    1      2.10      0.00
   -5   10    1     -4.53      0.00
   -4   10    1     -4.59      0.00
   -3   10    1     -6.42      0.00
   -2   10    1     -1.49      0.00
   -1   10    1     -6.17      0.00
    0   10    1      7.42      0.00
    1   10    1     -2.02      0.00
    2   10    1      2.15      0.00
    3   10    1      7.04      0.00
    4   10    1      3.60      0.00
    5   10    1      9.39      0.00
    6   10    1     -0.41      0.00
    7   10    1      0.55      0.00
    8   10    1     -7.88      0.00
    9   10    1     -2.13      0.00
   10   10    1     -8.82      0.00
   11   10    1      2.20      0.00
   12   10    1     -5.49      0.00
   13   10    1      1.58      0.00
   14   10    1     -1.00      0.00
   15   10    1     -1.01      0.00
  -13   11    1      3.59      0.00
  -12   11    1     -2.81      0.00
  -11   11    1     -1.26      0.00
  -10   11    1      0.21      0.00
   -9   11    1     -2.51      0.00
   -8   11    1     -2.13      0.00
   -7   11    1     -0.79      0.00
   -6   11    1      0.70      0.00
   -5   11    1     -6.45      0.00
   -4   11    1     -0.20      0.00
   -3   11    1     -1.48      0.00
   -2   11    1      4.20      0.00
   -1   11    1      2.19      0.00
    0   11    1      8.68      0.00
    1   11    1     -0.07      0.00
    2   11    1      8.21      0.00
    3   11    1     -0.24      0.00
    4   11    1     -0.07      0.00
    5   11    1     -2.52      0.00
    6   11    1     -3.70      0.00
    7   11    1     -0.02      0.00
    8   11    1      4.96      0.00
    9   11    1     -2.02      0.00
   10   11    1      5.21      0.00
   11   11    1     -2.23      0.00
   12   11    1     -4.95      0.00
   13   11    1      0.41      0.00
   14   11    1     -5.52      0.00
  -13   12    1     -3.27      0.00
  -12   12    1     -1.16      0.00
  -11   12    1      2.77      0.00
  -10   12    1      3.00      0.00
   -9   12    1      1.98      0.00
   -8   12    1      0.46      0.00
   -7   12    1      1.90      0.00
   -6   12    1     -4.68      0.00
   -5   12    1      4.46      0.00
   -4   12    1      3.78      0.00
   -3   12    1      7.99      0.00
   -2   12    1      2.50      0.00
   -1   12    1      7.60      0.00
    0   12    1     -4.14      0.00
    1   12    1     -3.77      0.00
    2   12    1     -3.06      0.00
    3   12    1     -5.29      0.00
    4   12    1     -0.92      0.00
    5   12    1      0.40      0.00
    6   12    1      2.65      0.00
    7   12    1      2.62      0.00
    8   12    1     -0.50      0.00
    9   12    1     -0.66      0.00
   10   12    1      1.26      0.00
   11   12    1     -4.99      0.00
   12   12    1      4.03      0.00
   13   12    1     -0.19      0.00
   14   12    1      4.60      0.00
  -12   13    1      0.41      0.00
  -11   13    1     -1.14      0.00
  -10   13    1     -5.10      0.00
   -9   13    1     -2.52      0.00
   -8   13    1      1.12      0.00
   -7   13    1     -0.87      0.00
   -6   13    1      2.93      0.00
   -5   13    1      3.33      0.00
   -4   13    1      1.52      0.00
   -3   13    1     -1.08      0.00
   -2   13    1     -2.95      0.00
   -1   13    1     -7.92      0.00
    0   13    1     -6.76      0.00
    1   13    1      0.80      0.00
    2   13    1      2.19      0.00
    3   13    1     -1.25      0.00
    4   13    1      2.83      0.00
    5   13    1     -4.78      0.00
    6   13    1      0.50      0.00
    7   13    1     -5.34      0.00
    8   13    1      0.68      0.00
    9   13    1     -0.92      0.00
   10   13    1     -1.88      0.00
   11   13    1     -0.51      0.00
   12   13    1      2.56      0.00
   13   13    1     -2.89      0.00
  -11   14    1     -0.33      0.00
  -10   14    1      2.14      0.00
   -9   14    1      2.80      0.00
   -8   14    1     -1.04      0.00
   -7   14    1     -0.95      0.00
   -6   14    1      3.21      0.00
   -5   14    1     -1.67      0.00
   -4   14    1     -3.33      0.00
   -3   14    1     -6.73      0.00
   -2   14    1     -4.13      0.00
   -1   14    1      0.64      0.00
    0   14    1      4.53      0.00
    1   14    1      6.18      0.00
    2   14    1     -4.23      0.00
    3   14    1     -0.36      0.00
    4   14    1     -1.36      0.00
    5   14    1     -1.20      0.00
    6   14    1      0.21      0.00
    7   14    1      2.96      0.00
    8   14    1     -2.53      0.00
    9   14    1      4.05      0.00
   10   14    1     -2.25      0.00
   11   14    1      7.95      0.00
   12   14    1     -2.09      0.00
   -9   15    1     -0.78      0.00
   -8   15    1     -1.71      0.00
   -7   15    1      1.89      0.00
   -6   15    1     -3.53      0.00
   -5   15    1     -4.18      0.00
   -4   15    1     -2.53      0.00
   -3   15    1      5.02      0.00
   -2   15    1      1.80      0.00
   -1   15    1      7.54      0.00
    0   15    1      1.08      0.00
    1   15    1      0.41      0.00
    2   15    1     -1.59      0.00
    3   15    1      5.55      0.00
    4   15    1     -3.30      0.00
    5   15    1      3.63      0.00
    6   15    1     -2.76      0.00
    7   15    1      0.15      0.00
    8   15    1      0.24      0.00
    9   15    1     -1.65      0.00
   10   15    1      4.22      0.00
   11   15    1     -2.46      0.00
   -8   16    1      1.91      0.00
   -7   16    1      0.30      0.00
   -6   16    1     -2.95      0.00
   -5   16    1      2.12      0.00
   -4   16    1      3.22      0.00
   -3   16    1     -0.54      0.00
   -2   16    1      6.81      0.00
   -1   16    1     -1.15      0.00
    0   16    1     -0.75      0.00
    1   16    1     -6.44      0.00
    2   16    1      1.43      0.00
    3   16    1     -4.34      0.00
    4   16    1      3.40      0.00
    5   16    1     -0.05      0.00
    6   16    1      3.24      0.00
    7   16    1     -2.25      0.00
    8   16    1     -0.84      0.00
    9   16    1      1.17      0.00
   10   16    1     -2.98      0.00
   -6   17    1      2.81      0.00
   -5   17    1      2.33      0.00
   -4   17    1      1.61      0.00
   -3   17    1      3.21      0.00
   -2   17    1     -4.39      0.00
   -1   17    1     -4.22      0.00
    0   17    1     -4.17      0.00
    1   17    1      4.28      0.00
    2   17    1      3.26      0.00
    3   17    1      2.92      0.00
    4   17    1      3.66      0.00
    5   17    1     -1.05      0.00
    6   17    1      0.42      0.00
    7   17    1      2.14      0.00
    8   17    1      3.74      0.00
   -4   18    1      0.68      0.00
   -3   18    1     -3.89      0.00
   -2   18    1      1.90      0.00
   -1   18    1     -0.67      0.00
    0   18    1      6.97      0.00
    1   18    1      0.62      0.00
    2   18    1     -0.17      0.00
    3   18    1     -1.20      0.00
    4   18    1     -1.63      0.00
    5   18    1     -1.73      0.00
    6   18    1      2.50      0.00
   -5  -18    2      1.36      0.00
   -4  -18    2     -0.25      0.00
   -3  -18    2      2.94      0.00
   -2  -18    2     -4.01      0.00
   -1  -18    2      3.34      0.00
    0  -18    2    -10.14      0.00
    1  -18    2      0.76      0.00
    2  -18    2     -3.02      0.00
    3  -18    2     -3.19      0.00
   -7  -17    2     -2.08      0.00
   -6  -17    2      0.62      0.00
   -5  -17    2     -3.44      0.00
   -4  -17    2      6.39      0.00
   -3  -17    2     -4.20      0.00
   -2  -17    2     10.06      0.00
   -1  -17    2     -6.31      0.00
    0  -17    2      6.16      0.00
    1  -17    2      0.93      0.00
    2  -17    2      0.51      0.00
    3  -17    2      6.13      0.00
    4  -17    2      3.46      0.00
    5  -17    2      1.18      0.00
    6  -17    2      1.41      0.00
   -9  -16    2      0.80      0.00
   -8  -16    2     -2.54      0.00
   -7  -16    2      1.26      0.00
   -6  -16    2      0.48      0.00
   -5  -16    2      1.42      0.00
   -4  -16    2     -1.69      0.00
   -3  -16    2     -0.66      0.00
   -2  -16    2     -5.38      0.00
   -1  -16    2     -1.84      0.00
    0  -16    2     -0.37      0.00
    1  -16    2     -2.41      0.00
    2  -16    2      0.69      0.00
    3  -16    2     -2.09      0.00
    4  -16    2     -2.55      0.00
    5  -16    2     -4.54      0.00
    6  -16    2     -2.08      0.00
    7  -16    2     -3.77      0.00
    8  -16    2     -0.40      0.00
  -11  -15    2     -3.06      0.00
  -10  -15    2      2.60      0.00
   -9  -15    2     -1.94      0.00
   -8  -15    2     -3.72      0.00
   -7  -15    2     -0.15      0.00
   -6  -15    2     -6.17      0.00
   -5  -15    2      0.92      0.00
   -4  -15    2     -0.18      0.00
   -3  -15    2     -2.19      0.00
   -2  -15    2      3.29      0.00
   -1  -15    2     -0.78      0.00
    0  -15    2      2.05      0.00
    1  -15    2     -1.24      0.00
    2  -15    2      2.63      0.00
    3  -15    2      1.33      0.00
    4  -15    2     -3.58      0.00
    5  -15    2      0.26      0.00
    6  -15    2     -1.81      0.00
    7  -15    2      2.62      0.00
    8  -15    2      3.47      0.00
    9  -15    2      3.12      0.00
  -12  -14    2      1.69      0.00
  -11  -14    2      4.54      0.00
  -10  -14    2      1.43      0.00
   -9  -14    2     -1.59      0.00
   -8  -14    2      4.07      0.00
   -7  -14    2     -0.12      0.00
   -6  -14    2      2.46      0.00
   -5  -14    2      2.61      0.00
   -4  -14    2     -7.14      0.00
   -3  -14    2      3.82      0.00
   -2  -14    2     -5.91      0.00
   -1  -14    2      3.63      0.00
    0  -14    2     -1.45      0.00
    1  -14    2      5.68      0.00
    2  -14    2      2.70      0.00
    3  -14    2     -4.00      0.00
    4  -14    2      2.64      0.00
    5  -14    2      3.66      0.00
    6  -14    2      3.42      0.00
    7  -14    2      4.89      0.00
    8  -14    2     -0.04      0.00
    9  -14    2     -1.75      0.00
   10  -14    2      0.85      0.00
  -13  -13    2      3.25      0.00
  -12  -13    2     -4.72      0.00
  -11  -13    2     -1.24      0.00
  -10  -13    2     -5.06      0.00
   -9  -13    2      1.24      0.00
   -8  -13    2      1.34      0.00
   -7  -13    2     -1.65      0.00
   -6  -13    2      1.09      0.00
   -5  -13    2     -1.81      0.00
   -4  -13    2      2.68      0.00
   -3  -13    2      4.12      0.00
   -2  -13    2      4.92      0.00
   -1  -13    2      5.07      0.00
    0  -13    2      2.58      0.00
    1  -13    2      0.70      0.00
    2  -13    2     -8.42      0.00
    3  -13    2      1.73      0.00
    4  -13    2      3.09      0.00
    5  -13    2     -1.43      0.00
    6  -13    2     -0.37      0.00
    7  -13    2     -3.19      0.00
    8  -13    2     -7.77      0.00
    9  -13    2     -0.68      0.00
   10  -13    2     -2.70      0.00
   11  -13    2     -3.68      0.00
  -13  -12    2     -1.48      0.00
  -12  -12    2      0.19      0.00
  -11  -12    2      0.90      0.00
  -10  -12    2      0.35      0.00
   -9  -12    2     -0.17      0.00
   -8  -12    2     -1.80      0.00
   -7  -12    2     -2.33      0.00
   -6  -12    2      0.89      0.00
   -5  -12    2     -2.54      0.00
   -4  -12    2      3.62      0.00
   -3  -12    2     -1.95      0.00
   -2  -12    2     -0.73      0.00
   -1  -12    2     -3.89      0.00
    0  -12    2     -3.11      0.00
    1  -12    2     -3.12      0.00
    2  -12    2      2.28      0.00
    3  -12    2      5.73      0.00
    4  -12    2     -6.32      0.00
    5  -12    2      1.46      0.00
    6  -12    2     -2.19      0.00
    7  -12    2     -1.97      0.00
    8  -12    2      3.41      0.00
    9  -12    2      4.51      0.00
   10  -12    2     -2.97      0.00
   11  -12    2      3.36      0.00
   12  -12    2      3.28      0.00
  -14  -11    2     -0.65      0.00
  -13  -11    2     -5.63      0.00
  -12  -11    2     -0.03      0.00
  -11  -11    2     -5.19      0.00
  -10  -11    2     -0.68      0.00
   -9  -11    2      2.13      0.00
   -8  -11    2      2.00      0.00
   -7  -11    2      3.78      0.00
   -6  -11    2     10.13      0.00
   -5  -11    2      3.09      0.00
   -4  -11    2      5.33      0.00
   -3  -11    2     -0.22      0.00
   -2  -11    2     -2.19      0.00
   -1  -11    2     -2.95      0.00
    0  -11    2      0.71      0.00
    1  -11    2     -7.62      0.00
    2  -11    2      1.39      0.00
    3  -11    2    -10.34      0.00
    4  -11    2     -0.12      0.00
    5  -11    2     -2.14      0.00
    6  -11    2     -3.36      0.00
    7  -11    2      0.94      0.00
    8  -11    2      3.31      0.00
    9  -11    2     -0.86      0.00
   10  -11    2      4.34      0.00
   11  -11    2      1.47      0.00
   12  -11    2     -2.08      0.00
   13  -11    2     -3.14      0.00
  -15  -10    2     -2.84      0.00
  -14  -10    2     -0.55      0.00
  -13  -10    2     -0.71      0.00
  -12  -10    2      1.63      0.00
  -11  -10    2      0.96      0.00
  -10  -10    2      4.23      0.00
   -9  -10    2     -0.44      0.00
   -8  -10    2      0.38      0.00
   -7  -10    2      3.28      0.00
   -6  -10    2     -8.92      0.00
   -5  -10    2     -6.13      0.00
   -4  -10    2     -6.37      0.00
   -3  -10    2     -9.01      0.00
   -2  -10    2     -2.45      0.00
   -1  -10    2     -2.63      0.00
    0  -10    2     -4.80      0.00
    1  -10    2      1.90      0.00
    2  -10    2      1.98      0.00
    3  -10    2      1.29      0.00
    4  -10    2      5.79      0.00
    5  -10    2      0.04      0.00
    6  -10    2      4.01      0.00
    7  -10    2      4.01      0.00
    8  -10    2      0.77      0.00
    9  -10    2     -5.98      0.00
   10  -10    2     -1.04      0.00
   11  -10    2     -5.23      0.00
   12  -10    2     -1.02      0.00
   13  -10    2      2.01      0.00
   14  -10    2      0.82      0.00
  -15   -9    2      2.40      0.00
  -14   -9    2     -1.08      0.00
  -13   -9    2      5.48      0.00
  -12   -9    2     -1.59      0.00
  -11   -9    2      2.54      0.00
  -10   -9    2     -2.19      0.00
   -9   -9    2     -2.02      0.00
   -8   -9    2     -4.83      0.00
   -7   -9    2     -3.49      0.00
   -6   -9    2    -10.32      0.00
   -5   -9    2      7.88      0.00
   -4   -9    2     -7.36      0.00
   -3   -9    2      6.33      0.00
   -1   -9    2      6.28      0.00
    0   -9    2      4.42      0.00
    1   -9    2      9.39      0.00
    2   -9    2      0.56      0.00
    3   -9    2      1.06      0.00
    4   -9    2      1.11      0.00
    5   -9    2     -7.45      0.00
    6   -9    2      5.98      0.00
    7   -9    2     -6.17      0.00
    8   -9    2     -3.54      0.00
    9   -9    2      1.29      0.00
   10   -9    2      0.28      0.00
   11   -9    2      1.92      0.00
   12   -9    2      0.89      0.00
   13   -9    2      3.76      0.00
   14   -9    2     -1.52      0.00
  -16   -8    2     -0.94      0.00
  -15   -8    2      0.99      0.00
  -14   -8    2     -0.01      0.00
  -13   -8    2     -0.89      0.00
  -12   -8    2     -0.64      0.00
  -11   -8    2      1.68      0.00
  -10   -8    2     -1.16      0.00
   -9   -8    2     -0.31      0.00
   -8   -8    2      1.24      0.00
   -7   -8    2     -7.16      0.00
   -6   -8    2      6.53      0.00
   -5   -8    2     -3.67      0.00
   -4   -8    2      4.92      0.00
   -3   -8    2     13.32      0.00
   -2   -8    2      2.19      0.00
    0   -8    2     -1.43      0.00
    1   -8    2      2.79      0.00
    2   -8    2    -11.27      0.00
    3   -8    2      6.18      0.00
    4   -8    2    -10.55      0.00
    5   -8    2     11.54      0.00
    6   -8    2     -7.07      0.00
    7   -8    2     -0.31      0.00
    8   -8    2      0.43      0.00
    9   -8    2      2.63      0.00
   10   -8    2      3.10      0.00
   11   -8    2      2.99      0.00
   12   -8    2      4.00      0.00
   13   -8    2      0.52      0.00
   14   -8    2     -0.02      0.00
   15   -8    2     -1.46      0.00
  -16   -7    2      0.17      0.00
  -15   -7    2      0.87      0.00
  -14   -7    2     -0.66      0.00
  -13   -7    2      0.67      0.00
  -12   -7    2      4.34      0.00
  -11   -7    2     -1.89      0.00
  -10   -7    2      2.41      0.00
   -9   -7    2      1.92      0.00
   -8   -7    2      2.30      0.00
   -7   -7    2      6.55      0.00
   -6   -7    2     14.46      0.00
   -5   -7    2     -1.71      0.00
   -4   -7    2     15.43      0.00
   -3   -7    2    -14.66      0.00
   -2   -7    2     -1.85      0.00
   -1   -7    2    -11.89      0.00
    0   -7    2     -6.51      0.00
    1   -7    2    -10.12      0.00
    2   -7    2      0.03      0.00
    3   -7    2      3.22      0.00
    4   -7    2      0.75      0.00
    5   -7    2      4.24      0.00
    6   -7    2      0.00      0.00
    7   -7    2      6.20      0.00
    8   -7    2      4.14      0.00
    9   -7    2      3.02      0.00
   10   -7    2     -4.72      0.00
   11   -7    2     -3.51      0.00
   12   -7    2     -2.32      0.00
   13   -7    2     -8.25      0.00
   14   -7    2      1.39      0.00
   15   -7    2     -3.14      0.00
  -16   -6    2     -0.03      0.00
  -15   -6    2     -3.34      0.00
  -14   -6    2      5.17      0.00
  -13   -6    2     -1.06      0.00
  -12   -6    2     -1.69      0.00
  -11   -6    2     -1.08      0.00
  -10   -6    2      0.53      0.00
   -9   -6    2      1.03      0.00
   -8   -6    2     -1.72      0.00
   -7   -6    2      7.12      0.00
   -6   -6    2    -13.95      0.00
   -5   -6    2     -0.45      0.00
   -4   -6    2    -11.25      0.00
   -3   -6    2    -16.02      0.00
   -2   -6    2      5.53      0.00
   -1   -6    2    -16.57      0.00
    0   -6    2     16.79      0.00
    1   -6    2     -4.92      0.00
    2   -6    2     25.33      0.00
    3   -6    2     -9.70      0.00
    4   -6    2     14.35      0.00
    5   -6    2     -1.28      0.00
    6   -6    2     -1.83      0.00
    7   -6    2      5.01      0.00
    8   -6    2     -5.51      0.00
    9   -6    2     -6.42      0.00
   10   -6    2     -4.05      0.00
   11   -6    2      1.12      0.00
   12   -6    2     -8.93      0.00
   13   -6    2      4.11      0.00
   14   -6    2     -1.11      0.00
   15   -6    2     -2.64      0.00
   16   -6    2      3.47      0.00
  -17   -5    2      3.25      0.00
  -16   -5    2      2.16      0.00
  -15   -5    2      4.67      0.00
  -14   -5    2      0.03      0.00
  -13   -5    2     -1.34      0.00
  -12   -5    2      1.87      0.00
  -11   -5    2      1.19      0.00
  -10   -5    2      0.60      0.00
   -9   -5    2     -3.49      0.00
   -8   -5    2      4.05      0.00
   -7   -5    2     -6.42      0.00
   -6   -5    2     -6.78      0.00
   -5   -5    2      1.27      0.00
   -4   -5    2    -17.36      0.00
   -3   -5    2     13.20      0.00
   -2   -5    2     -8.77      0.00
   -1   -5    2     16.38      0.00
    0   -5    2     -4.02      0.00
    1   -5    2     10.78      0.00
    2   -5    2    -11.73      0.00
    3   -5    2     -8.00      0.00
    4   -5    2      2.87      0.00
    5   -5    2    -21.40      0.00
    6   -5    2     10.05      0.00
    7   -5    2    -13.86      0.00
    8   -5    2     -1.43      0.00
    9   -5    2      0.92      0.00
   10   -5    2      9.22      0.00
   11   -5    2      0.59      0.00
   12   -5    2     12.57      0.00
   13   -5    2      4.18      0.00
   14   -5    2     -0.73      0.00
   15   -5    2      7.82      0.00
   16   -5    2     -2.43      0.00
  -17   -4    2      0.16      0.00
  -16   -4    2      0.15      0.00
  -15   -4    2     -2.14      0.00
  -14   -4    2     -1.80      0.00
  -13   -4    2      2.74      0.00
  -12   -4    2     -2.26      0.00
  -11   -4    2     -0.09      0.00
  -10   -4    2     -4.98      0.00
   -9   -4    2      3.84      0.00
   -8   -4    2     -4.76      0.00
   -7   -4    2     -4.68      0.00
   -6   -4    2      6.44      0.00
   -5   -4    2      5.77      0.00
   -4   -4    2     11.99      0.00
   -3   -4    2     26.22      0.00
   -2   -4    2      3.84      0.00
   -1   -4    2     20.76      0.00
    0   -4    2     -1.68      0.00
    1   -4    2     -5.45      0.00
    2   -4    2    -18.45      0.00
    3   -4    2     11.42      0.00
    4   -4    2    -15.00      0.00
    5   -4    2      4.31      0.00
    6   -4    2     -0.74      0.00
    7   -4    2     -7.41      0.00
    8   -4    2      3.39      0.00
    9   -4    2      4.99      0.00
   10   -4    2     -5.01      0.00
   11   -4    2      1.30      0.00
   12   -4    2     -3.26      0.00
   13   -4    2     -6.85      0.00
   14   -4    2      2.22      0.00
   15   -4    2     -4.09      0.00
   16   -4    2     -4.82      0.00
  -17   -3    2      1.48      0.00
  -16   -3    2     -0.66      0.00
  -15   -3    2      1.42      0.00
  -14   -3    2     -3.61      0.00
  -13   -3    2     -2.08      0.00
  -12   -3    2     -0.57      0.00
  -11   -3    2      1.52      0.00
  -10   -3    2      3.76      0.00
   -9   -3    2      1.61      0.00
   -8   -3    2     -0.61      0.00
   -7   -3    2      5.87      0.00
   -6   -3    2     10.65      0.00
   -5   -3    2     -0.55      0.00
   -4   -3    2     11.93      0.00
   -3   -3    2     -8.36      0.00
   -2   -3    2    -20.44      0.00
   -1   -3    2     -4.56      0.00
    0   -3    2    -53.09      0.00
    1   -3    2      6.47      0.00
    2   -3    2     -5.45      0.00
    3   -3    2     13.86      0.00
    4   -3    2    -10.69      0.00
    5   -3    2     25.02      0.00
    6   -3    2    -11.73      0.00
    7   -3    2     12.40      0.00
    8   -3    2      9.29      0.00
    9   -3    2     -9.28      0.00
   10   -3    2      2.22      0.00
   11   -3    2     -4.34      0.00
   12   -3    2     -5.20      0.00
   13   -3    2      3.54      0.00
   14   -3    2     -1.09      0.00
   15   -3    2      0.39      0.00
   16   -3    2      7.30      0.00
   17   -3    2     -0.02      0.00
  -17   -2    2     -4.56      0.00
  -16   -2    2     -4.20      0.00
  -15   -2    2     -2.20      0.00
  -14   -2    2     -0.50      0.00
  -13   -2    2      4.27      0.00
  -12   -2    2     -2.67      0.00
  -11   -2    2     -2.28      0.00
  -10   -2    2      0.25      0.00
   -9   -2    2     -9.28      0.00
   -8   -2    2      0.70      0.00
   -7   -2    2     -0.28      0.00
   -6   -2    2     -5.55      0.00
   -5   -2    2     -6.89      0.00
   -4   -2    2      4.03      0.00
   -3   -2    2    -38.02      0.00
   -2   -2    2     30.14      0.00
   -1   -2    2    -37.89      0.00
    0   -2    2     47.18      0.00
    1   -2    2     19.70      0.00
    2   -2    2     31.51      0.00
    3   -2    2     -1.18      0.00
    4   -2    2     17.83      0.00
    5   -2    2     -2.25      0.00
    6   -2    2     -8.03      0.00
    7   -2    2     20.80      0.00
    8   -2    2    -16.93      0.00
    9   -2    2     14.39      0.00
   10   -2    2      1.94      0.00
   11   -2    2      3.33      0.00
   12   -2    2      6.32      0.00
   13   -2    2      1.69      0.00
   14   -2    2      0.27      0.00
   15   -2    2      1.16      0.00
   16   -2    2     -4.07      0.00
   17   -2    2     -1.46      0.00
  -17   -1    2     -0.70      0.00
  -16   -1    2      7.86      0.00
  -15   -1    2     -1.53      0.00
  -14   -1    2      5.44      0.00
  -13   -1    2     -5.10      0.00
  -12   -1    2      0.19      0.00
  -11   -1    2      2.69      0.00
  -10   -1    2     -4.35      0.00
   -9   -1    2      3.05      0.00
   -8   -1    2      8.91      0.00
   -7   -1    2     -2.88      0.00
   -6   -1    2     -5.61      0.00
   -5   -1    2     -5.69      0.00
   -4   -1    2    -22.47      0.00
   -3   -1    2      4.33      0.00
   -2   -1    2     18.38      0.00
   -1   -1    2     -0.17      0.00
    0   -1    2     89.97      0.00
    1   -1    2    -14.80      0.00
    2   -1    2     14.13      0.00
    3   -1    2    -12.64      0.00
    4   -1    2      3.72      0.00
    5   -1    2    -18.24      0.00
    6   -1    2     24.45      0.00
    7   -1    2    -20.77      0.00
    8   -1    2      5.87      0.00
    9   -1    2     -8.22      0.00
   10   -1    2     -8.97      0.00
   11   -1    2      0.84      0.00
   12   -1    2     -2.38      0.00
   13   -1    2      0.86      0.00
   14   -1    2     -0.32      0.00
   15   -1    2      1.96      0.00
   16   -1    2      2.20      0.00
   17   -1    2      1.12      0.00
  -17    0    2      5.14      0.00
  -16    0    2     -6.29      0.00
  -15    0    2      3.98      0.00
  -14    0    2     -0.32      0.00
  -13    0    2      1.87      0.00
  -12    0    2      8.29      0.00
  -11    0    2     -1.04      0.00
  -10    0    2      2.10      0.00
   -9    0    2      8.21      0.00
   -8    0    2     -8.76      0.00
   -7    0    2      0.17      0.00
   -6    0    2     -0.78      0.00
   -5    0    2     20.80      0.00
   -4    0    2      5.28      0.00
   -3    0    2     62.08      0.00
   -2    0    2    -13.35      0.00
   -1    0    2     70.11      0.00
    0    0    2    -60.43      0.00
    1    0    2    -69.25      0.00
    2    0    2    -17.04      0.00
    3    0    2    -40.92      0.00
    4    0    2     -7.91      0.00
    5    0    2     -9.95      0.00
    6    0    2    -10.70      0.00
    7    0    2    -13.88      0.00
    8    0    2      0.29      0.00
    9    0    2     -1.96      0.00
   10    0    2      8.60      0.00
   11    0    2      0.25      0.00
   12    0    2      2.78      0.00
   13    0    2     -1.22      0.00
   14    0    2      1.58      0.00
   15    0    2      2.33      0.00
   16    0    2     -2.63      0.00
   17    0    2     -1.22      0.00
  -17    1    2      0.06      0.00
  -16    1    2      3.81      0.00
  -15    1    2     -0.82      0.00
  -14    1    2     -1.54      0.00
  -13    1    2     -5.79      0.00
  -12    1    2     -4.55      0.00
  -11    1    2    -10.04      0.00
  -10    1    2      2.61      0.00
   -9    1    2     -5.67      0.00
   -8    1    2     -3.20      0.00
   -7    1    2      1.43      0.00
   -6    1    2      5.60      0.00
   -5    1    2    -13.91      0.00
   -4    1    2      4.97      0.00
   -3    1    2    -37.62      0.00
   -2    1    2    -57.07      0.00
   -1    1    2    -59.12      0.00
    0    1    2   -137.72      0.00
    1    1    2     63.45      0.00
    2    1    2    -47.89      0.00
    3    1    2     39.15      0.00
    4    1    2     -5.49      0.00
    5    1    2     13.79      0.00
    6    1    2      2.95      0.00
    7    1    2     11.42      0.00
    8    1    2     16.52      0.00
    9    1    2     -1.27      0.00
   10    1    2      3.31      0.00
   11    1    2     -1.40      0.00
   12    1    2     -3.39      0.00
   13    1    2     -4.60      0.00
   14    1    2     -2.34      0.00
   15    1    2    -14.47      0.00
   16    1    2     -1.97      0.00
   17    1    2     -1.99      0.00
  -17    2    2     -4.28      0.00
  -16    2    2     -4.16      0.00
  -15    2    2     -1.20      0.00
  -14    2    2     -6.91      0.00
  -13    2    2      7.49      0.00
  -12    2    2     -4.52      0.00
  -11    2    2      9.21      0.00
  -10    2    2      3.66      0.00
   -9    2    2     -2.05      0.00
   -8    2    2      4.29      0.00
   -7    2    2      3.86      0.00
   -6    2    2      0.11      0.00
   -5    2    2     -0.46      0.00
   -4    2    2      5.22      0.00
   -3    2    2    -18.01      0.00
   -2    2    2     33.59      0.00
   -1    2    2     -0.59      0.00
    0    2    2    115.68      0.00
    1    2    2     23.64      0.00
    2    2    2     41.28      0.00
    3    2    2     19.74      0.00
    4    2    2     15.52      0.00
    5    2    2     20.48      0.00
    6    2    2     -3.73      0.00
    7    2    2     15.62      0.00
    8    2    2    -19.07      0.00
    9    2    2      4.36      0.00
   10    2    2     -4.32      0.00
   11    2    2     -2.10      0.00
   12    2    2     -2.93      0.00
   13    2    2      1.76      0.00
   14    2    2     -1.49      0.00
   15    2    2      8.86      0.00
   16    2    2      5.92      0.00
   17    2    2      1.42      0.00
  -17    3    2     -1.51      0.00
  -16    3    2     -0.12      0.00
  -15    3    2     -1.54      0.00
  -14    3    2      3.62      0.00
  -13    3    2      2.06      0.00
  -12    3    2      0.38      0.00
  -11    3    2      9.32      0.00
  -10    3    2     -7.47      0.00
   -9    3    2      2.84      0.00
   -8    3    2      4.22      0.00
   -7    3    2     -3.26      0.00
   -6    3    2     -0.49      0.00
   -5    3    2     -1.72      0.00
   -4    3    2     -1.82      0.00
   -3    3    2     -1.82      0.00
   -2    3    2     19.68      0.00
   -1    3    2     17.08      0.00
    0    3    2     17.57      0.00
    1    3    2     -4.55      0.00
    2    3    2     -3.40      0.00
    3    3    2      1.48      0.00
    4    3    2     -9.82      0.00
    5    3    2    -19.07      0.00
    6    3    2     -1.51      0.00
    7    3    2    -10.10      0.00
    8    3    2     -3.67      0.00
    9    3    2      3.07      0.00
   10    3    2     -7.26      0.00
   11    3    2     -1.24      0.00
   12    3    2      3.77      0.00
   13    3    2      1.61      0.00
   14    3    2      1.76      0.00
   15    3    2      0.56      0.00
   16    3    2     -3.21      0.00
   17    3    2     -0.93      0.00
  -17    4    2      4.38      0.00
  -16    4    2      6.89      0.00
  -15    4    2      1.64      0.00
  -14    4    2      8.36      0.00
  -13    4    2     -3.81      0.00
  -12    4    2      5.98      0.00
  -11    4    2     -8.73      0.00
  -10    4    2     -2.83      0.00
   -9    4    2     -0.65      0.00
   -8    4    2     -5.08      0.00
   -7    4    2     -7.00      0.00
   -6    4    2     -6.41      0.00
   -5    4    2      6.01      0.00
   -4    4    2    -10.62      0.00
   -3    4    2     24.84      0.00
   -2    4    2      9.23      0.00
   -1    4    2      0.35      0.00
    0    4    2      5.90      0.00
    1    4    2    -38.86      0.00
    2    4    2      9.87      0.00
    3    4    2    -30.65      0.00
    4    4    2     -9.25      0.00
    5    4    2     -7.35      0.00
    6    4    2     -1.69      0.00
    7    4    2     -5.25      0.00
    8    4    2      3.96      0.00
    9    4    2     -1.14      0.00
   10    4    2     -1.53      0.00
   11    4    2      6.19      0.00
   12    4    2     -0.54      0.00
   13    4    2     -0.61      0.00
   14    4    2      1.84      0.00
   15    4    2      3.37      0.00
   17    4    2      6.90      0.00
  -16    5    2     -4.57      0.00
  -15    5    2     -2.74      0.00
  -14    5    2     -4.18      0.00
  -13    5    2     -6.49      0.00
  -12    5    2     -1.38      0.00
  -11    5    2     -7.23      0.00
  -10    5    2      5.63      0.00
   -9    5    2      1.42      0.00
   -8    5    2     -0.65      0.00
   -7    5    2      8.03      0.00
   -6    5    2     11.81      0.00
   -5    5    2     -1.16      0.00
   -4    5    2     13.50      0.00
   -3    5    2      2.01      0.00
   -2    5    2    -23.71      0.00
   -1    5    2     -5.58      0.00
    0    5    2    -39.72      0.00
    1    5    2     -4.73      0.00
    2    5    2     -9.78      0.00
    3    5    2     -9.50      0.00
    4    5    2     11.43      0.00
    5    5    2      3.14      0.00
    6    5    2     11.35      0.00
    7    5    2     -4.83      0.00
    8    5    2     12.18      0.00
    9    5    2     -9.77      0.00
   10    5    2     11.92      0.00
   11    5    2     -1.90      0.00
   12    5    2      0.19      0.00
   13    5    2      1.84      0.00
   14    5    2      1.19      0.00
   15    5    2     -3.20      0.00
   16    5    2      3.93      0.00
  -16    6    2      0.04      0.00
  -15    6    2      2.85      0.00
  -14    6    2     -2.52      0.00
  -13    6    2      6.86      0.00
  -12    6    2     -2.48      0.00
  -11    6    2      4.31      0.00
  -10    6    2      1.55      0.00
   -9    6    2     -2.42      0.00
   -8    6    2      1.24      0.00
   -7    6    2      2.92      0.00
   -6    6    2    -10.40      0.00
   -5    6    2     -1.95      0.00
   -4    6    2    -12.03      0.00
   -3    6    2    -16.66      0.00
   -2    6    2    -21.48      0.00
   -1    6    2      1.09      0.00
    0    6    2    -17.92      0.00
    1    6    2     30.00      0.00
    2    6    2     -7.31      0.00
    3    6    2     26.17      0.00
    4    6    2      5.95      0.00
    5    6    2     12.76      0.00
    6    6    2     -8.91      0.00
    7    6    2     10.30      0.00
    8    6    2     -8.90      0.00
    9    6    2      4.39      0.00
   10    6    2     -0.28      0.00
   11    6    2     -3.84      0.00
   12    6    2     -0.25      0.00
   13    6    2     -2.49      0.00
   14    6    2     -5.73      0.00
   15    6    2     -3.17      0.00
   16    6    2     -3.18      0.00
  -16    7    2     -1.90      0.00
  -15    7    2      2.08      0.00
  -14    7    2      2.03      0.00
  -13    7    2      1.84      0.00
  -12    7    2      1.94      0.00
  -11    7    2      7.16      0.00
  -10    7    2      1.44      0.00
   -9    7    2     -1.07      0.00
   -8    7    2      3.29      0.00
   -7    7    2     -9.70      0.00
   -6    7    2      1.99      0.00
   -5    7    2     -3.30      0.00
   -4    7    2      5.84      0.00
   -3    7    2     -7.60      0.00
   -2    7    2     37.35      0.00
   -1    7    2     -2.29      0.00
    0    7    2     41.21      0.00
    1    7    2      8.83      0.00
    2    7    2     13.85      0.00
    3    7    2     10.49      0.00
    4    7    2     -4.20      0.00
    5    7    2     -6.11      0.00
    6    7    2     -2.28      0.00
    7    7    2     -0.94      0.00
    8    7    2     -4.55      0.00
    9    7    2      4.87      0.00
   10    7    2     -6.27      0.00
   11    7    2      0.94      0.00
   12    7    2      0.06      0.00
   13    7    2      1.62      0.00
   14    7    2      0.73      0.00
   15    7    2      2.93      0.00
   16    7    2     -1.46      0.00
  -15    8    2      0.30      0.00
  -14    8    2     -5.39      0.00
  -13    8    2     -1.72      0.00
  -12    8    2     -1.34      0.00
  -11    8    2     -4.24      0.00
  -10    8    2     -6.44      0.00
   -9    8    2      2.47      0.00
   -8    8    2     -1.60      0.00
   -7    8    2      4.81      0.00
   -6    8    2      2.82      0.00
   -5    8    2      6.65      0.00
   -4    8    2     -3.31      0.00
   -3    8    2     24.83      0.00
   -2    8    2     -5.71      0.00
   -1    8    2      4.96      0.00
    0    8    2     -1.18      0.00
    1    8    2    -19.20      0.00
    2    8    2     -8.88      0.00
    3    8    2    -19.97      0.00
    4    8    2    -10.00      0.00
    6    8    2      5.33      0.00
    7    8    2     -1.72      0.00
    8    8    2      5.81      0.00
    9    8    2      1.04      0.00
   10    8    2     -0.63      0.00
   11    8    2      2.94      0.00
   12    8    2      1.06      0.00
   13    8    2     -2.99      0.00
   14    8    2      4.47      0.00
   15    8    2      1.46      0.00
   16    8    2      4.29      0.00
  -15    9    2     -3.20      0.00
  -14    9    2      6.89      0.00
  -13    9    2     -0.18      0.00
  -12    9    2      0.28      0.00
  -11    9    2     -1.78      0.00
  -10    9    2      1.51      0.00
   -9    9    2      2.92      0.00
   -8    9    2     -2.98      0.00
   -7    9    2      2.71      0.00
   -6    9    2     -1.44      0.00
   -5    9    2     -0.77      0.00
   -4    9    2      7.00      0.00
   -3    9    2     -6.95      0.00
   -2    9    2     -7.33      0.00
   -1    9    2     -2.94      0.00
    0    9    2     -9.55      0.00
    1    9    2     -8.17      0.00
    2    9    2      1.59      0.00
    4    9    2      2.81      0.00
    6    9    2     -0.27      0.00
    7    9    2     -3.22      0.00
    8    9    2      3.51      0.00
    9    9    2     -6.36      0.00
   10    9    2      2.30      0.00
   11    9    2     -1.08      0.00
   12    9    2     -1.92      0.00
   13    9    2      3.18      0.00
   14    9    2      1.33      0.00
  -14   10    2     -2.70      0.00
  -13   10    2     -2.94      0.00
  -12   10    2      1.57      0.00
  -11   10    2     -2.25      0.00
  -10   10    2      6.06      0.00
   -9   10    2     -5.05      0.00
   -8   10    2      2.40      0.00
   -7   10    2     -0.94      0.00
   -6   10    2     -0.63      0.00
   -5   10    2     -0.56      0.00
   -4   10    2     -2.51      0.00
   -3   10    2     -6.54      0.00
   -2   10    2     -3.69      0.00
   -1   10    2      0.81      0.00
    0   10    2     -5.25      0.00
    1   10    2      7.61      0.00
    2   10    2      4.73      0.00
    3   10    2     -0.62      0.00
    4   10    2      5.58      0.00
    5   10    2     -2.03      0.00
    6   10    2      0.18      0.00
    7   10    2      6.25      0.00
    8   10    2     -0.18      0.00
    9   10    2      2.35      0.00
   10   10    2      2.14      0.00
   11   10    2      0.96      0.00
   12   10    2      0.89      0.00
   13   10    2      1.50      0.00
   14   10    2     -2.95      0.00
  -13   11    2      3.44      0.00
  -12   11    2     -2.72      0.00
  -11   11    2      7.16      0.00
  -10   11    2     -6.60      0.00
   -9   11    2      2.31      0.00
   -8   11    2     -1.91      0.00
   -7   11    2     -3.29      0.00
   -6   11    2      0.40      0.00
   -5   11    2      0.43      0.00
   -4   11    2     -3.25      0.00
   -3   11    2     -0.76      0.00
   -2   11    2      5.68      0.00
   -1   11    2      2.31      0.00
    0   11    2      2.10      0.00
    1   11    2      8.22      0.00
    2   11    2     -5.56      0.00
    3   11    2      5.38      0.00
    4   11    2      1.43      0.00
    5   11    2      2.28      0.00
    6   11    2     -1.31      0.00
    7   11    2     -3.81      0.00
    8   11    2     -8.10      0.00
    9   11    2     -1.08      0.00
   10   11    2      0.43      0.00
   11   11    2      1.03      0.00
   12   11    2      1.37      0.00
   13   11    2      3.12      0.00
   14   11    2     -3.24      0.00
  -13   12    2     -0.73      0.00
  -12   12    2      1.46      0.00
  -11   12    2     -4.93      0.00
  -10   12    2     -0.90      0.00
   -9   12    2     -1.40      0.00
   -8   12    2     -0.74      0.00
   -7   12    2      2.84      0.00
   -6   12    2      0.62      0.00
   -5   12    2     -2.17      0.00
   -4   12    2     -1.31      0.00
   -3   12    2      6.85      0.00
   -2   12    2      0.84      0.00
   -1   12    2      0.47      0.00
    0   12    2      3.31      0.00
    1   12    2     -2.88      0.00
    2   12    2     -0.08      0.00
    3   12    2      2.22      0.00
    4   12    2     -6.44      0.00
    5   12    2     -2.66      0.00
    6   12    2     -5.16      0.00
    7   12    2     -0.64      0.00
    8   12    2      3.27      0.00
    9   12    2      3.81      0.00
   10   12    2     -1.77      0.00
   11   12    2     -2.84      0.00
   12   12    2      0.38      0.00
   13   12    2     -8.14      0.00
   14   12    2      2.32      0.00
  -12   13    2     -0.11      0.00
  -11   13    2      1.26      0.00
  -10   13    2      5.18      0.00
   -9   13    2      2.13      0.00
   -8   13    2      3.52      0.00
   -7   13    2      0.25      0.00
   -6   13    2      1.10      0.00
   -5   13    2     -0.96      0.00
   -4   13    2      7.10      0.00
   -3   13    2     -1.73      0.00
   -2   13    2     -0.94      0.00
   -1   13    2     -5.57      0.00
    0   13    2     -2.47      0.00
    1   13    2    -10.64      0.00
    2   13    2      1.84      0.00
    3   13    2     -7.05      0.00
    4   13    2      5.94      0.00
    5   13    2      1.21      0.00
    6   13    2      7.90      0.00
    7   13    2      3.91      0.00
    8   13    2      2.60      0.00
    9   13    2     -1.41      0.00
   10   13    2     -0.26      0.00
   11   13    2      0.20      0.00
   12   13    2     -0.78      0.00
   13   13    2     -0.46      0.00
  -11   14    2     -0.66      0.00
  -10   14    2     -1.61      0.00
   -9   14    2     -2.59      0.00
   -8   14    2      1.50      0.00
   -7   14    2     -3.49      0.00
   -6   14    2     -1.65      0.00
   -5   14    2      0.50      0.00
   -4   14    2     -0.92      0.00
   -3   14    2     -4.46      0.00
   -2   14    2     -4.12      0.00
   -1   14    2     -2.40      0.00
    0   14    2     -1.98      0.00
    1   14    2      6.98      0.00
    2   14    2      5.34      0.00
    3   14    2      4.51      0.00
    4   14    2      2.16      0.00
    5   14    2      0.54      0.00
    6   14    2     -2.88      0.00
    7   14    2      0.99      0.00
    8   14    2     -4.32      0.00
    9   14    2      0.36      0.00
   10   14    2     -2.68      0.00
   11   14    2     -0.78      0.00
   12   14    2     -3.91      0.00
   -9   15    2      0.70      0.00
   -8   15    2     -3.84      0.00
   -7   15    2      0.40      0.00
   -6   15    2      1.98      0.00
   -5   15    2      2.41      0.00
   -4   15    2     -4.23      0.00
   -3   15    2     -2.63      0.00
   -2   15    2     -0.28      0.00
   -1   15    2      5.97      0.00
    0   15    2      4.20      0.00
    1   15    2      3.37      0.00
    2   15    2     -5.19      0.00
    3   15    2     -2.87      0.00
    4   15    2     -4.64      0.00
    5   15    2     -4.84      0.00
    6   15    2      0.60      0.00
    7   15    2     -4.28      0.00
    8   15    2      2.59      0.00
    9   15    2     -1.24      0.00
   10   15    2      2.82      0.00
   11   15    2     -1.48      0.00
   -8   16    2     -0.53      0.00
   -7   16    2      2.87      0.00
   -6   16    2     -1.69      0.00
   -5   16    2     -1.03      0.00
   -4   16    2     -0.99      0.00
   -3   16    2      4.43      0.00
   -2   16    2      7.16      0.00
   -1   16    2     -0.32      0.00
    0   16    2     -0.65      0.00
    1   16    2     -0.72      0.00
    2   16    2     -3.96      0.00
    3   16    2      1.33      0.00
    4   16    2     -4.32      0.00
    5   16    2     -0.59      0.00
    6   16    2      0.75      0.00
    7   16    2     -2.97      0.00
    8   16    2     -0.49      0.00
    9   16    2     -0.41      0.00
   10   16    2     -4.24      0.00
   -6   17    2     -0.79      0.00
   -5   17    2     -0.90      0.00
   -4   17    2      0.97      0.00
   -3   17    2      2.48      0.00
   -2   17    2     -4.51      0.00
   -1   17    2     -0.69      0.00
    0   17    2     -3.00      0.00
    1   17    2     -3.51      0.00
    2   17    2     -2.66      0.00
    3   17    2      2.73      0.00
    4   17    2     -0.76      0.00
    5   17    2      8.59      0.00
    6   17    2     -3.58      0.00
    7   17    2      2.14      0.00
    8   17    2      0.13      0.00
   -4   18    2      0.76      0.00
   -3   18    2     -1.98      0.00
   -2   18    2     -1.30      0.00
   -1   18    2     -0.95      0.00
    0   18    2      1.25      0.00
    1   18    2      1.97      0.00
    2   18    2      7.98      0.00
    3   18    2      0.55      0.00
    4   18    2      7.55      0.00
    5   18    2     -1.72      0.00
    6   18    2      2.27      0.00
   -4  -18    3     -1.07      0.00
   -3  -18    3      1.68      0.00
   -2  -18    3      5.10      0.00
   -1  -18    3      7.29      0.00
    0  -18    3      3.16      0.00
    1  -18    3      7.57      0.00
    2  -18    3     -1.05      0.00
   -7  -17    3      1.66      0.00
   -6  -17    3      1.47      0.00
   -5  -17    3      2.77      0.00
   -4  -17    3      1.35      0.00
   -3  -17    3      0.96      0.00
   -2  -17    3      0.68      0.00
   -1  -17    3     -6.87      0.00
    0  -17    3      2.54      0.00
    1  -17    3     -6.37      0.00
    2  -17    3     -4.14      0.00
    3  -17    3     -0.79      0.00
    4  -17    3     -4.46      0.00
    5  -17    3      2.49      0.00
   -9  -16    3      1.46      0.00
   -8  -16    3      0.96      0.00
   -7  -16    3      2.97      0.00
   -6  -16    3     -3.52      0.00
   -5  -16    3      5.00      0.00
   -4  -16    3     -1.82      0.00
   -3  -16    3      3.83      0.00
   -2  -16    3     -6.20      0.00
   -1  -16    3      4.36      0.00
    0  -16    3     -5.57      0.00
    1  -16    3     -6.41      0.00
    2  -16    3      2.89      0.00
    3  -16    3     -3.32      0.00
    4  -16    3      4.57      0.00
    5  -16    3     -0.13      0.00
    6  -16    3      0.10      0.00
    7  -16    3     -0.67      0.00
  -10  -15    3      1.49      0.00
   -9  -15    3     -2.98      0.00
   -8  -15    3      5.56      0.00
   -7  -15    3     -3.76      0.00
   -6  -15    3      4.01      0.00
   -5  -15    3     -3.52      0.00
   -4  -15    3     -3.03      0.00
   -3  -15    3     -6.09      0.00
   -2  -15    3      4.02      0.00
   -1  -15    3     -4.44      0.00
    0  -15    3     -0.38      0.00
    1  -15    3      5.01      0.00
    2  -15    3      0.20      0.00
    3  -15    3      3.31      0.00
    4  -15    3      0.72      0.00
    5  -15    3      0.63      0.00
    6  -15    3     -0.64      0.00
    7  -15    3     -0.60      0.00
    8  -15    3     -0.85      0.00
    9  -15    3     -1.30      0.00
  -11  -14    3      2.84      0.00
  -10  -14    3     -2.38      0.00
   -9  -14    3      2.97      0.00
   -8  -14    3     -2.97      0.00
   -7  -14    3     -5.85      0.00
   -6  -14    3      0.87      0.00
   -5  -14    3     -3.32      0.00
   -4  -14    3      0.41      0.00
   -3  -14    3      5.70      0.00
   -2  -14    3     -4.73      0.00
   -1  -14    3     -1.38      0.00
    0  -14    3      1.48      0.00
    1  -14    3      1.76      0.00
    2  -14    3      1.61      0.00
    3  -14    3      3.99      0.00
    4  -14    3      0.45      0.00
    5  -14    3     -2.40      0.00
    6  -14    3     -0.89      0.00
    7  -14    3      1.69      0.00
    8  -14    3      1.23      0.00
    9  -14    3      3.11      0.00
   10  -14    3     -1.11      0.00
  -12  -13    3      2.47      0.00
  -11  -13    3      1.57      0.00
  -10  -13    3     -1.15      0.00
   -9  -13    3      2.34      0.00
   -8  -13    3     -9.06      0.00
   -7  -13    3      6.51      0.00
   -6  -13    3     -3.05      0.00
   -5  -13    3     -2.69      0.00
   -4  -13    3      4.32      0.00
   -3  -13    3     -4.95      0.00
   -2  -13    3      2.45      0.00
   -1  -13    3      6.21      0.00
    0  -13    3      8.20      0.00
    1  -13    3      3.13      0.00
    2  -13    3      3.71      0.00
    3  -13    3     -0.63      0.00
    4  -13    3     -5.89      0.00
    5  -13    3      0.88      0.00
    6  -13    3      3.95      0.00
    7  -13    3     -0.71      0.00
    8  -13    3      1.60      0.00
    9  -13    3     -0.77      0.00
   10  -13    3      2.76      0.00
   11  -13    3     -0.02      0.00
  -13  -12    3     -0.09      0.00
  -12  -12    3      0.88      0.00
  -11  -12    3     -4.21      0.00
  -10  -12    3      3.72      0.00
   -9  -12    3     -2.88      0.00
   -8  -12    3      4.07      0.00
   -7  -12    3      3.77      0.00
   -6  -12    3     -3.00      0.00
   -5  -12    3      7.12      0.00
   -4  -12    3      1.70      0.00
   -3  -12    3      3.12      0.00
   -2  -12    3      4.69      0.00
   -1  -12    3      7.65      0.00
    0  -12    3     -6.57      0.00
    1  -12    3     -2.82      0.00
    2  -12    3     -2.64      0.00
    3  -12    3     -9.83      0.00
    4  -12    3      5.79      0.00
    5  -12    3      2.09      0.00
    6  -12    3     -3.26      0.00
    7  -12    3     -3.17      0.00
    8  -12    3     -0.59      0.00
    9  -12    3     -2.93      0.00
   10  -12    3     -2.35      0.00
   11  -12    3      0.07      0.00
   12  -12    3      0.59      0.00
  -14  -11    3      1.58      0.00
  -13  -11    3      0.49      0.00
  -12  -11    3     -0.93      0.00
  -11  -11    3      2.74      0.00
  -10  -11    3     -1.35      0.00
   -9  -11    3     -0.93      0.00
   -8  -11    3      4.14      0.00
   -7  -11    3     -3.92      0.00
   -6  -11    3      2.33      0.00
   -5  -11    3      1.51      0.00
   -4  -11    3     -5.18      0.00
   -3  -11    3      0.70      0.00
   -2  -11    3     -0.33      0.00
   -1  -11    3    -11.56      0.00
    0  -11    3     -6.39      0.00
    1  -11    3      1.08      0.00
    2  -11    3     -8.52      0.00
    3  -11    3      6.57      0.00
    4  -11    3      3.10      0.00
    5  -11    3     -4.54      0.00
    6  -11    3      3.59      0.00
    7  -11    3      6.08      0.00
    8  -11    3     -1.86      0.00
    9  -11    3      1.57      0.00
   10  -11    3      0.50      0.00
   11  -11    3     -0.63      0.00
   12  -11    3     -1.41      0.00
   13  -11    3     -1.88      0.00
  -15  -10    3     -1.21      0.00
  -14  -10    3     -0.25      0.00
  -13  -10    3     -3.11      0.00
  -12  -10    3     -2.02      0.00
  -11  -10    3     -0.79      0.00
  -10  -10    3     -1.64      0.00
   -9  -10    3      1.97      0.00
   -8  -10    3      1.31      0.00
   -7  -10    3     -2.53      0.00
   -6  -10    3      6.34      0.00
   -5  -10    3     -2.73      0.00
   -4  -10    3      1.61      0.00
   -3  -10    3     -0.63      0.00
   -2  -10    3     -4.51      0.00
   -1  -10    3     -5.14      0.00
    0  -10    3      7.78      0.00
    1  -10    3     -3.21      0.00
    2  -10    3      6.51      0.00
    3  -10    3      8.59      0.00
    4  -10    3     -4.08      0.00
    5  -10    3      3.72      0.00
    6  -10    3     -1.07      0.00
    7  -10    3     -6.65      0.00
    8  -10    3     -1.72      0.00
    9  -10    3      3.13      0.00
   10  -10    3     -0.30      0.00
   11  -10    3      0.41      0.00
   12  -10    3     -2.48      0.00
   13  -10    3     -1.28      0.00
   14  -10    3      2.07      0.00
  -15   -9    3      1.24      0.00
  -14   -9    3     -5.20      0.00
  -13   -9    3     -1.17      0.00
  -12   -9    3      0.32      0.00
  -11   -9    3     -2.70      0.00
  -10   -9    3      0.89      0.00
   -9   -9    3      0.83      0.00
   -8   -9    3     -3.53      0.00
   -7   -9    3      1.01      0.00
   -6   -9    3     -0.90      0.00
   -5   -9    3     -9.22      0.00
   -4   -9    3      2.59      0.00
   -3   -9    3     -2.91      0.00
   -2   -9    3     -2.80      0.00
   -1   -9    3      8.55      0.00
    0   -9    3      5.03      0.00
    1   -9    3     -0.49      0.00
    2   -9    3     11.34      0.00
    3   -9    3    -10.35      0.00
    4   -9    3     -2.94      0.00
    5   -9    3     -3.81      0.00
    6   -9    3     -4.63      0.00
    7   -9    3     -1.72      0.00
    8   -9    3      4.68      0.00
    9   -9    3     -2.14      0.00
   10   -9    3     -1.62      0.00
   11   -9    3      1.55      0.00
   12   -9    3      1.77      0.00
   13   -9    3      5.52      0.00
   14   -9    3      1.77      0.00
  -16   -8    3      0.95      0.00
  -15   -8    3     -1.45      0.00
  -14   -8    3      0.62      0.00
  -13   -8    3      4.06      0.00
  -12   -8    3     -0.81      0.00
  -11   -8    3     -0.50      0.00
  -10   -8    3      0.25      0.00
   -9   -8    3     -3.16      0.00
   -8   -8    3     -3.54      0.00
   -7   -8    3      6.73      0.00
   -6   -8    3     -3.87      0.00
   -5   -8    3      6.76      0.00
   -4   -8    3      7.48      0.00
   -3   -8    3     -5.53      0.00
   -2   -8    3     10.22      0.00
   -1   -8    3      3.96      0.00
    0   -8    3     -7.09      0.00
    1   -8    3      1.24      0.00
    2   -8    3    -10.84      0.00
    3   -8    3    -12.97      0.00
    4   -8    3     -1.64      0.00
    5   -8    3     -2.14      0.00
    6   -8    3     -3.80      0.00
    7   -8    3      9.95      0.00
    8   -8    3      1.02      0.00
    9   -8    3     -2.15      0.00
   10   -8    3      5.60      0.00
   11   -8    3     -2.76      0.00
   12   -8    3      0.62      0.00
   13   -8    3     -0.03      0.00
   14   -8    3     -5.77      0.00
   15   -8    3      2.04      0.00
  -16   -7    3     -0.59      0.00
  -15   -7    3     -0.90      0.00
  -14   -7    3      2.30      0.00
  -13   -7    3     -2.04      0.00
  -12   -7    3     -1.83      0.00
  -11   -7    3      4.19      0.00
  -10   -7    3     -0.07      0.00
   -9   -7    3      1.17      0.00
   -8   -7    3      4.89      0.00
   -7   -7    3     -0.67      0.00
   -6   -7    3     -9.25      0.00
   -5   -7    3     14.45      0.00
   -4   -7    3    -13.76      0.00
   -3   -7    3     11.46      0.00
   -2   -7    3      0.99      0.00
   -1   -7    3     -8.40      0.00
    0   -7    3     -7.40      0.00
    1   -7    3     -0.24      0.00
    2   -7    3    -14.97      0.00
    3   -7    3     12.82      0.00
    4   -7    3      5.90      0.00
    5   -7    3      3.93      0.00
    6   -7    3     13.92      0.00
    7   -7    3      0.44      0.00
    8   -7    3     -4.64      0.00
    9   -7    3      4.26      0.00
   10   -7    3     -2.13      0.00
   11   -7    3      0.85      0.00
   12   -7    3      1.22      0.00
   13   -7    3     -2.89      0.00
   14   -7    3     -1.58      0.00
   15   -7    3      3.06      0.00
  -16   -6    3     -1.01      0.00
  -15   -6    3     -1.38      0.00
  -14   -6    3      1.00      0.00
  -13   -6    3     -1.66      0.00
  -12   -6    3      4.44      0.00
  -11   -6    3      1.10      0.00
  -10   -6    3     -0.17      0.00
   -9   -6    3     -0.87      0.00
   -8   -6    3      2.51      0.00
   -7   -6    3    -10.37      0.00
   -6   -6    3      8.67      0.00
   -5   -6    3    -10.19      0.00
   -4   -6    3    -13.04      0.00
   -3   -6    3      5.53      0.00
   -2   -6    3    -18.68      0.00
   -1   -6    3     -0.56      0.00
    0   -6    3      4.99      0.00
    1   -6    3      4.70      0.00
    2   -6    3     15.12      0.00
    3   -6    3     18.03      0.00
    4   -6    3      3.67      0.00
    5   -6    3      9.46      0.00
    6   -6    3     -1.13      0.00
    7   -6    3     -5.63      0.00
    8   -6    3     -0.89      0.00
    9   -6    3     -1.43      0.00
   10   -6    3     -3.07      0.00
   11   -6    3     -0.64      0.00
   12   -6    3     -1.19      0.00
   13   -6    3     -0.58      0.00
   14   -6    3      7.18      0.00
   15   -6    3      0.44      0.00
   16   -6    3      1.52      0.00
  -17   -5    3     -5.60      0.00
  -16   -5    3     -1.80      0.00
  -15   -5    3      4.22      0.00
  -14   -5    3     -1.61      0.00
  -13   -5    3      0.79      0.00
  -12   -5    3      0.86      0.00
  -11   -5    3     -6.42      0.00
  -10   -5    3     -0.06      0.00
   -9   -5    3     -1.04      0.00
   -8   -5    3     -2.13      0.00
   -7   -5    3     -5.53      0.00
   -6   -5    3     11.11      0.00
   -5   -5    3    -17.84      0.00
   -4   -5    3     28.77      0.00
   -3   -5    3     -6.70      0.00
   -2   -5    3      8.34      0.00
   -1   -5    3     17.99      0.00
    0   -5    3     10.03      0.00
    1   -5    3     10.95      0.00
    2   -5    3      4.64      0.00
    3   -5    3     -3.38      0.00
    4   -5    3    -14.69      0.00
    5   -5    3     -6.09      0.00
    6   -5    3    -13.41      0.00
    7   -5    3     -7.11      0.00
    8   -5    3      2.46      0.00
    9   -5    3     -1.64      0.00
   10   -5    3     -4.99      0.00
   11   -5    3      0.18      0.00
   12   -5    3     -1.27      0.00
   13   -5    3     -1.22      0.00
   14   -5    3      0.98      0.00
   15   -5    3     -7.70      0.00
   16   -5    3     -1.02      0.00
  -17   -4    3      4.07      0.00
  -16   -4    3      5.09      0.00
  -15   -4    3     -0.36      0.00
  -14   -4    3     -4.16      0.00
  -13   -4    3      3.57      0.00
  -12   -4    3     -5.10      0.00
  -11   -4    3      1.94      0.00
  -10   -4    3      1.11      0.00
   -9   -4    3      4.03      0.00
   -8   -4    3     -5.14      0.00
   -7   -4    3     18.97      0.00
   -6   -4    3     -9.12      0.00
   -5   -4    3      9.45      0.00
   -4   -4    3      4.48      0.00
   -3   -4    3    -24.98      0.00
   -2   -4    3     16.39      0.00
   -1   -4    3    -25.68      0.00
    0   -4    3     -2.71      0.00
    1   -4    3    -33.11      0.00
    2   -4    3     -6.12      0.00
    3   -4    3    -33.58      0.00
    4   -4    3     -1.94      0.00
    5   -4    3     -8.12      0.00
    6   -4    3     -0.20      0.00
    7   -4    3     10.85      0.00
    8   -4    3      3.70      0.00
    9   -4    3     -2.90      0.00
   10   -4    3     11.03      0.00
   11   -4    3      4.88      0.00
   12   -4    3      0.01      0.00
   13   -4    3      2.93      0.00
   14   -4    3     -5.88      0.00
   15   -4    3     -2.04      0.00
   16   -4    3      5.26      0.00
  -17   -3    3      2.10      0.00
  -16   -3    3     -3.90      0.00
  -15   -3    3     -0.84      0.00
  -14   -3    3      5.86      0.00
  -13   -3    3      1.32      0.00
  -12   -3    3     -0.31      0.00
  -11   -3    3      4.98      0.00
  -10   -3    3      1.21      0.00
   -9   -3    3     -0.06      0.00
   -8   -3    3      5.80      0.00
   -7   -3    3      0.97      0.00
   -6   -3    3    -10.25      0.00
   -5   -3    3     15.64      0.00
   -4   -3    3    -23.79      0.00
   -3   -3    3     14.77      0.00
   -2   -3    3      0.71      0.00
   -1   -3    3     -2.80      0.00
    0   -3    3    -12.16      0.00
    1   -3    3      7.67      0.00
    2   -3    3     -9.21      0.00
    3   -3    3      7.97      0.00
    4   -3    3     21.14      0.00
    5   -3    3      6.45      0.00
    6   -3    3     14.54      0.00
    7   -3    3      5.52      0.00
    8   -3    3     -4.81      0.00
    9   -3    3      5.55      0.00
   10   -3    3      0.09      0.00
   11   -3    3     -9.22      0.00
   12   -3    3     -4.01      0.00
   13   -3    3     -0.31      0.00
   14   -3    3     -4.62      0.00
   15   -3    3      8.36      0.00
   16   -3    3     -3.61      0.00
  -17   -2    3     -0.20      0.00
  -16   -2    3      0.03      0.00
  -15   -2    3     -0.04      0.00
  -14   -2    3      1.60      0.00
  -13   -2    3     -6.51      0.00
  -12   -2    3      7.58      0.00
  -11   -2    3      4.67      0.00
  -10   -2    3     -1.73      0.00
   -9   -2    3      1.00      0.00
   -8   -2    3      1.69      0.00
   -7   -2    3    -12.27      0.00
   -6   -2    3      0.75      0.00
   -5   -2    3     -5.56      0.00
   -4   -2    3    -13.29      0.00
   -3   -2    3     16.52      0.00
   -2   -2    3    -29.22      0.00
   -1   -2    3     -9.59      0.00
    0   -2    3     12.31      0.00
    1   -2    3     -0.44      0.00
    2   -2    3     18.17      0.00
    3   -2    3     26.83      0.00
    4   -2    3      6.46      0.00
    5   -2    3     -1.45      0.00
    6   -2    3      5.36      0.00
    7   -2    3    -18.43      0.00
    8   -2    3     -5.69      0.00
    9   -2    3     -3.11      0.00
   10   -2    3    -15.73      0.00
   11   -2    3      2.20      0.00
   12   -2    3      7.93      0.00
   13   -2    3      1.05      0.00
   14   -2    3     10.14      0.00
   15   -2    3      3.99      0.00
   16   -2    3     -0.63      0.00
  -17   -1    3     -5.95      0.00
  -16   -1    3      2.09      0.00
  -15   -1    3      0.28      0.00
  -14   -1    3     -2.42      0.00
  -13   -1    3      1.71      0.00
  -12   -1    3     -0.35      0.00
  -10   -1    3     -5.53      0.00
   -9   -1    3     -4.88      0.00
   -8   -1    3    -13.53      0.00
   -7   -1    3     -9.14      0.00
   -6   -1    3     15.27      0.00
   -5   -1    3     -6.45      0.00
   -4   -1    3     21.54      0.00
   -3   -1    3     16.49      0.00
   -2   -1    3    -10.78      0.00
   -1   -1    3     57.11      0.00
    0   -1    3     -3.91      0.00
    1   -1    3     27.84      0.00
    2   -1    3     11.27      0.00
    3   -1    3      3.95      0.00
    4   -1    3    -25.70      0.00
    5   -1    3      3.68      0.00
    6   -1    3    -20.87      0.00
    7   -1    3     -2.92      0.00
    8   -1    3     15.54      0.00
    9   -1    3     -1.47      0.00
   10   -1    3     13.87      0.00
   11   -1    3      8.84      0.00
   12   -1    3     -2.41      0.00
   13   -1    3     -2.82      0.00
   14   -1    3     -3.85      0.00
   15   -1    3     -7.89      0.00
   16   -1    3     -2.93      0.00
   17   -1    3     -1.04      0.00
  -17    0    3      4.16      0.00
  -16    0    3      3.79      0.00
  -15    0    3      0.08      0.00
  -14    0    3     -3.12      0.00
  -13    0    3      1.53      0.00
  -12    0    3     -6.71      0.00
  -11    0    3     -3.06      0.00
  -10    0    3      6.76      0.00
   -9    0    3     -2.64      0.00
   -8    0    3     10.37      0.00
   -7    0    3     22.14      0.00
   -6    0    3      2.62      0.00
   -5    0    3     -2.02      0.00
   -4    0    3     20.29      0.00
   -3    0    3    -31.25      0.00
   -2    0    3     32.11      0.00
   -1    0    3      7.43      0.00
    0    0    3    -15.34      0.00
    1    0    3     17.66      0.00
    2    0    3    -28.72      0.00
    3    0    3    -31.79      0.00
    4    0    3     -2.92      0.00
    5    0    3     -2.93      0.00
    6    0    3     -7.52      0.00
    7    0    3     29.53      0.00
    8    0    3    -14.00      0.00
    9    0    3      2.98      0.00
   10    0    3      1.03      0.00
   11    0    3     -5.56      0.00
   12    0    3      0.52      0.00
   13    0    3      0.92      0.00
   14    0    3      2.05      0.00
   15    0    3      2.33      0.00
   16    0    3      5.00      0.00
   17    0    3      0.65      0.00
  -17    1    3     -1.74      0.00
  -16    1    3     -5.90      0.00
  -15    1    3     -6.30      0.00
  -14    1    3      4.51      0.00
  -13    1    3      3.14      0.00
  -12    1    3     -0.90      0.00
  -11    1    3     14.97      0.00
  -10    1    3      4.10      0.00
   -9    1    3      6.13      0.00
   -8    1    3     11.56      0.00
   -7    1    3     -2.89      0.00
   -6    1    3    -10.94      0.00
   -5    1    3      3.28      0.00
   -4    1    3    -16.60      0.00
   -3    1    3    -17.78      0.00
   -2    1    3     29.38      0.00
   -1    1    3    -67.18      0.00
    0    1    3     21.34      0.00
    1    1    3    -44.41      0.00
    2    1    3    -10.68      0.00
    3    1    3      4.02      0.00
    4    1    3     19.39      0.00
    5    1    3    -10.04      0.00
    6    1    3     26.42      0.00
    7    1    3    -14.17      0.00
    8    1    3      1.23      0.00
    9    1    3      5.13      0.00
   10    1    3     -0.45      0.00
   11    1    3     -3.10      0.00
   12    1    3     -0.43      0.00
   13    1    3      4.59      0.00
   14    1    3      3.38      0.00
   15    1    3      1.52      0.00
   16    1    3      3.32      0.00
   17    1    3     -4.10      0.00
  -17    2    3      2.96      0.00
  -16    2    3      2.91      0.00
  -15    2    3      8.83      0.00
  -14    2    3      0.08      0.00
  -13    2    3     -5.59      0.00
  -12    2    3      2.15      0.00
  -11    2    3     -1.48      0.00
  -10    2    3     -8.26      0.00
   -9    2    3      2.53      0.00
   -8    2    3    -12.66      0.00
   -7    2    3    -16.21      0.00
   -6    2    3     -9.74      0.00
   -5    2    3     -1.23      0.00
   -4    2    3    -22.78      0.00
   -3    2    3     26.07      0.00
   -2    2    3    -46.05      0.00
   -1    2    3    -10.47      0.00
    0    2    3      4.89      0.00
    1    2    3    -22.00      0.00
    2    2    3     32.33      0.00
    3    2    3     14.56      0.00
    4    2    3      0.73      0.00
    5    2    3      9.99      0.00
    6    2    3      2.72      0.00
    7    2    3    -11.12      0.00
    8    2    3      9.04      0.00
    9    2    3     -3.61      0.00
   10    2    3     -8.29      0.00
   11    2    3      1.11      0.00
   12    2    3      2.02      0.00
   13    2    3     -7.59      0.00
   14    2    3     -9.25      0.00
   15    2    3     -5.75      0.00
   16    2    3     -8.37      0.00
   17    2    3     -1.94      0.00
  -17    3    3     -0.36      0.00
  -16    3    3     -2.20      0.00
  -15    3    3      0.75      0.00
  -14    3    3     -3.03      0.00
  -13    3    3      2.12      0.00
  -12    3    3      4.93      0.00
  -11    3    3     -4.16      0.00
  -10    3    3     -1.93      0.00
   -9    3    3     -2.19      0.00
   -8    3    3    -10.21      0.00
   -7    3    3      6.72      0.00
   -6    3    3     11.16      0.00
   -5    3    3      3.51      0.00
   -4    3    3     20.50      0.00
   -3    3    3     11.75      0.00
   -2    3    3      1.54      0.00
   -1    3    3     59.64      0.00
    0    3    3     -9.24      0.00
    1    3    3     42.34      0.00
    2    3    3     -6.18      0.00
    3    3    3      7.74      0.00
    4    3    3    -18.20      0.00
    5    3    3      9.80      0.00
    6    3    3    -20.70      0.00
    7    3    3      1.89      0.00
    8    3    3      0.66      0.00
    9    3    3     -9.04      0.00
   10    3    3      5.09      0.00
   11    3    3      4.41      0.00
   12    3    3     -4.96      0.00
   13    3    3      1.08      0.00
   14    3    3      5.17      0.00
   15    3    3      0.43      0.00
   16    3    3      4.19      0.00
  -16    4    3      0.31      0.00
  -15    4    3     -5.76      0.00
  -14    4    3     -0.97      0.00
  -13    4    3      1.34      0.00
  -12    4    3     -1.99      0.00
  -11    4    3     -7.74      0.00
  -10    4    3      7.06      0.00
   -9    4    3     -6.99      0.00
   -8    4    3     10.16      0.00
   -7    4    3     11.53      0.00
   -6    4    3      6.28      0.00
   -5    4    3      5.27      0.00
   -4    4    3      7.49      0.00
   -3    4    3    -11.48      0.00
   -2    4    3      7.74      0.00
   -1    4    3    -10.29      0.00
    0    4    3    -13.18      0.00
    1    4    3     -5.59      0.00
    2    4    3     -2.38      0.00
    3    4    3    -24.43      0.00
    4    4    3      9.78      0.00
    5    4    3     -9.72      0.00
    6    4    3     -0.64      0.00
    7    4    3     17.31      0.00
    8    4    3     -8.75      0.00
    9    4    3      8.09      0.00
   10    4    3      3.40      0.00
   11    4    3     -0.22      0.00
   12    4    3     -0.33      0.00
   13    4    3      6.21      0.00
   14    4    3     -3.45      0.00
   15    4    3      3.57      0.00
   16    4    3      0.09      0.00
   17    4    3      4.31      0.00
  -16    5    3      0.77      0.00
  -15    5    3      1.11      0.00
  -14    5    3      2.18      0.00
  -13    5    3     -2.75      0.00
  -12    5    3     -5.66      0.00
  -11    5    3      6.41      0.00
  -10    5    3      0.52      0.00
   -9    5    3      4.81      0.00
   -8    5    3      9.67      0.00
   -7    5    3     -5.56      0.00
   -6    5    3     -6.49      0.00
   -5    5    3    -10.88      0.00
   -4    5    3     -4.16      0.00
   -3    5    3    -19.06      0.00
   -2    5    3     12.79      0.00
   -1    5    3    -22.29      0.00
    0    5    3      6.26      0.00
    1    5    3      1.05      0.00
    2    5    3    -15.89      0.00
    3    5    3      6.61      0.00
    4    5    3      6.78      0.00
    5    5    3     -7.96      0.00
    6    5    3     14.86      0.00
    7    5    3     -9.27      0.00
    8    5    3      0.20      0.00
    9    5    3      2.03      0.00
   10    5    3     -2.75      0.00
   11    5    3     -6.77      0.00
   12    5    3      4.07      0.00
   13    5    3     -3.59      0.00
   14    5    3      2.35      0.00
   15    5    3      3.37      0.00
   16    5    3      0.41      0.00
  -16    6    3     -1.48      0.00
  -15    6    3     -2.31      0.00
  -14    6    3      0.27      0.00
  -13    6    3     -1.77      0.00
  -12    6    3      3.49      0.00
  -11    6    3      4.01      0.00
  -10    6    3     -3.17      0.00
   -9    6    3      2.77      0.00
   -8    6    3     -6.49      0.00
   -7    6    3     -9.78      0.00
   -6    6    3     -2.86      0.00
   -5    6    3      3.81      0.00
   -4    6    3    -13.56      0.00
   -3    6    3     17.52      0.00
   -2    6    3     -7.57      0.00
   -1    6    3      1.02      0.00
    0    6    3     11.83      0.00
    1    6    3     -9.43      0.00
    2    6    3      5.63      0.00
    3    6    3     14.66      0.00
    4    6    3     -8.36      0.00
    5    6    3      5.89      0.00
    6    6    3     -0.12      0.00
    7    6    3     -5.90      0.00
    8    6    3      1.71      0.00
    9    6    3      0.87      0.00
   10    6    3     -7.52      0.00
   11    6    3      5.57      0.00
   12    6    3     -2.44      0.00
   13    6    3      0.44      0.00
   14    6    3      0.83      0.00
   15    6    3     -0.52      0.00
   16    6    3     -3.72      0.00
  -15    7    3      4.14      0.00
  -14    7    3     -0.48      0.00
  -13    7    3      2.92      0.00
  -12    7    3      3.37      0.00
  -11    7    3     -3.42      0.00
  -10    7    3     -3.95      0.00
   -9    7    3     -0.81      0.00
   -8    7    3    -10.26      0.00
   -7    7    3      2.78      0.00
   -6    7    3      3.45      0.00
   -5    7    3     -3.71      0.00
   -4    7    3      6.00      0.00
   -3    7    3      3.20      0.00
   -2    7    3    -10.26      0.00
   -1    7    3      4.61      0.00
    0    7    3     -2.03      0.00
    1    7    3     -8.67      0.00
    2    7    3     13.77      0.00
    3    7    3     -8.69      0.00
    4    7    3     -4.70      0.00
    5    7    3      4.51      0.00
    6    7    3     -7.74      0.00
    7    7    3     -4.09      0.00
    8    7    3      6.85      0.00
    9    7    3     -9.55      0.00
   10    7    3      7.54      0.00
   11    7    3     -0.56      0.00
   12    7    3      0.07      0.00
   13    7    3     -2.61      0.00
   14    7    3     -0.94      0.00
   15    7    3     -5.73      0.00
  -15    8    3      0.14      0.00
  -14    8    3     -0.17      0.00
  -13    8    3      1.73      0.00
  -12    8    3     -3.96      0.00
  -11    8    3     -1.07      0.00
  -10    8    3      3.97      0.00
   -9    8    3     -3.05      0.00
   -8    8    3      3.65      0.00
   -7    8    3      9.85      0.00
   -6    8    3     -0.52      0.00
   -5    8    3      7.08      0.00
   -4    8    3      5.27      0.00
   -3    8    3     -0.10      0.00
   -2    8    3     -3.21      0.00
   -1    8    3     17.42      0.00
    0    8    3    -14.39      0.00
    1    8    3     19.04      0.00
    2    8    3     -1.97      0.00
    3    8    3     -2.64      0.00
    4    8    3      6.78      0.00
    5    8    3      2.71      0.00
    6    8    3     -7.18      0.00
    7    8    3     11.56      0.00
    8    8    3     -7.30      0.00
    9    8    3      2.57      0.00
   10    8    3      0.41      0.00
   11    8    3     -1.31      0.00
   12    8    3      1.50      0.00
   13    8    3      1.00      0.00
   14    8    3      1.46      0.00
   15    8    3     -3.24      0.00
  -15    9    3     -0.66      0.00
  -14    9    3     -1.40      0.00
  -13    9    3      1.12      0.00
  -12    9    3      1.06      0.00
  -11    9    3      3.06      0.00
  -10    9    3      0.95      0.00
   -9    9    3      2.29      0.00
   -8    9    3     10.21      0.00
   -7    9    3     -2.27      0.00
   -6    9    3     -1.74      0.00
   -5    9    3     -2.93      0.00
   -4    9    3     -2.92      0.00
   -3    9    3    -15.24      0.00
   -1    9    3    -18.61      0.00
    0    9    3      5.79      0.00
    1    9    3     -3.78      0.00
    2    9    3     -7.36      0.00
    3    9    3      1.51      0.00
    4    9    3      4.55      0.00
    5    9    3     -3.53      0.00
    6    9    3      8.16      0.00
    7    9    3      5.26      0.00
    8    9    3     -1.47      0.00
    9    9    3      5.53      0.00
   10    9    3      0.88      0.00
   11    9    3     -0.10      0.00
   12    9    3     -1.87      0.00
   13    9    3      1.48      0.00
   14    9    3     -5.46      0.00
  -14   10    3      2.53      0.00
  -13   10    3     -1.32      0.00
  -12   10    3      0.40      0.00
  -11   10    3     -3.83      0.00
  -10   10    3      3.85      0.00
   -9   10    3     -2.35      0.00
   -8   10    3     -3.00      0.00
   -7   10    3     -9.85      0.00
   -6   10    3      1.44      0.00
   -5   10    3     -2.50      0.00
   -4   10    3     -4.49      0.00
   -3   10    3     10.18      0.00
   -2   10    3      0.11      0.00
   -1   10    3      1.48      0.00
    0   10    3     10.13      0.00
    1   10    3     -1.36      0.00
    2   10    3      3.24      0.00
    3   10    3      3.92      0.00
    4   10    3     -1.61      0.00
    5   10    3     -4.42      0.00
    6   10    3      2.35      0.00
    7   10    3    -11.69      0.00
    8   10    3     -0.11      0.00
    9   10    3     -2.23      0.00
   10   10    3     -3.30      0.00
   11   10    3     -3.66      0.00
   12   10    3      1.78      0.00
   13   10    3     -1.75      0.00
   14   10    3      6.31      0.00
  -13   11    3     -2.46      0.00
  -12   11    3     -2.11      0.00
  -11   11    3      4.55      0.00
  -10   11    3     -8.30      0.00
   -9   11    3      2.07      0.00
   -8   11    3     -5.62      0.00
   -7   11    3      4.36      0.00
   -6   11    3      1.27      0.00
   -5   11    3      0.52      0.00
   -4   11    3      5.81      0.00
   -3   11    3      7.20      0.00
   -2   11    3     -3.44      0.00
   -1   11    3      6.77      0.00
    0   11    3     -1.98      0.00
    1   11    3     -3.69      0.00
    2   11    3     -0.73      0.00
    3   11    3     -5.34      0.00
    4   11    3    -10.29      0.00
    5   11    3     -2.06      0.00
    6   11    3     -3.86      0.00
    7   11    3      1.49      0.00
    8   11    3      5.42      0.00
    9   11    3      0.24      0.00
   10   11    3     -0.67      0.00
   11   11    3      3.77      0.00
   12   11    3     -0.59      0.00
   13   11    3      1.34      0.00
   14   11    3     -1.60      0.00
  -13   12    3     -0.64      0.00
  -12   12    3      2.86      0.00
  -11   12    3     -5.60      0.00
  -10   12    3      4.87      0.00
   -9   12    3     -1.74      0.00
   -8   12    3      3.30      0.00
   -7   12    3      3.98      0.00
   -6   12    3      1.18      0.00
   -5   12    3      2.80      0.00
   -4   12    3      3.58      0.00
   -3   12    3     -6.93      0.00
   -2   12    3     -4.25      0.00
   -1   12    3      0.13      0.00
    0   12    3    -10.28      0.00
    1   12    3     -1.34      0.00
    2   12    3     -1.00      0.00
    3   12    3     -3.96      0.00
    4   12    3      8.41      0.00
    5   12    3      5.85      0.00
    6   12    3      5.10      0.00
    7   12    3      0.25      0.00
    8   12    3      0.82      0.00
    9   12    3     -2.81      0.00
   10   12    3      3.72      0.00
   11   12    3      1.90      0.00
   12   12    3      2.26      0.00
   13   12    3      0.21      0.00
   14   12    3      1.87      0.00
  -12   13    3     -1.47      0.00
  -11   13    3      3.86      0.00
  -10   13    3     -1.93      0.00
   -9   13    3      2.62      0.00
   -8   13    3     -1.34      0.00
   -7   13    3     -0.75      0.00
   -6   13    3     -4.15      0.00
   -5   13    3     -0.38      0.00
   -4   13    3     -5.14      0.00
   -3   13    3     -3.97      0.00
   -2   13    3      4.94      0.00
   -1   13    3     -3.00      0.00
    0   13    3      3.02      0.00
    1   13    3      9.75      0.00
    2   13    3      0.21      0.00
    3   13    3      6.76      0.00
    4   13    3      1.58      0.00
    5   13    3     -4.05      0.00
    6   13    3     -4.05      0.00
    7   13    3      2.79      0.00
    8   13    3     -6.36      0.00
    9   13    3      5.51      0.00
   10   13    3     -3.39      0.00
   11   13    3      2.48      0.00
   12   13    3     -2.96      0.00
   13   13    3      2.04      0.00
  -11   14    3      0.68      0.00
  -10   14    3      1.16      0.00
   -9   14    3     -1.02      0.00
   -8   14    3      0.22      0.00
   -7   14    3     -1.46      0.00
   -6   14    3      0.74      0.00
   -5   14    3      0.60      0.00
   -4   14    3     -3.91      0.00
   -3   14    3      6.17      0.00
   -2   14    3      1.14      0.00
   -1   14    3      0.75      0.00
    0   14    3      4.35      0.00
    1   14    3     -3.76      0.00
    2   14    3     -4.85      0.00
    3   14    3      4.64      0.00
    4   14    3     -4.10      0.00
    5   14    3      7.16      0.00
    6   14    3      1.47      0.00
    7   14    3      0.17      0.00
    8   14    3      2.89      0.00
    9   14    3      0.10      0.00
   10   14    3      3.19      0.00
   11   14    3     -2.17      0.00
   12   14    3      1.00      0.00
   -9   15    3      0.91      0.00
   -8   15    3     -0.02      0.00
   -7   15    3      0.41      0.00
   -6   15    3     -0.94      0.00
   -5   15    3     -1.60      0.00
   -4   15    3      5.42      0.00
   -3   15    3      1.94      0.00
   -2   15    3     -1.37      0.00
   -1   15    3     -0.71      0.00
    0   15    3      0.40      0.00
    1   15    3     -4.35      0.00
    2   15    3     11.36      0.00
    3   15    3     -2.36      0.00
    4   15    3      5.02      0.00
    5   15    3     -3.96      0.00
    6   15    3      2.47      0.00
    7   15    3     -3.52      0.00
    8   15    3      3.94      0.00
    9   15    3     -4.48      0.00
   10   15    3     -1.86      0.00
   11   15    3     -2.74      0.00
   -8   16    3     -0.14      0.00
   -7   16    3     -0.39      0.00
   -6   16    3      4.10      0.00
   -5   16    3      0.86      0.00
   -4   16    3      1.23      0.00
   -3   16    3     -5.47      0.00
   -2   16    3     -1.12      0.00
   -1   16    3     -3.40      0.00
    0   16    3     -3.35      0.00
    1   16    3      0.03      0.00
    2   16    3     -7.02      0.00
    3   16    3     -6.63      0.00
    4   16    3     -4.96      0.00
    5   16    3     -3.53      0.00
    6   16    3     -1.24      0.00
    7   16    3      0.55      0.00
    8   16    3     -0.28      0.00
    9   16    3     -0.93      0.00
   10   16    3      0.59      0.00
   -6   17    3     -1.19      0.00
   -5   17    3     -0.48      0.00
   -4   17    3     -1.35      0.00
   -3   17    3     -0.54      0.00
   -2   17    3     -2.24      0.00
   -1   17    3      0.28      0.00
    0   17    3      1.35      0.00
    1   17    3     -1.21      0.00
    2   17    3      0.74      0.00
    3   17    3      0.88      0.00
    4   17    3     -2.35      0.00
    5   17    3      3.47      0.00
    6   17    3     -5.35      0.00
    7   17    3      1.35      0.00
    8   17    3     -6.52      0.00
   -4   18    3     -3.44      0.00
   -3   18    3      0.58      0.00
   -2   18    3      1.23      0.00
   -1   18    3      3.87      0.00
    0   18    3     -0.49      0.00
    1   18    3      2.76      0.00
    2   18    3     -0.31      0.00
    3   18    3      1.36      0.00
    4   18    3      3.18      0.00
    5   18    3     -0.58      0.00
    6   18    3      1.46      0.00
   -3  -18    4     -3.10      0.00
   -2  -18    4     -3.47      0.00
   -1  -18    4     -4.60      0.00
    0  -18    4     -2.61      0.00
    1  -18    4      2.62      0.00
   -6  -17    4     -3.69      0.00
   -5  -17    4      0.95      0.00
   -4  -17    4     -1.30      0.00
   -3  -17    4     -0.35      0.00
   -2  -17    4      5.44      0.00
   -1  -17    4      1.64      0.00
    0  -17    4      6.12      0.00
    1  -17    4      1.61      0.00
    2  -17    4     -1.09      0.00
    3  -17    4      3.31      0.00
    4  -17    4     -1.86      0.00
    5  -17    4      1.58      0.00
   -8  -16    4     -0.51      0.00
   -7  -16    4      3.04      0.00
   -6  -16    4      1.86      0.00
   -5  -16    4      3.26      0.00
   -4  -16    4     -4.80      0.00
   -3  -16    4      2.93      0.00
   -2  -16    4     -5.44      0.00
   -1  -16    4      1.78      0.00
    0  -16    4     -1.96      0.00
    1  -16    4     -2.85      0.00
    2  -16    4      0.54      0.00
    3  -16    4     -5.58      0.00
    4  -16    4     -1.55      0.00
    5  -16    4     -3.57      0.00
    6  -16    4      1.27      0.00
    7  -16    4     -1.68      0.00
  -10  -15    4      3.19      0.00
   -9  -15    4      1.56      0.00
   -8  -15    4      3.82      0.00
   -7  -15    4     -1.70      0.00
   -6  -15    4      6.54      0.00
   -5  -15    4     -4.48      0.00
   -4  -15    4      4.29      0.00
   -3  -15    4      0.85      0.00
   -2  -15    4     -1.08      0.00
   -1  -15    4     -1.11      0.00
    0  -15    4     -4.55      0.00
    1  -15    4     -2.17      0.00
    2  -15    4     -4.54      0.00
    3  -15    4      0.51      0.00
    4  -15    4     -0.14      0.00
    5  -15    4      3.71      0.00
    6  -15    4      1.37      0.00
    7  -15    4      1.57      0.00
    8  -15    4      1.36      0.00
    9  -15    4     -0.53      0.00
  -11  -14    4      0.59      0.00
  -10  -14    4     -2.94      0.00
   -9  -14    4      0.96      0.00
   -8  -14    4     -1.77      0.00
   -7  -14    4      2.49      0.00
   -6  -14    4     -5.49      0.00
   -5  -14    4     -2.69      0.00
   -4  -14    4     -0.09      0.00
   -3  -14    4     -0.84      0.00
   -2  -14    4     -0.74      0.00
   -1  -14    4      6.33      0.00
    0  -14    4     -2.13      0.00
    1  -14    4      4.43      0.00
    2  -14    4     -0.03      0.00
    3  -14    4      2.16      0.00
    4  -14    4      2.93      0.00
    5  -14    4      3.07      0.00
    6  -14    4     -2.12      0.00
    7  -14    4      1.11      0.00
    8  -14    4     -4.83      0.00
    9  -14    4     -0.48      0.00
   10  -14    4     -4.39      0.00
  -12  -13    4      0.15      0.00
  -11  -13    4     -1.82      0.00
  -10  -13    4      2.46      0.00
   -9  -13    4     -0.95      0.00
   -8  -13    4     -2.18      0.00
   -7  -13    4     -2.05      0.00
   -6  -13    4     -2.70      0.00
   -5  -13    4      4.11      0.00
   -4  -13    4      2.03      0.00
   -3  -13    4     -7.01      0.00
   -2  -13    4      4.65      0.00
   -1  -13    4    -11.45      0.00
    0  -13    4      1.73      0.00
    1  -13    4     -3.30      0.00
    2  -13    4      2.81      0.00
    3  -13    4      3.17      0.00
    4  -13    4     -1.39      0.00
    5  -13    4     -4.33      0.00
    6  -13    4     -3.54      0.00
    7  -13    4     -3.48      0.00
    8  -13    4      1.82      0.00
    9  -13    4     -0.18      0.00
   10  -13    4      5.70      0.00
   11  -13    4     -4.18      0.00
  -13  -12    4     -2.09      0.00
  -12  -12    4      2.47      0.00
  -11  -12    4      0.31      0.00
  -10  -12    4      0.18      0.00
   -9  -12    4     -5.36      0.00
   -8  -12    4      2.82      0.00
   -7  -12    4     -3.71      0.00
   -6  -12    4      5.55      0.00
   -5  -12    4     -1.79      0.00
   -4  -12    4     -3.86      0.00
   -3  -12    4      5.12      0.00
   -2  -12    4     -0.58      0.00
   -1  -12    4      2.28      0.00
    0  -12    4      6.38      0.00
    1  -12    4     -0.92      0.00
    2  -12    4      4.79      0.00
    3  -12    4     -8.17      0.00
    4  -12    4      1.45      0.00
    5  -12    4     -3.12      0.00
    6  -12    4      6.52      0.00
    7  -12    4      4.13      0.00
    8  -12    4      4.39      0.00
    9  -12    4      2.36      0.00
   10  -12    4     -0.71      0.00
   11  -12    4      2.48      0.00
   12  -12    4     -0.51      0.00
  -14  -11    4      0.45      0.00
  -13  -11    4      2.14      0.00
  -12  -11    4      0.60      0.00
  -11  -11    4      0.53      0.00
  -10  -11    4     -1.71      0.00
   -9  -11    4      4.96      0.00
   -8  -11    4     -2.70      0.00
   -7  -11    4      3.10      0.00
   -6  -11    4     -2.40      0.00
   -5  -11    4      0.02      0.00
   -4  -11    4     -0.93      0.00
   -3  -11    4      3.23      0.00
   -2  -11    4     -4.94      0.00
   -1  -11    4      4.66      0.00
    0  -11    4     -1.90      0.00
    1  -11    4      2.04      0.00
    2  -11    4     -3.05      0.00
    3  -11    4      6.03      0.00
    4  -11    4      1.44      0.00
    5  -11    4      3.52      0.00
    6  -11    4      3.28      0.00
    7  -11    4     -4.62      0.00
    8  -11    4     -0.76      0.00
    9  -11    4     -3.94      0.00
   10  -11    4     -1.18      0.00
   11  -11    4     -1.70      0.00
   12  -11    4     -1.70      0.00
   13  -11    4      2.56      0.00
  -14  -10    4     -4.36      0.00
  -13  -10    4      2.57      0.00
  -12  -10    4     -2.02      0.00
  -11  -10    4      1.18      0.00
  -10  -10    4      1.21      0.00
   -9  -10    4      1.10      0.00
   -8  -10    4     -1.87      0.00
   -7  -10    4      3.84      0.00
   -6  -10    4     -7.09      0.00
   -5  -10    4     -2.40      0.00
   -4  -10    4      1.51      0.00
   -3  -10    4     -5.18      0.00
   -2  -10    4      2.09      0.00
   -1  -10    4      6.77      0.00
    0  -10    4     -6.81      0.00
    1  -10    4      7.98      0.00
    2  -10    4     -1.93      0.00
    3  -10    4      2.38      0.00
    4  -10    4     -3.30      0.00
    5  -10    4      7.04      0.00
    6  -10    4     -5.93      0.00
    7  -10    4      2.19      0.00
    8  -10    4     -2.64      0.00
    9  -10    4     -4.81      0.00
   10  -10    4     -0.74      0.00
   11  -10    4      0.07      0.00
   12  -10    4     -1.00      0.00
   13  -10    4      1.72      0.00
  -15   -9    4     -1.41      0.00
  -14   -9    4      2.93      0.00
  -13   -9    4      2.02      0.00
  -12   -9    4      1.11      0.00
  -11   -9    4     -0.16      0.00
  -10   -9    4      3.13      0.00
   -9   -9    4     -4.78      0.00
   -8   -9    4      4.08      0.00
   -7   -9    4     -3.95      0.00
   -6   -9    4      5.30      0.00
   -5   -9    4      8.26      0.00
   -4   -9    4      5.29      0.00
   -3   -9    4      4.48      0.00
   -2   -9    4      9.08      0.00
   -1   -9    4     -5.56      0.00
    0   -9    4      2.28      0.00
    1   -9    4      1.40      0.00
    2   -9    4     -5.73      0.00
    3   -9    4      2.37      0.00
    4   -9    4      0.84      0.00
    5   -9    4     -6.27      0.00
    6   -9    4     -6.21      0.00
    7   -9    4     -1.20      0.00
    8   -9    4     -5.92      0.00
    9   -9    4      7.75      0.00
   10   -9    4      3.00      0.00
   11   -9    4     -0.27      0.00
   12   -9    4      3.17      0.00
   13   -9    4     -1.51      0.00
   14   -9    4      0.06      0.00
  -15   -8    4     -2.53      0.00
  -14   -8    4      3.34      0.00
  -13   -8    4     -6.30      0.00
  -12   -8    4     -0.41      0.00
  -11   -8    4      0.00      0.00
  -10   -8    4     -4.13      0.00
   -9   -8    4      1.81      0.00
   -8   -8    4      3.24      0.00
   -7   -8    4     -0.57      0.00
   -6   -8    4      6.60      0.00
   -5   -8    4      0.02      0.00
   -4   -8    4     -1.10      0.00
   -3   -8    4     -3.33      0.00
   -2   -8    4     -1.89      0.00
   -1   -8    4    -14.32      0.00
    0   -8    4      8.48      0.00
    1   -8    4    -15.30      0.00
    2   -8    4      2.10      0.00
    3   -8    4     -3.34      0.00
    4   -8    4     -4.99      0.00
    5   -8    4     -3.30      0.00
    6   -8    4      5.10      0.00
    7   -8    4      3.66      0.00
    8   -8    4      5.76      0.00
    9   -8    4      6.53      0.00
   10   -8    4     -2.41      0.00
   11   -8    4      3.85      0.00
   12   -8    4      2.41      0.00
   13   -8    4     -2.61      0.00
   14   -8    4      2.43      0.00
   15   -8    4     -0.49      0.00
  -15   -7    4      2.16      0.00
  -14   -7    4      0.13      0.00
  -13   -7    4     -0.42      0.00
  -12   -7    4      1.55      0.00
  -11   -7    4     -1.82      0.00
  -10   -7    4     -2.14      0.00
   -9   -7    4      5.03      0.00
   -8   -7    4     -3.81      0.00
   -7   -7    4      4.25      0.00
   -6   -7    4     -1.39      0.00
   -5   -7    4     -7.32      0.00
   -4   -7    4    -13.83      0.00
   -3   -7    4     -1.36      0.00
   -2   -7    4    -15.65      0.00
   -1   -7    4      5.14      0.00
    0   -7    4     -0.65      0.00
    1   -7    4     -5.95      0.00
    2   -7    4     14.81      0.00
    3   -7    4     -6.44      0.00
    4   -7    4      4.04      0.00
    5   -7    4      3.72      0.00
    6   -7    4      6.03      0.00
    7   -7    4     -3.78      0.00
    8   -7    4      5.60      0.00
    9   -7    4     -6.88      0.00
   10   -7    4     -4.22      0.00
   11   -7    4      0.33      0.00
   12   -7    4     -7.01      0.00
   13   -7    4      0.91      0.00
   14   -7    4      0.78      0.00
   15   -7    4     -0.53      0.00
  -16   -6    4     -1.54      0.00
  -15   -6    4      2.76      0.00
  -14   -6    4     -7.01      0.00
  -13   -6    4      2.31      0.00
  -12   -6    4     -3.85      0.00
  -11   -6    4     -1.39      0.00
  -10   -6    4      3.31      0.00
   -9   -6    4     -3.17      0.00
   -8   -6    4     -3.85      0.00
   -7   -6    4     -1.56      0.00
   -6   -6    4     -9.08      0.00
   -5   -6    4     -1.99      0.00
   -4   -6    4     12.69      0.00
   -3   -6    4      7.08      0.00
   -2   -6    4      9.19      0.00
   -1   -6    4     20.71      0.00
    0   -6    4     -5.38      0.00
    1   -6    4     18.11      0.00
    2   -6    4     -0.92      0.00
    3   -6    4     -6.60      0.00
    4   -6    4     11.98      0.00
    5   -6    4     -5.22      0.00
    6   -6    4     -3.93      0.00
    7   -6    4     -0.87      0.00
    8   -6    4     -3.33      0.00
    9   -6    4     -7.28      0.00
   10   -6    4      9.84      0.00
   11   -6    4     -2.52      0.00
   12   -6    4      3.78      0.00
   13   -6    4      1.63      0.00
   14   -6    4     -0.82      0.00
   15   -6    4     -2.21      0.00
   16   -6    4     -2.14      0.00
  -16   -5    4      2.90      0.00
  -15   -5    4     -5.61      0.00
  -14   -5    4      0.46      0.00
  -13   -5    4      2.04      0.00
  -12   -5    4      0.31      0.00
  -11   -5    4      3.52      0.00
  -10   -5    4     -0.29      0.00
   -9   -5    4     -4.40      0.00
   -8   -5    4      1.43      0.00
   -7   -5    4     -3.50      0.00
   -6   -5    4      0.25      0.00
   -5   -5    4      8.10      0.00
   -4   -5    4      2.79      0.00
   -3   -5    4      0.24      0.00
   -2   -5    4      7.99      0.00
   -1   -5    4     -3.25      0.00
    0   -5    4     -7.51      0.00
    1   -5    4      7.00      0.00
    2   -5    4    -23.10      0.00
    3   -5    4     18.03      0.00
    4   -5    4    -12.61      0.00
    5   -5    4      0.73      0.00
    6   -5    4      0.05      0.00
    7   -5    4      0.62      0.00
    8   -5    4     -3.79      0.00
    9   -5    4      8.45      0.00
   10   -5    4     -1.17      0.00
   11   -5    4     -1.42      0.00
   12   -5    4     -0.54      0.00
   13   -5    4      3.04      0.00
   14   -5    4     -3.90      0.00
   15   -5    4      5.96      0.00
   16   -5    4      0.03      0.00
  -17   -4    4     -0.90      0.00
  -16   -4    4     -2.77      0.00
  -15   -4    4      0.38      0.00
  -14   -4    4      4.70      0.00
  -13   -4    4     -1.97      0.00
  -12   -4    4     -0.77      0.00
  -11   -4    4      1.38      0.00
  -10   -4    4     -2.64      0.00
   -9   -4    4      3.22      0.00
   -8   -4    4      4.11      0.00
   -7   -4    4      1.96      0.00
   -6   -4    4     11.08      0.00
   -5   -4    4      8.11      0.00
   -4   -4    4     -1.21      0.00
   -3   -4    4      2.34      0.00
   -2   -4    4     -2.93      0.00
   -1   -4    4    -18.57      0.00
    0   -4    4      4.85      0.00
    1   -4    4    -16.36      0.00
    2   -4    4      6.56      0.00
    3   -4    4     -0.65      0.00
    4   -4    4    -10.12      0.00
    5   -4    4      8.06      0.00
    6   -4    4     -4.39      0.00
    7   -4    4      5.41      0.00
    8   -4    4      3.13      0.00
    9   -4    4      1.93      0.00
   10   -4    4     -6.21      0.00
   11   -4    4     -5.02      0.00
   12   -4    4      1.80      0.00
   13   -4    4     -4.28      0.00
   14   -4    4     -0.65      0.00
   15   -4    4     -1.29      0.00
   16   -4    4     -2.18      0.00
  -17   -3    4     -1.69      0.00
  -16   -3    4     -0.28      0.00
  -15   -3    4      0.43      0.00
  -14   -3    4     -1.94      0.00
  -13   -3    4     -3.12      0.00
  -12   -3    4      4.62      0.00
  -11   -3    4     -3.51      0.00
  -10   -3    4      1.34      0.00
   -9   -3    4      2.62      0.00
   -8   -3    4      2.21      0.00
   -7   -3    4     -1.74      0.00
   -6   -3    4      2.02      0.00
   -5   -3    4    -23.12      0.00
   -4   -3    4    -10.68      0.00
   -3   -3    4    -24.03      0.00
   -2   -3    4    -16.86      0.00
   -1   -3    4    -13.32      0.00
    0   -3    4      9.23      0.00
    1   -3    4     -2.40      0.00
    2   -3    4     14.36      0.00
    3   -3    4     -8.33      0.00
    4   -3    4      9.60      0.00
    5   -3    4      5.13      0.00
    6   -3    4      2.31      0.00
    7   -3    4      5.45      0.00
    8   -3    4     -1.78      0.00
    9   -3    4     -2.46      0.00
   10   -3    4     -1.84      0.00
   11   -3    4     12.16      0.00
   12   -3    4      0.11      0.00
   13   -3    4     -2.86      0.00
   14   -3    4      4.27      0.00
   15   -3    4     -1.34      0.00
   16   -3    4      0.42      0.00
  -17   -2    4      2.27      0.00
  -16   -2    4      3.32      0.00
  -15   -2    4      3.62      0.00
  -14   -2    4      2.25      0.00
  -13   -2    4      4.16      0.00
  -12   -2    4      0.03      0.00
  -11   -2    4     -1.71      0.00
  -10   -2    4      4.97      0.00
   -9   -2    4     -0.79      0.00
   -8   -2    4     -7.87      0.00
   -7   -2    4      4.46      0.00
   -6   -2    4    -16.32      0.00
   -5   -2    4      2.72      0.00
   -4   -2    4      2.11      0.00
   -3   -2    4     15.74      0.00
   -2   -2    4     18.79      0.00
   -1   -2    4     32.27      0.00
    0   -2    4     20.90      0.00
    1   -2    4     -6.51      0.00
    2   -2    4     11.86      0.00
    3   -2    4    -14.38      0.00
    4   -2    4     17.17      0.00
    5   -2    4    -14.34      0.00
    6   -2    4      6.77      0.00
    7   -2    4    -15.53      0.00
    8   -2    4     -0.12      0.00
    9   -2    4     -5.61      0.00
   10   -2    4      3.21      0.00
   11   -2    4     -8.31      0.00
   12   -2    4    -10.06      0.00
   13   -2    4      0.41      0.00
   14   -2    4     -0.83      0.00
   15   -2    4     -4.29      0.00
   16   -2    4      1.51      0.00
   17   -2    4     -3.89      0.00
  -17   -1    4      2.94      0.00
  -16   -1    4     -0.51      0.00
  -15   -1    4     -2.64      0.00
  -14   -1    4     -4.03      0.00
  -13   -1    4      1.11      0.00
  -12   -1    4     -3.41      0.00
  -11   -1    4      2.96      0.00
  -10   -1    4     -3.06      0.00
   -9   -1    4     -4.09      0.00
   -8   -1    4      3.83      0.00
   -7   -1    4     -1.38      0.00
   -6   -1    4      1.45      0.00
   -5   -1    4     14.78      0.00
   -4   -1    4      8.16      0.00
   -3   -1    4     13.56      0.00
   -2   -1    4     -4.54      0.00
   -1   -1    4     11.83      0.00
    0   -1    4    -55.06      0.00
    1   -1    4     13.17      0.00
    2   -1    4    -33.98      0.00
    3   -1    4     11.54      0.00
    4   -1    4    -13.18      0.00
    5   -1    4     -6.13      0.00
    6   -1    4     -5.92      0.00
    7   -1    4     -1.41      0.00
    8   -1    4      1.30      0.00
    9   -1    4     -2.42      0.00
   10   -1    4      5.31      0.00
   11   -1    4     -1.10      0.00
   12   -1    4     13.85      0.00
   13   -1    4      7.59      0.00
   14   -1    4      1.89      0.00
   15   -1    4      3.33      0.00
   16   -1    4      3.36      0.00
   17   -1    4      0.07      0.00
  -17    0    4     -3.67      0.00
  -16    0    4     -5.53      0.00
  -15    0    4     -1.47      0.00
  -14    0    4      3.74      0.00
  -13    0    4     -5.02      0.00
  -12    0    4      0.39      0.00
  -11    0    4     -2.02      0.00
  -10    0    4     -1.03      0.00
   -9    0    4      0.58      0.00
   -8    0    4     -1.41      0.00
   -7    0    4     -4.61      0.00
   -6    0    4      9.37      0.00
   -5    0    4      2.90      0.00
   -4    0    4      2.44      0.00
   -3    0    4    -11.75      0.00
   -2    0    4     -2.10      0.00
   -1    0    4    -43.59      0.00
    0    0    4     -4.81      0.00
    1    0    4     16.14      0.00
    2    0    4     -5.61      0.00
    3    0    4     22.46      0.00
    4    0    4    -10.75      0.00
    5    0    4     13.88      0.00
    6    0    4      0.14      0.00
    7    0    4     10.49      0.00
    8    0    4     -1.59      0.00
    9    0    4     13.47      0.00
   10    0    4     -4.89      0.00
   11    0    4      3.65      0.00
   12    0    4     -6.25      0.00
   13    0    4     -7.36      0.00
   14    0    4     -4.49      0.00
   15    0    4     -1.56      0.00
   16    0    4     -1.88      0.00
   17    0    4     -0.57      0.00
  -17    1    4      2.40      0.00
  -16    1    4      3.97      0.00
  -15    1    4      5.08      0.00
  -14    1    4     -6.05      0.00
  -13    1    4      1.91      0.00
  -12    1    4     -3.47      0.00
  -11    1    4      6.57      0.00
  -10    1    4     -3.78      0.00
   -9    1    4      5.05      0.00
   -7    1    4      4.65      0.00
   -6    1    4      7.22      0.00
   -5    1    4    -12.14      0.00
   -4    1    4     -4.83      0.00
   -3    1    4     -9.70      0.00
   -1    1    4      2.94      0.00
    0    1    4     54.79      0.00
    1    1    4    -16.14      0.00
    2    1    4     28.19      0.00
    3    1    4     -6.52      0.00
    4    1    4      6.65      0.00
    5    1    4      9.24      0.00
    6    1    4      0.47      0.00
    7    1    4      0.02      0.00
    8    1    4      2.95      0.00
    9    1    4     -5.99      0.00
   10    1    4     -3.27      0.00
   11    1    4      2.40      0.00
   12    1    4     -2.48      0.00
   13    1    4      3.12      0.00
   14    1    4      0.12      0.00
   15    1    4      4.26      0.00
   16    1    4     -0.52      0.00
   17    1    4      2.43      0.00
  -16    2    4      0.19      0.00
  -15    2    4     -6.27      0.00
  -14    2    4      5.33      0.00
  -13    2    4      5.92      0.00
  -12    2    4     11.63      0.00
  -11    2    4     -3.45      0.00
  -10    2    4      6.91      0.00
   -9    2    4     -0.67      0.00
   -8    2    4     -0.54      0.00
   -7    2    4      1.08      0.00
   -6    2    4    -13.10      0.00
   -5    2    4     -8.90      0.00
   -4    2    4     -8.75      0.00
   -3    2    4      0.09      0.00
   -2    2    4     13.09      0.00
   -1    2    4     39.16      0.00
    0    2    4      1.93      0.00
    1    2    4      1.30      0.00
    2    2    4      8.22      0.00
    3    2    4    -17.56      0.00
    4    2    4      1.96      0.00
    5    2    4    -13.24      0.00
    6    2    4     -7.48      0.00
    7    2    4      0.11      0.00
    8    2    4     -7.51      0.00
    9    2    4     -0.56      0.00
   10    2    4      0.01      0.00
   11    2    4     -2.21      0.00
   12    2    4      3.61      0.00
   13    2    4      2.43      0.00
   14    2    4      7.79      0.00
   15    2    4      2.28      0.00
   16    2    4     -0.68      0.00
   17    2    4      1.01      0.00
  -16    3    4      1.96      0.00
  -15    3    4      2.65      0.00
  -14    3    4      3.40      0.00
  -13    3    4     -4.83      0.00
  -12    3    4     -9.76      0.00
  -11    3    4     -3.19      0.00
  -10    3    4     -4.88      0.00
   -9    3    4     -5.05      0.00
   -8    3    4     -2.91      0.00
   -7    3    4     -5.67      0.00
   -6    3    4     -5.82      0.00
   -5    3    4     15.10      0.00
   -4    3    4     11.13      0.00
   -3    3    4     14.15      0.00
   -2    3    4     17.45      0.00
   -1    3    4    -16.19      0.00
    0    3    4    -26.65      0.00
    1    3    4     -6.76      0.00
    2    3    4    -16.72      0.00
    3    3    4     -7.80      0.00
    4    3    4      4.14      0.00
    5    3    4    -11.82      0.00
    6    3    4      9.73      0.00
    7    3    4     -6.88      0.00
    8    3    4      4.78      0.00
    9    3    4     -3.04      0.00
   10    3    4      5.86      0.00
   11    3    4     -0.77      0.00
   12    3    4      0.69      0.00
   13    3    4     -0.64      0.00
   14    3    4     -7.20      0.00
   15    3    4     -4.42      0.00
   16    3    4     -0.84      0.00
   17    3    4      0.02      0.00
  -16    4    4     -1.21      0.00
  -15    4    4      0.67      0.00
  -14    4    4      0.97      0.00
  -13    4    4     -4.79      0.00
  -12    4    4      3.70      0.00
  -11    4    4     -0.90      0.00
  -10    4    4      3.74      0.00
   -9    4    4      0.92      0.00
   -8    4    4      4.35      0.00
   -7    4    4      3.20      0.00
   -6    4    4     12.31      0.00
   -5    4    4      7.97      0.00
   -4    4    4     -4.94      0.00
   -3    4    4     10.79      0.00
   -2    4    4    -27.09      0.00
   -1    4    4    -11.01      0.00
    0    4    4    -13.32      0.00
    1    4    4     -2.82      0.00
    2    4    4    -12.06      0.00
    3    4    4     10.62      0.00
    4    4    4     -0.73      0.00
    5    4    4      8.71      0.00
    6    4    4      7.83      0.00
    7    4    4     -2.55      0.00
    8    4    4      6.16      0.00
    9    4    4      3.27      0.00
   10    4    4      2.46      0.00
   11    4    4     -0.42      0.00
   12    4    4      0.59      0.00
   13    4    4     -4.06      0.00
   14    4    4     -0.93      0.00
   15    4    4     -1.62      0.00
   16    4    4     -2.82      0.00
  -16    5    4     -2.48      0.00
  -15    5    4      4.80      0.00
  -14    5    4     -7.74      0.00
  -13    5    4      4.39      0.00
  -12    5    4     -0.30      0.00
  -11    5    4      2.32      0.00
  -10    5    4     -3.79      0.00
   -9    5    4      3.62      0.00
   -8    5    4     -1.85      0.00
   -7    5    4      2.96      0.00
   -6    5    4      3.07      0.00
   -5    5    4    -13.49      0.00
   -4    5    4      1.85      0.00
   -3    5    4    -21.84      0.00
   -2    5    4     -4.46      0.00
   -1    5    4     -0.79      0.00
    0    5    4     12.31      0.00
    1    5    4     16.65      0.00
    2    5    4     14.67      0.00
    3    5    4     24.71      0.00
    4    5    4     -6.48      0.00
    5    5    4     21.31      0.00
    6    5    4    -11.93      0.00
    7    5    4      9.49      0.00
    8    5    4      1.17      0.00
    9    5    4     -0.61      0.00
   10    5    4     -1.60      0.00
   11    5    4     -0.05      0.00
   12    5    4      0.13      0.00
   13    5    4     -1.55      0.00
   14    5    4      4.21      0.00
   15    5    4     -2.35      0.00
   16    5    4      6.51      0.00
  -16    6    4      1.77      0.00
  -15    6    4     -3.62      0.00
  -14    6    4     -4.98      0.00
  -13    6    4      5.19      0.00
  -12    6    4     -2.60      0.00
  -11    6    4      2.99      0.00
  -10    6    4      5.92      0.00
   -9    6    4     -0.58      0.00
   -8    6    4      1.35      0.00
   -7    6    4     -3.24      0.00
   -6    6    4     -9.65      0.00
   -5    6    4     -2.60      0.00
   -4    6    4     -2.06      0.00
   -3    6    4      1.74      0.00
   -2    6    4     12.97      0.00
   -1    6    4     13.68      0.00
    0    6    4     15.54      0.00
    1    6    4     -3.50      0.00
    2    6    4      6.96      0.00
    3    6    4    -21.48      0.00
    4    6    4     -0.32      0.00
    5    6    4    -15.55      0.00
    6    6    4    -10.20      0.00
    7    6    4      3.04      0.00
    8    6    4    -12.34      0.00
    9    6    4      0.91      0.00
   10    6    4     -6.99      0.00
   11    6    4      3.20      0.00
   12    6    4     -6.37      0.00
   13    6    4      5.80      0.00
   14    6    4     -2.32      0.00
   15    6    4      5.48      0.00
   16    6    4     -2.65      0.00
  -15    7    4     -4.72      0.00
  -14    7    4      6.13      0.00
  -13    7    4     -4.00      0.00
  -12    7    4     -1.89      0.00
  -11    7    4     -2.02      0.00
  -10    7    4     -5.76      0.00
   -9    7    4     -2.03      0.00
   -8    7    4     -3.17      0.00
   -7    7    4      1.06      0.00
   -6    7    4      1.44      0.00
   -5    7    4      7.21      0.00
   -4    7    4      6.60      0.00
   -3    7    4      8.20      0.00
   -2    7    4     11.55      0.00
   -1    7    4     -3.56      0.00
    0    7    4     -6.45      0.00
    1    7    4    -11.61      0.00
    2    7    4    -10.21      0.00
    3    7    4    -15.16      0.00
    4    7    4      2.30      0.00
    5    7    4    -11.18      0.00
    6    7    4     13.31      0.00
    7    7    4     -4.32      0.00
    8    7    4      3.88      0.00
    9    7    4     -1.06      0.00
   10    7    4      5.23      0.00
   11    7    4     -6.40      0.00
   12    7    4      5.73      0.00
   13    7    4     -0.42      0.00
   14    7    4      1.43      0.00
   15    7    4     -0.07      0.00
   16    7    4      2.01      0.00
  -15    8    4      0.09      0.00
  -14    8    4      7.35      0.00
  -13    8    4     -4.54      0.00
  -12    8    4      5.60      0.00
  -11    8    4     -3.00      0.00
  -10    8    4      0.26      0.00
   -9    8    4     -1.37      0.00
   -8    8    4      3.15      0.00
   -7    8    4     -1.77      0.00
   -6    8    4      1.45      0.00
   -5    8    4      2.78      0.00
   -4    8    4     -4.53      0.00
   -3    8    4     -2.10      0.00
   -2    8    4    -14.49      0.00
   -1    8    4     -9.37      0.00
    0    8    4    -14.01      0.00
    1    8    4     -1.60      0.00
    2    8    4     -7.11      0.00
    3    8    4     10.50      0.00
    4    8    4      4.45      0.00
    5    8    4      7.11      0.00
    6    8    4      7.07      0.00
    7    8    4     -2.78      0.00
    8    8    4      4.35      0.00
    9    8    4      3.12      0.00
   10    8    4     -1.85      0.00
   11    8    4      3.78      0.00
   12    8    4      0.68      0.00
   13    8    4     -4.86      0.00
   14    8    4      0.80      0.00
  -14    9    4     -7.08      0.00
  -13    9    4      1.13      0.00
  -12    9    4     -2.08      0.00
  -11    9    4      1.02      0.00
  -10    9    4      2.22      0.00
   -9    9    4      3.78      0.00
   -8    9    4     -3.38      0.00
   -7    9    4      1.08      0.00
   -6    9    4      4.91      0.00
   -5    9    4     -5.09      0.00
   -4    9    4     -1.89      0.00
   -3    9    4     -4.06      0.00
   -2    9    4     -5.09      0.00
   -1    9    4      1.89      0.00
    0    9    4      6.54      0.00
    1    9    4      7.76      0.00
    2    9    4     11.77      0.00
    3    9    4     11.23      0.00
    4    9    4     -0.34      0.00
    5    9    4      6.64      0.00
    6    9    4     -6.89      0.00
    7    9    4     -3.84      0.00
    8    9    4     -1.68      0.00
    9    9    4     -5.74      0.00
   10    9    4     -1.57      0.00
   11    9    4      2.98      0.00
   12    9    4     -2.01      0.00
   13    9    4      5.72      0.00
   14    9    4     -3.69      0.00
  -14   10    4      0.06      0.00
  -13   10    4      4.55      0.00
  -12   10    4      0.71      0.00
  -11   10    4      3.17      0.00
  -10   10    4     -0.14      0.00
   -9   10    4     -1.23      0.00
   -8   10    4      1.84      0.00
   -7   10    4      2.12      0.00
   -6   10    4     -6.35      0.00
   -5   10    4     -5.59      0.00
   -4   10    4     -1.61      0.00
   -3   10    4     -0.66      0.00
   -2   10    4      3.41      0.00
   -1   10    4      9.72      0.00
    0   10    4     -0.02      0.00
    1   10    4      7.51      0.00
    2   10    4      0.05      0.00
    3   10    4     -3.39      0.00
    4   10    4     -0.96      0.00
    5   10    4     -2.89      0.00
    6   10    4     -4.70      0.00
    7   10    4      6.55      0.00
    8   10    4     -1.29      0.00
    9   10    4      2.42      0.00
   10   10    4      4.26      0.00
   11   10    4     -0.04      0.00
   12   10    4     -3.20      0.00
   13   10    4     -3.11      0.00
   14   10    4      0.94      0.00
  -13   11    4     -0.29      0.00
  -12   11    4     -2.39      0.00
  -11   11    4      1.03      0.00
  -10   11    4     -3.08      0.00
   -9   11    4      0.85      0.00
   -8   11    4     -1.28      0.00
   -7   11    4     -2.03      0.00
   -6   11    4     -0.65      0.00
   -5   11    4      6.07      0.00
   -4   11    4      4.62      0.00
   -3   11    4      3.44      0.00
   -2   11    4      7.99      0.00
   -1   11    4     -5.36      0.00
    0   11    4      2.32      0.00
    1   11    4     -5.38      0.00
    2   11    4     -5.51      0.00
    3   11    4     -2.35      0.00
    4   11    4     -0.16      0.00
    5   11    4     -1.17      0.00
    6   11    4      0.57      0.00
    7   11    4     -1.05      0.00
    8   11    4     -3.83      0.00
    9   11    4      3.25      0.00
   10   11    4     -2.94      0.00
   11   11    4     -5.38      0.00
   12   11    4      2.31      0.00
   13   11    4      1.58      0.00
   14   11    4      0.05      0.00
  -12   12    4      2.80      0.00
  -11   12    4     -4.51      0.00
  -10   12    4      4.78      0.00
   -9   12    4     -3.43      0.00
   -8   12    4      4.79      0.00
   -7   12    4     -1.36      0.00
   -6   12    4      2.89      0.00
   -5   12    4      0.99      0.00
   -4   12    4      2.00      0.00
   -3   12    4     -0.39      0.00
   -2   12    4     -2.59      0.00
   -1   12    4     -6.33      0.00
    0   12    4     -0.39      0.00
    1   12    4     -6.58      0.00
    2   12    4     -0.47      0.00
    3   12    4     -3.99      0.00
    4   12    4     -7.03      0.00
    5   12    4     -8.00      0.00
    6   12    4      2.60      0.00
    7   12    4     -1.86      0.00
    8   12    4      8.22      0.00
    9   12    4     -5.01      0.00
   10   12    4      0.54      0.00
   11   12    4     -3.93      0.00
   12   12    4      4.23      0.00
   13   12    4     -7.95      0.00
   14   12    4      2.02      0.00
  -12   13    4     -1.88      0.00
  -11   13    4      1.45      0.00
  -10   13    4     -3.41      0.00
   -9   13    4      3.71      0.00
   -8   13    4     -3.44      0.00
   -7   13    4     -0.58      0.00
   -6   13    4      1.15      0.00
   -5   13    4     -1.14      0.00
   -4   13    4     -6.36      0.00
   -3   13    4     -4.07      0.00
   -2   13    4     -6.88      0.00
   -1   13    4      1.85      0.00
    0   13    4      0.48      0.00
    1   13    4      3.20      0.00
    2   13    4      2.49      0.00
    3   13    4      4.90      0.00
    4   13    4      5.39      0.00
    5   13    4     13.70      0.00
    6   13    4      2.99      0.00
    7   13    4      3.65      0.00
    8   13    4     -7.64      0.00
    9   13    4      2.63      0.00
   10   13    4     -5.32      0.00
   11   13    4      8.35      0.00
   12   13    4     -6.45      0.00
   13   13    4      6.99      0.00
  -11   14    4      0.03      0.00
  -10   14    4      1.77      0.00
   -9   14    4     -1.77      0.00
   -8   14    4     -1.54      0.00
   -7   14    4      2.32      0.00
   -6   14    4     -0.27      0.00
   -5   14    4     -1.03      0.00
   -4   14    4      1.34      0.00
   -3   14    4      3.63      0.00
   -2   14    4      5.77      0.00
   -1   14    4      8.87      0.00
    0   14    4      4.72      0.00
    1   14    4      5.00      0.00
    2   14    4      2.92      0.00
    3   14    4     -1.10      0.00
    4   14    4     -2.59      0.00
    5   14    4     -6.71      0.00
    6   14    4     -6.57      0.00
    7   14    4     -6.37      0.00
    8   14    4      5.17      0.00
    9   14    4     -3.27      0.00
   10   14    4      8.93      0.00
   11   14    4     -0.14      0.00
   12   14    4      4.56      0.00
   -9   15    4     -0.61      0.00
   -8   15    4      1.34      0.00
   -7   15    4      2.32      0.00
   -6   15    4     -2.03      0.00
   -5   15    4      1.16      0.00
   -4   15    4      2.15      0.00
   -3   15    4      3.84      0.00
   -2   15    4      4.16      0.00
   -1   15    4     -0.07      0.00
    0   15    4     -6.17      0.00
    1   15    4     -4.56      0.00
    2   15    4     -5.17      0.00
    3   15    4     -3.93      0.00
    4   15    4      4.62      0.00
    5   15    4     -1.06      0.00
    6   15    4      6.79      0.00
    7   15    4      2.76      0.00
    8   15    4      2.21      0.00
    9   15    4      4.82      0.00
   10   15    4     -0.89      0.00
   11   15    4      0.75      0.00
   -8   16    4      1.35      0.00
   -7   16    4     -3.39      0.00
   -6   16    4     -1.00      0.00
   -5   16    4     -0.70      0.00
   -4   16    4      0.51      0.00
   -3   16    4     -0.53      0.00
   -2   16    4     -6.49      0.00
   -1   16    4     -5.78      0.00
    0   16    4     -1.28      0.00
    1   16    4      4.80      0.00
    2   16    4      0.10      0.00
    3   16    4     12.32      0.00
    4   16    4     -2.14      0.00
    5   16    4      8.62      0.00
    6   16    4     -3.56      0.00
    7   16    4      4.15      0.00
    8   16    4     -3.24      0.00
    9   16    4     -1.76      0.00
   -6   17    4      1.08      0.00
   -5   17    4      1.29      0.00
   -4   17    4     -1.37      0.00
   -3   17    4     -4.06      0.00
   -2   17    4      0.02      0.00
   -1   17    4      1.20      0.00
    0   17    4      2.96      0.00
    1   17    4     -6.69      0.00
    2   17    4      6.02      0.00
    3   17    4    -10.05      0.00
    4   17    4      0.66      0.00
    5   17    4     -5.29      0.00
    6   17    4     -1.78      0.00
    7   17    4     -0.30      0.00
    8   17    4     -0.67      0.00
   -4   18    4      1.82      0.00
   -3   18    4      0.84      0.00
   -2   18    4      1.83      0.00
   -1   18    4     -1.32      0.00
    0   18    4     -1.00      0.00
    1   18    4      2.70      0.00
    2   18    4     -3.20      0.00
    3   18    4     -2.65      0.00
    4   18    4     -0.13      0.00
    5   18    4     -6.32      0.00
   -6  -17    5      3.06      0.00
   -5  -17    5      0.34      0.00
   -4  -17    5     -2.34      0.00
   -3  -17    5     -1.61      0.00
   -2  -17    5     -3.89      0.00
   -1  -17    5     -1.77      0.00
    0  -17    5      0.38      0.00
    1  -17    5     -1.72      0.00
    2  -17    5      3.06      0.00
    3  -17    5      2.34      0.00
    4  -17    5     -4.19      0.00
   -8  -16    5     -2.31      0.00
   -7  -16    5      1.28      0.00
   -6  -16    5     -2.17      0.00
   -5  -16    5     -1.03      0.00
   -4  -16    5      1.26      0.00
   -3  -16    5      3.34      0.00
   -2  -16    5      2.41      0.00
   -1  -16    5      5.81      0.00
    0  -16    5     -1.87      0.00
    1  -16    5      5.01      0.00
    2  -16    5      2.56      0.00
    3  -16    5     -1.40      0.00
    4  -16    5      2.72      0.00
    5  -16    5      2.03      0.00
    6  -16    5     -1.25      0.00
  -10  -15    5      1.46      0.00
   -9  -15    5      1.59      0.00
   -8  -15    5      2.49      0.00
   -7  -15    5      0.32      0.00
   -6  -15    5      1.79      0.00
   -5  -15    5     -3.75      0.00
   -4  -15    5      2.30      0.00
   -3  -15    5     -4.58      0.00
   -2  -15    5      1.90      0.00
   -1  -15    5     -4.82      0.00
    0  -15    5      2.99      0.00
    1  -15    5      1.43      0.00
    2  -15    5     -3.51      0.00
    3  -15    5     -1.23      0.00
    4  -15    5      1.12      0.00
    5  -15    5     -5.14      0.00
    6  -15    5      1.78      0.00
    7  -15    5      2.00      0.00
    8  -15    5     -1.35      0.00
  -11  -14    5      2.60      0.00
  -10  -14    5      2.35      0.00
   -9  -14    5      2.48      0.00
   -8  -14    5     -0.74      0.00
   -7  -14    5      1.80      0.00
   -6  -14    5     -2.16      0.00
   -5  -14    5      5.90      0.00
   -4  -14    5      0.48      0.00
   -3  -14    5      1.43      0.00
   -2  -14    5     -1.78      0.00
   -1  -14    5      1.35      0.00
    0  -14    5     -0.86      0.00
    1  -14    5     -3.26      0.00
    2  -14    5     -1.76      0.00
    3  -14    5     -0.08      0.00
    4  -14    5     -2.64      0.00
    5  -14    5     -2.42      0.00
    6  -14    5      2.93      0.00
    7  -14    5     -4.13      0.00
    8  -14    5      0.27      0.00
    9  -14    5     -0.28      0.00
  -12  -13    5      0.41      0.00
  -11  -13    5     -4.43      0.00
  -10  -13    5     -0.53      0.00
   -9  -13    5     -3.98      0.00
   -8  -13    5     -0.13      0.00
   -7  -13    5      0.32      0.00
   -6  -13    5      2.06      0.00
   -5  -13    5     -0.44      0.00
   -4  -13    5     -0.66      0.00
   -3  -13    5      2.58      0.00
   -2  -13    5      2.63      0.00
   -1  -13    5      1.31      0.00
    0  -13    5     -1.23      0.00
    1  -13    5     -4.32      0.00
    2  -13    5     -1.38      0.00
    3  -13    5     -2.39      0.00
    4  -13    5     -2.36      0.00
    5  -13    5      7.21      0.00
    6  -13    5     -0.90      0.00
    7  -13    5     -1.46      0.00
    8  -13    5      1.09      0.00
    9  -13    5     -5.77      0.00
   10  -13    5      3.21      0.00
   11  -13    5      0.90      0.00
  -13  -12    5     -0.17      0.00
  -12  -12    5     -5.61      0.00
  -11  -12    5      0.88      0.00
  -10  -12    5     -1.67      0.00
   -9  -12    5      0.45      0.00
   -8  -12    5      2.65      0.00
   -7  -12    5     -1.55      0.00
   -6  -12    5      1.05      0.00
   -5  -12    5     -2.85      0.00
   -4  -12    5      0.33      0.00
   -3  -12    5     -6.81      0.00
   -2  -12    5     -6.71      0.00
   -1  -12    5     -6.01      0.00
    0  -12    5     -8.26      0.00
    1  -12    5      0.84      0.00
    2  -12    5     -0.29      0.00
    3  -12    5      1.07      0.00
    4  -12    5      4.00      0.00
    5  -12    5     -2.25      0.00
    6  -12    5     -7.86      0.00
    7  -12    5      6.38      0.00
    8  -12    5     -2.86      0.00
    9  -12    5      6.97      0.00
   11  -12    5      3.79      0.00
   12  -12    5     -5.79      0.00
  -14  -11    5     -1.79      0.00
  -13  -11    5     -1.27      0.00
  -12  -11    5      2.83      0.00
  -11  -11    5      1.59      0.00
  -10  -11    5      1.93      0.00
   -9  -11    5     -0.51      0.00
   -8  -11    5      0.42      0.00
   -7  -11    5     -2.55      0.00
   -6  -11    5     -3.76      0.00
   -5  -11    5     -1.36      0.00
   -4  -11    5     -6.05      0.00
   -3  -11    5     -0.85      0.00
   -2  -11    5      4.41      0.00
   -1  -11    5     -2.60      0.00
    0  -11    5      8.58      0.00
    1  -11    5      5.20      0.00
    2  -11    5      2.93      0.00
    3  -11    5      6.40      0.00
    4  -11    5     -0.30      0.00
    5  -11    5     -0.72      0.00
    6  -11    5      7.34      0.00
    7  -11    5      1.00      0.00
    8  -11    5     -1.02      0.00
    9  -11    5      1.73      0.00
   10  -11    5     -1.34      0.00
   11  -11    5     -7.01      0.00
   12  -11    5     -0.08      0.00
  -14  -10    5      1.19      0.00
  -13  -10    5      3.41      0.00
  -12  -10    5     -0.89      0.00
  -11  -10    5      1.05      0.00
  -10  -10    5     -4.71      0.00
   -9  -10    5      0.16      0.00
   -8  -10    5     -5.64      0.00
   -7  -10    5     -1.33      0.00
   -6  -10    5      0.81      0.00
   -5  -10    5     -0.16      0.00
   -4  -10    5      4.95      0.00
   -3  -10    5      3.34      0.00
   -2  -10    5      3.11      0.00
   -1  -10    5      5.45      0.00
    0  -10    5     10.40      0.00
    1  -10    5     -0.45      0.00
    2  -10    5      5.21      0.00
    3  -10    5     -3.58      0.00
    4  -10    5     -3.86      0.00
    5  -10    5      0.63      0.00
    6  -10    5     -2.87      0.00
    7  -10    5     -4.08      0.00
    8  -10    5      2.70      0.00
    9  -10    5     -2.45      0.00
   10  -10    5     -5.48      0.00
   11  -10    5      4.18      0.00
   12  -10    5      2.94      0.00
   13  -10    5      1.47      0.00
  -15   -9    5     -1.09      0.00
  -14   -9    5     -0.22      0.00
  -13   -9    5     -1.25      0.00
  -12   -9    5      0.81      0.00
  -11   -9    5     -1.92      0.00
  -10   -9    5      2.36      0.00
   -9   -9    5      2.10      0.00
   -8   -9    5      0.93      0.00
   -7   -9    5      4.74      0.00
   -6   -9    5     -0.22      0.00
   -5   -9    5      3.73      0.00
   -4   -9    5     -1.05      0.00
   -3   -9    5      9.06      0.00
   -2   -9    5     -2.77      0.00
   -1   -9    5      8.69      0.00
    0   -9    5     -7.29      0.00
    1   -9    5     -8.55      0.00
    2   -9    5     -5.18      0.00
    3   -9    5     -9.86      0.00
    4   -9    5      2.15      0.00
    5   -9    5     -0.32      0.00
    6   -9    5      4.74      0.00
    7   -9    5     -1.05      0.00
    8   -9    5      1.09      0.00
    9   -9    5     -7.18      0.00
   10   -9    5      4.46      0.00
   11   -9    5     -1.20      0.00
   12   -9    5     -0.75      0.00
   13   -9    5     -3.21      0.00
   14   -9    5     -0.95      0.00
  -15   -8    5      0.15      0.00
  -14   -8    5      2.79      0.00
  -13   -8    5     -0.02      0.00
  -12   -8    5      2.09      0.00
  -11   -8    5      2.47      0.00
  -10   -8    5      3.57      0.00
   -9   -8    5      0.12      0.00
   -8   -8    5      4.12      0.00
   -7   -8    5      2.24      0.00
   -6   -8    5     -0.61      0.00
   -5   -8    5      3.58      0.00
   -4   -8    5     -0.84      0.00
   -3   -8    5     -5.08      0.00
   -2   -8    5     -4.67      0.00
   -1   -8    5     -7.79      0.00
    0   -8    5    -16.86      0.00
    1   -8    5      5.09      0.00
    2   -8    5     -4.60      0.00
    3   -8    5      9.42      0.00
    4   -8    5      6.53      0.00
    5   -8    5      3.34      0.00
    6   -8    5     -4.14      0.00
    7   -8    5      1.42      0.00
    8   -8    5     -3.12      0.00
    9   -8    5      2.45      0.00
   10   -8    5      1.87      0.00
   11   -8    5     -0.32      0.00
   12   -8    5     -3.18      0.00
   13   -8    5      2.24      0.00
   14   -8    5      1.79      0.00
  -16   -7    5      0.26      0.00
  -15   -7    5      0.91      0.00
  -14   -7    5     -1.71      0.00
  -13   -7    5      0.61      0.00
  -12   -7    5     -0.56      0.00
  -11   -7    5     -0.51      0.00
  -10   -7    5     -1.03      0.00
   -9   -7    5     -2.87      0.00
   -8   -7    5      1.57      0.00
   -7   -7    5     -8.98      0.00
   -6   -7    5      3.87      0.00
   -5   -7    5     -5.78      0.00
   -4   -7    5     -2.21      0.00
   -3   -7    5     -3.77      0.00
   -2   -7    5     -2.22      0.00
   -1   -7    5     -3.85      0.00
    0   -7    5      8.07      0.00
    1   -7    5     11.95      0.00
    2   -7    5      2.85      0.00
    3   -7    5     12.35      0.00
    4   -7    5     -3.94      0.00
    5   -7    5     -0.16      0.00
    6   -7    5      0.25      0.00
    7   -7    5      0.45      0.00
    8   -7    5     -1.95      0.00
    9   -7    5      4.94      0.00
   10   -7    5     -0.18      0.00
   11   -7    5     -0.55      0.00
   12   -7    5      5.24      0.00
   13   -7    5      2.53      0.00
   14   -7    5      1.54      0.00
   15   -7    5     -1.98      0.00
  -16   -6    5      2.04      0.00
  -15   -6    5      2.02      0.00
  -14   -6    5      0.26      0.00
  -13   -6    5      0.32      0.00
  -12   -6    5     -0.93      0.00
  -11   -6    5     -1.19      0.00
  -10   -6    5     -2.82      0.00
   -9   -6    5     -0.05      0.00
   -8   -6    5     -2.98      0.00
   -7   -6    5     -0.46      0.00
   -6   -6    5      2.06      0.00
   -5   -6    5    -12.00      0.00
   -4   -6    5      6.62      0.00
   -3   -6    5     -7.82      0.00
   -2   -6    5     10.45      0.00
   -1   -6    5      1.39      0.00
    0   -6    5     20.36      0.00
    1   -6    5     -6.53      0.00
    2   -6    5      5.42      0.00
    3   -6    5     -7.64      0.00
    4   -6    5     -8.11      0.00
    5   -6    5     -6.38      0.00
    6   -6    5     -2.77      0.00
    7   -6    5     -4.09      0.00
    8   -6    5      2.10      0.00
    9   -6    5      0.80      0.00
   10   -6    5     -4.68      0.00
   11   -6    5      3.28      0.00
   12   -6    5      0.90      0.00
   13   -6    5     -3.22      0.00
   14   -6    5      0.77      0.00
   15   -6    5     -3.34      0.00
  -16   -5    5      1.11      0.00
  -15   -5    5     -2.11      0.00
  -14   -5    5     -0.76      0.00
  -13   -5    5     -2.15      0.00
  -12   -5    5     -0.85      0.00
  -11   -5    5     -2.90      0.00
  -10   -5    5     -1.32      0.00
   -9   -5    5      5.26      0.00
   -8   -5    5     -5.38      0.00
   -7   -5    5     11.97      0.00
   -6   -5    5     -3.32      0.00
   -5   -5    5     16.89      0.00
   -4   -5    5      7.27      0.00
   -3   -5    5     11.16      0.00
   -2   -5    5      7.58      0.00
   -1   -5    5      5.27      0.00
    0   -5    5     -4.35      0.00
    1   -5    5    -21.19      0.00
    2   -5    5      1.09      0.00
    3   -5    5    -22.06      0.00
    4   -5    5     -3.17      0.00
    5   -5    5      1.07      0.00
    6   -5    5     -0.88      0.00
    7   -5    5      2.33      0.00
    8   -5    5      7.07      0.00
    9   -5    5     -2.76      0.00
   10   -5    5      5.79      0.00
   11   -5    5      3.65      0.00
   12   -5    5     -6.16      0.00
   13   -5    5      0.79      0.00
   14   -5    5     -8.81      0.00
   15   -5    5      1.71      0.00
   16   -5    5     -2.37      0.00
  -16   -4    5     -3.27      0.00
  -15   -4    5     -0.93      0.00
  -14   -4    5      0.32      0.00
  -13   -4    5      1.87      0.00
  -12   -4    5      1.44      0.00
  -11   -4    5      2.88      0.00
  -10   -4    5      5.40      0.00
   -9   -4    5     -2.82      0.00
   -8   -4    5      3.26      0.00
   -7   -4    5      1.93      0.00
   -6   -4    5     -8.97      0.00
   -5   -4    5      4.82      0.00
   -4   -4    5    -18.74      0.00
   -3   -4    5      1.29      0.00
   -2   -4    5    -16.73      0.00
   -1   -4    5     -4.07      0.00
    0   -4    5    -26.77      0.00
    1   -4    5     12.39      0.00
    2   -4    5     -3.14      0.00
    3   -4    5      4.44      0.00
    4   -4    5     27.08      0.00
    5   -4    5      3.56      0.00
    6   -4    5     10.18      0.00
    7   -4    5      8.77      0.00
    8   -4    5     -5.36      0.00
    9   -4    5     -0.39      0.00
   10   -4    5      2.47      0.00
   11   -4    5     -7.51      0.00
   12   -4    5      2.04      0.00
   13   -4    5      0.99      0.00
   14   -4    5      8.05      0.00
   15   -4    5      6.28      0.00
   16   -4    5      3.32      0.00
  -17   -3    5     -2.76      0.00
  -16   -3    5     -0.21      0.00
  -15   -3    5      0.49      0.00
  -14   -3    5      1.54      0.00
  -13   -3    5     -1.53      0.00
  -12   -3    5      0.31      0.00
  -11   -3    5      3.16      0.00
  -10   -3    5     -0.42      0.00
   -9   -3    5     -4.18      0.00
   -8   -3    5      5.86      0.00
   -7   -3    5    -13.38      0.00
   -6   -3    5      8.04      0.00
   -5   -3    5     -6.09      0.00
   -4   -3    5      3.78      0.00
   -3   -3    5      5.53      0.00
   -2   -3    5     -3.22      0.00
   -1   -3    5      2.14      0.00
    0   -3    5      9.53      0.00
    1   -3    5     24.56      0.00
    2   -3    5     -7.31      0.00
    3   -3    5     31.96      0.00
    4   -3    5     -7.85      0.00
    5   -3    5     -4.55      0.00
    6   -3    5     -0.91      0.00
    7   -3    5    -12.13      0.00
    8   -3    5     -3.50      0.00
    9   -3    5      0.94      0.00
   10   -3    5     -8.75      0.00
   11   -3    5     -3.15      0.00
   12   -3    5      3.38      0.00
   13   -3    5     -0.61      0.00
   14   -3    5      2.09      0.00
   15   -3    5     -6.23      0.00
   16   -3    5     -4.40      0.00
  -17   -2    5     -2.48      0.00
  -16   -2    5      2.83      0.00
  -15   -2    5     -1.60      0.00
  -14   -2    5     -0.06      0.00
  -13   -2    5     -0.61      0.00
  -12   -2    5     -0.12      0.00
  -11   -2    5     -6.52      0.00
  -10   -2    5     -7.11      0.00
   -9   -2    5      0.62      0.00
   -8   -2    5     -4.02      0.00
   -7   -2    5     -2.28      0.00
   -6   -2    5      4.30      0.00
   -5   -2    5     -6.78      0.00
   -4   -2    5      3.16      0.00
   -3   -2    5     -5.69      0.00
   -2   -2    5     -4.16      0.00
   -1   -2    5     14.18      0.00
    0   -2    5     11.93      0.00
    1   -2    5     -6.93      0.00
    2   -2    5      5.48      0.00
    3   -2    5     -6.27      0.00
    4   -2    5    -27.39      0.00
    5   -2    5      2.51      0.00
    6   -2    5     -6.99      0.00
    7   -2    5      0.66      0.00
    8   -2    5      4.44      0.00
    9   -2    5      2.28      0.00
   10   -2    5      2.90      0.00
   11   -2    5     12.45      0.00
   12   -2    5      2.44      0.00
   13   -2    5     -1.62      0.00
   14   -2    5     -5.24      0.00
   15   -2    5     -0.35      0.00
   16   -2    5      3.11      0.00
  -17   -1    5      2.80      0.00
  -16   -1    5     -0.29      0.00
  -15   -1    5      4.23      0.00
  -14   -1    5     -2.04      0.00
  -13   -1    5      3.25      0.00
  -12   -1    5     -3.34      0.00
  -11   -1    5      3.86      0.00
  -10   -1    5      4.12      0.00
   -9   -1    5      6.48      0.00
   -8   -1    5     -1.29      0.00
   -7   -1    5      8.55      0.00
   -6   -1    5      5.80      0.00
   -5   -1    5     -5.83      0.00
   -4   -1    5     16.06      0.00
   -3   -1    5    -14.43      0.00
   -1   -1    5     -9.25      0.00
    0   -1    5      0.32      0.00
    1   -1    5    -18.11      0.00
    2   -1    5     -3.74      0.00
    3   -1    5    -31.34      0.00
    4   -1    5      4.99      0.00
    5   -1    5      4.82      0.00
    6   -1    5    -10.01      0.00
    7   -1    5      7.75      0.00
    8   -1    5     -1.45      0.00
    9   -1    5     -3.63      0.00
   10   -1    5      2.94      0.00
   11   -1    5     -9.68      0.00
   12   -1    5    -10.40      0.00
   13   -1    5     -3.81      0.00
   14   -1    5      1.32      0.00
   15   -1    5     -1.73      0.00
   16   -1    5     -1.13      0.00
   17   -1    5     -2.04      0.00
  -17    0    5      1.42      0.00
  -16    0    5     -2.35      0.00
  -15    0    5     -5.69      0.00
  -14    0    5     -2.82      0.00
  -13    0    5     -4.03      0.00
  -12    0    5     -0.40      0.00
  -11    0    5     -2.04      0.00
  -10    0    5      2.85      0.00
   -9    0    5     -2.27      0.00
   -8    0    5      3.15      0.00
   -7    0    5     11.99      0.00
   -6    0    5    -16.49      0.00
   -5    0    5     14.45      0.00
   -4    0    5    -14.47      0.00
   -3    0    5      4.13      0.00
   -2    0    5     -3.33      0.00
   -1    0    5    -29.37      0.00
    0    0    5     -6.11      0.00
    1    0    5    -18.80      0.00
    2    0    5      1.67      0.00
    3    0    5      4.78      0.00
    4    0    5     28.54      0.00
    5    0    5     -3.73      0.00
    6    0    5     20.05      0.00
    7    0    5      6.10      0.00
    8    0    5      1.18      0.00
    9    0    5      3.04      0.00
   10    0    5     -0.71      0.00
   11    0    5      1.98      0.00
   12    0    5      2.52      0.00
   13    0    5     10.34      0.00
   14    0    5     -2.81      0.00
   15    0    5      3.18      0.00
   16    0    5      0.65      0.00
   17    0    5      1.72      0.00
  -17    1    5     -3.80      0.00
  -16    1    5     -2.41      0.00
  -15    1    5      4.86      0.00
  -14    1    5      5.07      0.00
  -13    1    5      5.28      0.00
  -12    1    5      1.48      0.00
  -11    1    5      8.18      0.00
  -10    1    5     -3.74      0.00
   -9    1    5     -0.36      0.00
   -8    1    5     -3.18      0.00
   -7    1    5    -20.94      0.00
   -6    1    5     -7.21      0.00
   -5    1    5     -0.78      0.00
   -4    1    5    -13.62      0.00
   -3    1    5     13.04      0.00
   -2    1    5    -31.13      0.00
   -1    1    5     10.87      0.00
    0    1    5     -0.68      0.00
    1    1    5     23.46      0.00
    2    1    5     12.70      0.00
    3    1    5     24.60      0.00
    4    1    5     -1.62      0.00
    5    1    5     -1.47      0.00
    6    1    5      2.95      0.00
    7    1    5    -18.57      0.00
    8    1    5      0.67      0.00
    9    1    5     -5.83      0.00
   10    1    5     -2.95      0.00
   11    1    5     -5.01      0.00
   12    1    5      6.32      0.00
   13    1    5     -6.84      0.00
   14    1    5     -0.17      0.00
   15    1    5      2.44      0.00
   16    1    5     -0.63      0.00
   17    1    5      1.41      0.00
  -17    2    5      3.60      0.00
  -16    2    5      7.30      0.00
  -15    2    5     -2.24      0.00
  -14    2    5      0.20      0.00
  -13    2    5    -10.37      0.00
  -12    2    5      7.71      0.00
  -11    2    5    -12.13      0.00
  -10    2    5      3.48      0.00
   -9    2    5     -5.98      0.00
   -8    2    5     -1.67      0.00
   -7    2    5      2.67      0.00
   -6    2    5     21.25      0.00
   -5    2    5      2.96      0.00
   -4    2    5     12.68      0.00
   -3    2    5      5.68      0.00
    0    2    5      1.01      0.00
    1    2    5     17.73      0.00
    2    2    5    -13.98      0.00
    3    2    5      5.56      0.00
    4    2    5    -28.85      0.00
    5    2    5      2.02      0.00
    6    2    5    -20.87      0.00
    7    2    5      1.38      0.00
    8    2    5     -4.39      0.00
    9    2    5      0.75      0.00
   10    2    5     -0.33      0.00
   11    2    5      8.36      0.00
   12    2    5     -2.06      0.00
   13    2    5     -3.88      0.00
   14    2    5      7.51      0.00
   15    2    5     -5.23      0.00
   16    2    5      2.49      0.00
   17    2    5     -2.23      0.00
  -16    3    5     -7.80      0.00
  -15    3    5      1.51      0.00
  -14    3    5     -4.57      0.00
  -13    3    5     10.45      0.00
  -12    3    5     -4.79      0.00
  -11    3    5      3.04      0.00
  -10    3    5     -3.57      0.00
   -9    3    5      5.20      0.00
   -8    3    5      4.46      0.00
   -7    3    5      8.56      0.00
   -6    3    5      0.92      0.00
   -5    3    5    -16.65      0.00
   -4    3    5      7.03      0.00
   -3    3    5    -20.10      0.00
   -2    3    5     16.32      0.00
   -1    3    5    -13.99      0.00
    0    3    5      0.72      0.00
    1    3    5    -21.50      0.00
    2    3    5      0.78      0.00
    3    3    5    -31.70      0.00
    4    3    5      3.46      0.00
    5    3    5     -1.58      0.00
    6    3    5      3.45      0.00
    7    3    5     11.13      0.00
    8    3    5      3.49      0.00
    9    3    5      4.17      0.00
   10    3    5      4.08      0.00
   11    3    5      0.06      0.00
   12    3    5     -3.59      0.00
   13    3    5     10.31      0.00
   14    3    5     -3.81      0.00
   15    3    5      4.95      0.00
   16    3    5     -1.36      0.00
   17    3    5      3.26      0.00
  -16    4    5      0.96      0.00
  -15    4    5     -3.64      0.00
  -14    4    5      0.14      0.00
  -13    4    5     -3.87      0.00
  -12    4    5     -6.69      0.00
  -11    4    5      1.36      0.00
  -10    4    5      5.17      0.00
   -9    4    5      0.16      0.00
   -8    4    5      1.50      0.00
   -7    4    5      1.00      0.00
   -6    4    5    -11.35      0.00
   -5    4    5      6.42      0.00
   -4    4    5     -1.24      0.00
   -3    4    5      3.06      0.00
   -2    4    5     -2.85      0.00
   -1    4    5     -9.02      0.00
    0    4    5     -6.20      0.00
    1    4    5      1.61      0.00
    2    4    5     -0.93      0.00
    3    4    5      6.52      0.00
    4    4    5     17.61      0.00
    5    4    5      2.24      0.00
    6    4    5      7.62      0.00
    7    4    5      3.05      0.00
    8    4    5     -4.05      0.00
    9    4    5      1.34      0.00
   10    4    5     -3.99      0.00
   11    4    5     -3.42      0.00
   12    4    5      0.58      0.00
   13    4    5     -1.89      0.00
   14    4    5     -2.20      0.00
   15    4    5      1.27      0.00
   16    4    5     -1.33      0.00
   17    4    5      1.37      0.00
  -16    5    5      5.20      0.00
  -15    5    5      5.09      0.00
  -14    5    5      4.61      0.00
  -13    5    5      4.02      0.00
  -12    5    5      5.78      0.00
  -11    5    5      8.41      0.00
  -10    5    5     -5.22      0.00
   -9    5    5      1.89      0.00
   -8    5    5     -4.38      0.00
   -7    5    5     -9.97      0.00
   -6    5    5     -4.55      0.00
   -5    5    5      4.55      0.00
   -4    5    5    -11.36      0.00
   -3    5    5      0.60      0.00
   -2    5    5     -2.33      0.00
   -1    5    5     -6.36      0.00
    0    5    5      9.99      0.00
    1    5    5     -1.96      0.00
    2    5    5      6.11      0.00
    3    5    5     15.37      0.00
    4    5    5      4.49      0.00
    5    5    5     -1.98      0.00
    6    5    5      3.23      0.00
    7    5    5     -9.47      0.00
    8    5    5      2.37      0.00
    9    5    5     -2.34      0.00
   10    5    5      2.10      0.00
   11    5    5     -2.55      0.00
   12    5    5      2.84      0.00
   13    5    5     -5.82      0.00
   14    5    5      0.01      0.00
   15    5    5     -6.73      0.00
  -16    6    5      1.53      0.00
  -15    6    5     -0.38      0.00
  -14    6    5      1.67      0.00
  -13    6    5     -2.07      0.00
  -12    6    5     -0.52      0.00
  -11    6    5     -7.06      0.00
  -10    6    5     -2.78      0.00
   -9    6    5     -3.42      0.00
   -8    6    5     -3.08      0.00
   -7    6    5      3.09      0.00
   -6    6    5      9.14      0.00
   -5    6    5      2.38      0.00
   -4    6    5     -0.21      0.00
   -3    6    5     17.98      0.00
   -2    6    5     -7.69      0.00
   -1    6    5     22.15      0.00
    0    6    5      1.79      0.00
    1    6    5     12.98      0.00
    2    6    5      8.43      0.00
    3    6    5      2.33      0.00
    4    6    5    -12.23      0.00
    5    6    5     -0.69      0.00
    6    6    5     -3.53      0.00
    7    6    5     -2.65      0.00
    8    6    5      2.60      0.00
    9    6    5     -1.14      0.00
   10    6    5     -0.86      0.00
   11    6    5      4.86      0.00
   12    6    5      1.55      0.00
   13    6    5      2.13      0.00
   14    6    5      1.63      0.00
   15    6    5      3.93      0.00
  -15    7    5     -2.53      0.00
  -14    7    5     -2.71      0.00
  -13    7    5     -3.20      0.00
  -12    7    5      3.24      0.00
  -11    7    5     -2.98      0.00
  -10    7    5      5.07      0.00
   -9    7    5      1.56      0.00
   -8    7    5      2.95      0.00
   -7    7    5      7.45      0.00
   -6    7    5      2.67      0.00
   -5    7    5     -4.81      0.00
   -4    7    5     13.79      0.00
   -3    7    5    -10.70      0.00
   -2    7    5      4.80      0.00
   -1    7    5     -0.65      0.00
    0    7    5    -10.92      0.00
    1    7    5     -5.09      0.00
    2    7    5    -13.12      0.00
    3    7    5    -15.93      0.00
    4    7    5     -6.68      0.00
    5    7    5      2.88      0.00
    6    7    5     -8.37      0.00
    7    7    5      6.88      0.00
    8    7    5     -1.73      0.00
    9    7    5      1.22      0.00
   10    7    5      3.75      0.00
   11    7    5      0.34      0.00
   12    7    5     -1.79      0.00
   13    7    5     -1.60      0.00
   14    7    5      0.85      0.00
  -15    8    5      0.26      0.00
  -14    8    5     -4.29      0.00
  -13    8    5      2.13      0.00
  -12    8    5     -5.44      0.00
  -11    8    5      1.59      0.00
  -10    8    5      3.59      0.00
   -9    8    5     -1.26      0.00
   -8    8    5      7.93      0.00
   -7    8    5     -2.27      0.00
   -6    8    5     -5.68      0.00
   -5    8    5      2.41      0.00
   -4    8    5     -4.77      0.00
   -3    8    5     -9.50      0.00
   -2    8    5      5.74      0.00
   -1    8    5    -15.08      0.00
    0    8    5     -0.13      0.00
    1    8    5     -4.38      0.00
    2    8    5     -4.02      0.00
    3    8    5      0.03      0.00
    4    8    5     11.76      0.00
    5    8    5     -3.41      0.00
    6    8    5      7.90      0.00
    7    8    5      3.55      0.00
    8    8    5     -0.54      0.00
    9    8    5      0.31      0.00
   10    8    5     -3.60      0.00
   11    8    5     -3.47      0.00
   12    8    5     -4.33      0.00
   13    8    5      3.36      0.00
   14    8    5     -0.44      0.00
  -14    9    5      2.66      0.00
  -13    9    5      1.19      0.00
  -12    9    5     -0.75      0.00
  -11    9    5      1.41      0.00
  -10    9    5     -3.92      0.00
   -9    9    5     -0.38      0.00
   -8    9    5     -5.68      0.00
   -7    9    5     -7.71      0.00
   -6    9    5      0.05      0.00
   -5    9    5     -2.99      0.00
   -4    9    5     -4.67      0.00
   -3    9    5      6.89      0.00
   -2    9    5      0.67      0.00
    0    9    5      9.31      0.00
    1    9    5      2.34      0.00
    2    9    5      5.56      0.00
    3    9    5     10.51      0.00
    4    9    5     -1.76      0.00
    5    9    5     -0.47      0.00
    6    9    5      4.99      0.00
    7    9    5     -6.00      0.00
    8    9    5      1.34      0.00
    9    9    5     -0.28      0.00
   10    9    5      2.04      0.00
   11    9    5     -3.41      0.00
   12    9    5      4.89      0.00
   13    9    5      0.50      0.00
   14    9    5     -1.30      0.00
  -14   10    5      3.39      0.00
  -13   10    5     -6.21      0.00
  -12   10    5      3.86      0.00
  -11   10    5      0.55      0.00
  -10   10    5     -2.75      0.00
   -9   10    5     -1.02      0.00
   -8   10    5     -2.54      0.00
   -7   10    5      2.64      0.00
   -6   10    5      4.30      0.00
   -5   10    5      3.67      0.00
   -4   10    5      3.94      0.00
   -3   10    5      5.05      0.00
   -2   10    5     -4.37      0.00
   -1   10    5      5.57      0.00
    0   10    5      0.67      0.00
    1   10    5     -1.02      0.00
    2   10    5     -1.29      0.00
    3   10    5     -0.91      0.00
    4   10    5     -5.46      0.00
    5   10    5      1.66      0.00
    6   10    5     -5.26      0.00
    7   10    5     -4.21      0.00
    8   10    5     -0.53      0.00
    9   10    5     -0.39      0.00
   10   10    5     -2.40      0.00
   11   10    5      7.34      0.00
   12   10    5      3.76      0.00
   13   10    5     -2.39      0.00
   14   10    5      2.88      0.00
  -13   11    5      4.19      0.00
  -12   11    5      1.64      0.00
  -11   11    5     -2.17      0.00
  -10   11    5      0.81      0.00
   -9   11    5      5.46      0.00
   -8   11    5      0.79      0.00
   -7   11    5      5.59      0.00
   -6   11    5     -2.47      0.00
   -5   11    5     -2.34      0.00
   -4   11    5     -0.62      0.00
   -3   11    5     -4.27      0.00
   -2   11    5     -2.27      0.00
   -1   11    5     -0.39      0.00
    0   11    5     -8.70      0.00
    1   11    5     -5.88      0.00
    2   11    5      3.86      0.00
    3   11    5     -6.78      0.00
    4   11    5     -0.30      0.00
    5   11    5      3.55      0.00
    6   11    5     -0.12      0.00
    7   11    5      8.45      0.00
    8   11    5      3.58      0.00
    9   11    5      3.45      0.00
   10   11    5      0.33      0.00
   11   11    5      3.40      0.00
   12   11    5     -7.90      0.00
   13   11    5      0.17      0.00
   14   11    5     -3.78      0.00
  -12   12    5     -4.08      0.00
  -11   12    5      0.66      0.00
  -10   12    5      2.71      0.00
   -9   12    5     -2.72      0.00
   -8   12    5     -1.10      0.00
   -7   12    5     -0.51      0.00
   -6   12    5     -3.29      0.00
   -5   12    5      1.32      0.00
   -4   12    5     -2.39      0.00
   -3   12    5     -4.23      0.00
   -2   12    5      0.07      0.00
   -1   12    5     -4.23      0.00
    0   12    5     -1.10      0.00
    1   12    5      9.08      0.00
    2   12    5      0.08      0.00
    3   12    5      5.51      0.00
    4   12    5     13.45      0.00
    5   12    5      2.02      0.00
    6   12    5      0.00      0.00
    7   12    5     -3.32      0.00
    8   12    5     -6.15      0.00
    9   12    5     -5.32      0.00
   10   12    5      2.29      0.00
   11   12    5     -6.27      0.00
   12   12    5      0.87      0.00
   13   12    5      1.63      0.00
  -11   13    5      2.91      0.00
  -10   13    5      0.01      0.00
   -9   13    5     -0.27      0.00
   -8   13    5      2.33      0.00
   -7   13    5     -3.53      0.00
   -6   13    5      0.35      0.00
   -5   13    5     -0.73      0.00
   -4   13    5     -2.27      0.00
   -3   13    5      4.44      0.00
   -2   13    5      1.29      0.00
   -1   13    5     -0.10      0.00
    0   13    5      6.68      0.00
    1   13    5     -2.39      0.00
    2   13    5     -4.03      0.00
    3   13    5     -2.25      0.00
    4   13    5    -12.15      0.00
    5   13    5    -12.97      0.00
    6   13    5     -2.77      0.00
    7   13    5     -0.29      0.00
    8   13    5      0.07      0.00
    9   13    5      3.77      0.00
   10   13    5     -4.55      0.00
   11   13    5     -1.13      0.00
   12   13    5     -1.66      0.00
   13   13    5     -0.09      0.00
  -10   14    5     -1.73      0.00
   -9   14    5     -1.99      0.00
   -8   14    5     -0.43      0.00
   -7   14    5     -0.40      0.00
   -6   14    5      1.97      0.00
   -5   14    5     -0.20      0.00
   -4   14    5      4.08      0.00
   -3   14    5      0.18      0.00
   -2   14    5      0.27      0.00
   -1   14    5      2.73      0.00
    0   14    5      0.92      0.00
    1   14    5     -3.87      0.00
    2   14    5      3.35      0.00
    3   14    5      2.30      0.00
    4   14    5      0.90      0.00
    5   14    5      9.96      0.00
    6   14    5      4.85      0.00
    7   14    5     -4.02      0.00
    8   14    5      3.68      0.00
    9   14    5     -8.40      0.00
   10   14    5      2.47      0.00
   11   14    5     -5.45      0.00
   12   14    5      5.22      0.00
   -9   15    5      1.61      0.00
   -8   15    5      0.95      0.00
   -7   15    5      0.39      0.00
   -6   15    5      4.11      0.00
   -5   15    5     -0.62      0.00
   -4   15    5      1.43      0.00
   -3   15    5     -3.13      0.00
   -2   15    5     -0.79      0.00
   -1   15    5     -0.29      0.00
    0   15    5     -4.27      0.00
    1   15    5      1.32      0.00
    2   15    5     -0.55      0.00
    3   15    5     -7.93      0.00
    4   15    5     -1.92      0.00
    5   15    5     -5.74      0.00
    6   15    5     -4.21      0.00
    7   15    5      1.95      0.00
    8   15    5     -0.73      0.00
    9   15    5      4.69      0.00
   10   15    5      0.99      0.00
   11   15    5      7.88      0.00
   -8   16    5     -0.35      0.00
   -7   16    5      1.70      0.00
   -6   16    5     -2.47      0.00
   -5   16    5     -1.09      0.00
   -4   16    5     -1.39      0.00
   -3   16    5      1.02      0.00
   -2   16    5      0.47      0.00
   -1   16    5      0.93      0.00
    0   16    5     -0.10      0.00
    1   16    5      2.68      0.00
    2   16    5     -3.49      0.00
    3   16    5      7.08      0.00
    4   16    5      1.22      0.00
    5   16    5     10.34      0.00
    6   16    5     -3.24      0.00
    7   16    5      9.17      0.00
    8   16    5     -3.93      0.00
    9   16    5      6.23      0.00
   -6   17    5     -3.83      0.00
   -5   17    5      2.14      0.00
   -4   17    5     -2.83      0.00
   -3   17    5      0.55      0.00
   -2   17    5      2.80      0.00
   -1   17    5      1.17      0.00
    0   17    5      5.18      0.00
    1   17    5      1.73      0.00
    2   17    5      8.89      0.00
    3   17    5     -0.12      0.00
    4   17    5     10.79      0.00
    5   17    5     -6.55      0.00
    6   17    5      7.74      0.00
    7   17    5     -5.80      0.00
    8   17    5      2.71      0.00
   -3   18    5      3.07      0.00
   -2   18    5     -0.74      0.00
   -1   18    5     -0.92      0.00
    0   18    5     -4.09      0.00
    1   18    5     -1.20      0.00
    2   18    5     -9.18      0.00
    3   18    5      1.30      0.00
    4   18    5     -9.71      0.00
    5   18    5     -3.03      0.00
   -5  -17    6     -1.83      0.00
   -4  -17    6     -1.91      0.00
   -3  -17    6      2.49      0.00
   -2  -17    6     -0.94      0.00
   -1  -17    6      2.32      0.00
    0  -17    6     -1.63      0.00
    1  -17    6     -1.93      0.00
    2  -17    6      0.09      0.00
    3  -17    6      0.74      0.00
   -7  -16    6     -1.02      0.00
   -6  -16    6     -0.52      0.00
   -5  -16    6     -2.54      0.00
   -4  -16    6      0.24      0.00
   -3  -16    6      0.57      0.00
   -2  -16    6     -1.24      0.00
   -1  -16    6      1.58      0.00
    0  -16    6     -0.02      0.00
    1  -16    6      3.81      0.00
    2  -16    6      0.34      0.00
    3  -16    6      2.79      0.00
    4  -16    6      1.04      0.00
    5  -16    6      0.20      0.00
    6  -16    6      0.27      0.00
   -9  -15    6     -1.61      0.00
   -8  -15    6     -2.05      0.00
   -7  -15    6     -1.58      0.00
   -6  -15    6     -1.38      0.00
   -5  -15    6     -0.51      0.00
   -4  -15    6      5.55      0.00
   -3  -15    6     -0.71      0.00
   -2  -15    6      4.67      0.00
   -1  -15    6     -0.83      0.00
    0  -15    6      3.41      0.00
    1  -15    6     -2.25      0.00
    2  -15    6      5.00      0.00
    3  -15    6      1.35      0.00
    4  -15    6      2.10      0.00
    5  -15    6      2.17      0.00
    6  -15    6      0.54      0.00
    7  -15    6     -0.85      0.00
    8  -15    6      0.65      0.00
  -10  -14    6      3.19      0.00
   -9  -14    6     -0.96      0.00
   -8  -14    6      1.80      0.00
   -7  -14    6      1.44      0.00
   -6  -14    6     -0.96      0.00
   -5  -14    6      2.99      0.00
   -4  -14    6     -1.37      0.00
   -3  -14    6     -3.26      0.00
   -2  -14    6      0.76      0.00
   -1  -14    6     -1.65      0.00
    0  -14    6     -0.80      0.00
    1  -14    6      1.32      0.00
    2  -14    6      1.47      0.00
    3  -14    6     -3.44      0.00
    4  -14    6     -1.54      0.00
    5  -14    6     -2.84      0.00
    6  -14    6     -3.38      0.00
    7  -14    6     -0.66      0.00
    8  -14    6      0.05      0.00
    9  -14    6      0.06      0.00
  -12  -13    6      0.31      0.00
  -11  -13    6      3.84      0.00
  -10  -13    6      0.53      0.00
   -9  -13    6     -0.37      0.00
   -8  -13    6      1.39      0.00
   -7  -13    6      0.16      0.00
   -6  -13    6      3.05      0.00
   -5  -13    6      4.57      0.00
   -4  -13    6     -2.61      0.00
   -3  -13    6      3.85      0.00
   -2  -13    6      0.18      0.00
   -1  -13    6     -1.80      0.00
    0  -13    6      2.21      0.00
    1  -13    6      1.21      0.00
    2  -13    6     -4.87      0.00
    3  -13    6     -2.73      0.00
    4  -13    6     -0.61      0.00
    5  -13    6     -3.82      0.00
    6  -13    6      1.99      0.00
    7  -13    6      2.02      0.00
    8  -13    6      1.14      0.00
    9  -13    6      1.76      0.00
   10  -13    6     -2.13      0.00
  -12  -12    6     -0.34      0.00
  -11  -12    6      2.22      0.00
  -10  -12    6     -5.56      0.00
   -9  -12    6      5.46      0.00
   -8  -12    6      0.98      0.00
   -7  -12    6      3.76      0.00
   -6  -12    6      0.31      0.00
   -5  -12    6     -1.81      0.00
   -4  -12    6     -2.79      0.00
   -3  -12    6      3.46      0.00
   -2  -12    6     -4.47      0.00
   -1  -12    6      2.72      0.00
    0  -12    6     -2.24      0.00
    1  -12    6     -2.69      0.00
    2  -12    6     -4.66      0.00
    4  -12    6      1.02      0.00
    5  -12    6      3.51      0.00
    6  -12    6      6.56      0.00
    7  -12    6     -3.37      0.00
    8  -12    6     -1.17      0.00
    9  -12    6     -1.20      0.00
   10  -12    6     -2.17      0.00
   11  -12    6      4.29      0.00
  -13  -11    6     -3.97      0.00
  -12  -11    6     -0.33      0.00
  -11  -11    6     -7.43      0.00
  -10  -11    6      3.74      0.00
   -9  -11    6     -0.62      0.00
   -8  -11    6     -2.16      0.00
   -7  -11    6     -2.92      0.00
   -6  -11    6     -2.14      0.00
   -5  -11    6     -4.59      0.00
   -4  -11    6      0.65      0.00
   -3  -11    6     -3.09      0.00
   -2  -11    6     -5.32      0.00
   -1  -11    6      1.89      0.00
    0  -11    6     -3.80      0.00
    1  -11    6     -1.29      0.00
    2  -11    6      3.81      0.00
    4  -11    6     -5.45      0.00
    5  -11    6      3.41      0.00
    6  -11    6     -6.77      0.00
    7  -11    6     -1.58      0.00
    8  -11    6      3.09      0.00
    9  -11    6     -2.41      0.00
   10  -11    6      3.07      0.00
   11  -11    6     -1.17      0.00
   12  -11    6      0.40      0.00
  -14  -10    6      0.90      0.00
  -13  -10    6      1.77      0.00
  -12  -10    6      1.87      0.00
  -11  -10    6      3.51      0.00
  -10  -10    6      1.24      0.00
   -9  -10    6     -3.04      0.00
   -8  -10    6     -2.99      0.00
   -7  -10    6     -1.29      0.00
   -6  -10    6     -2.03      0.00
   -5  -10    6     -0.46      0.00
   -4  -10    6      6.91      0.00
   -3  -10    6     -4.84      0.00
   -2  -10    6     10.79      0.00
   -1  -10    6     -0.73      0.00
    0  -10    6     -0.33      0.00
    1  -10    6      2.95      0.00
    2  -10    6      3.37      0.00
    3  -10    6     -7.31      0.00
    4  -10    6      2.67      0.00
    5  -10    6     -0.69      0.00
    6  -10    6     -7.63      0.00
    7  -10    6      6.67      0.00
    8  -10    6     -3.39      0.00
    9  -10    6      5.56      0.00
   10  -10    6      1.31      0.00
   11  -10    6      1.27      0.00
   12  -10    6     -2.76      0.00
   13  -10    6      1.56      0.00
  -14   -9    6      1.93      0.00
  -13   -9    6     -1.16      0.00
  -12   -9    6     -2.35      0.00
  -11   -9    6     -1.44      0.00
  -10   -9    6     -2.80      0.00
   -9   -9    6     -3.50      0.00
   -8   -9    6      4.03      0.00
   -7   -9    6      0.32      0.00
   -6   -9    6      4.31      0.00
   -5   -9    6      6.85      0.00
   -4   -9    6     -5.07      0.00
   -3   -9    6      4.03      0.00
   -2   -9    6     -1.10      0.00
   -1   -9    6     -7.24      0.00
    2   -9    6     -2.64      0.00
    4   -9    6      5.12      0.00
    5   -9    6    -11.06      0.00
    6   -9    6     11.58      0.00
    7   -9    6      1.77      0.00
    8   -9    6      1.16      0.00
    9   -9    6      1.99      0.00
   10   -9    6     -2.44      0.00
   11   -9    6     -4.49      0.00
   12   -9    6      6.13      0.00
   13   -9    6     -5.97      0.00
   14   -9    6     -1.94      0.00
  -15   -8    6      1.59      0.00
  -14   -8    6     -2.71      0.00
  -13   -8    6     -1.43      0.00
  -12   -8    6      0.07      0.00
  -11   -8    6      1.50      0.00
  -10   -8    6     -2.12      0.00
   -9   -8    6      6.80      0.00
   -8   -8    6      1.76      0.00
   -7   -8    6     -0.13      0.00
   -6   -8    6      2.77      0.00
   -5   -8    6     -5.34      0.00
   -4   -8    6     -3.85      0.00
   -3   -8    6      1.78      0.00
   -2   -8    6     -6.31      0.00
   -1   -8    6      1.22      0.00
    0   -8    6      0.92      0.00
    1   -8    6     -6.03      0.00
    2   -8    6      1.38      0.00
    3   -8    6      5.17      0.00
    4   -8    6     -0.58      0.00
    5   -8    6      8.85      0.00
    6   -8    6      7.86      0.00
    7   -8    6     -7.38      0.00
    8   -8    6      1.11      0.00
    9   -8    6     -7.36      0.00
   10   -8    6     -5.80      0.00
   11   -8    6      1.15      0.00
   12   -8    6     -8.82      0.00
   13   -8    6     -0.77      0.00
   14   -8    6      3.64      0.00
  -15   -7    6     -0.01      0.00
  -14   -7    6     -4.84      0.00
  -13   -7    6      3.32      0.00
  -12   -7    6      1.22      0.00
  -11   -7    6      0.84      0.00
  -10   -7    6      4.58      0.00
   -9   -7    6      1.87      0.00
   -8   -7    6     -6.67      0.00
   -7   -7    6      1.35      0.00
   -6   -7    6     -7.35      0.00
   -5   -7    6     -8.23      0.00
   -4   -7    6      4.98      0.00
   -3   -7    6     -2.18      0.00
   -2   -7    6     -3.79      0.00
   -1   -7    6     12.38      0.00
    0   -7    6     -7.55      0.00
    1   -7    6      7.80      0.00
    2   -7    6      6.24      0.00
    3   -7    6      2.56      0.00
    4   -7    6      0.18      0.00
    5   -7    6      4.82      0.00
    6   -7    6    -13.60      0.00
    7   -7    6     -3.37      0.00
    8   -7    6     -1.23      0.00
    9   -7    6     -5.65      0.00
   10   -7    6      5.00      0.00
   11   -7    6     -2.04      0.00
   12   -7    6      3.95      0.00
   13   -7    6      7.63      0.00
   14   -7    6      1.49      0.00
   15   -7    6      2.87      0.00
  -16   -6    6      5.05      0.00
  -15   -6    6     -1.93      0.00
  -14   -6    6      5.24      0.00
  -13   -6    6      4.01      0.00
  -12   -6    6      1.03      0.00
  -11   -6    6     -1.39      0.00
  -10   -6    6      1.59      0.00
   -9   -6    6     -7.84      0.00
   -8   -6    6      0.39      0.00
   -7   -6    6      1.02      0.00
   -6   -6    6     -2.56      0.00
   -5   -6    6     12.75      0.00
   -4   -6    6      7.23      0.00
   -3   -6    6     -2.82      0.00
   -2   -6    6     12.79      0.00
   -1   -6    6     -1.27      0.00
    0   -6    6     -4.36      0.00
    1   -6    6     10.00      0.00
    2   -6    6    -12.20      0.00
    3   -6    6     -1.45      0.00
    4   -6    6     -5.59      0.00
    5   -6    6     -7.22      0.00
    6   -6    6     -5.59      0.00
    7   -6    6      7.92      0.00
    8   -6    6     -3.96      0.00
    9   -6    6      7.38      0.00
   10   -6    6      3.54      0.00
   11   -6    6      4.63      0.00
   12   -6    6      2.15      0.00
   13   -6    6      1.85      0.00
   14   -6    6     -5.81      0.00
   15   -6    6     -2.90      0.00
  -16   -5    6     -0.20      0.00
  -15   -5    6     -1.16      0.00
  -14   -5    6      4.24      0.00
  -13   -5    6     -5.47      0.00
  -12   -5    6     -2.84      0.00
  -11   -5    6      0.93      0.00
  -10   -5    6     -3.05      0.00
   -9   -5    6     -0.96      0.00
   -8   -5    6      8.19      0.00
   -7   -5    6     -3.24      0.00
   -6   -5    6      6.73      0.00
   -5   -5    6      3.26      0.00
   -4   -5    6    -13.65      0.00
   -3   -5    6      0.03      0.00
   -2   -5    6     -1.98      0.00
   -1   -5    6    -17.91      0.00
    0   -5    6      7.03      0.00
    1   -5    6    -11.11      0.00
    2   -5    6     -3.00      0.00
    3   -5    6      0.60      0.00
    4   -5    6     -0.80      0.00
    5   -5    6      1.30      0.00
    6   -5    6      9.24      0.00
    7   -5    6      3.36      0.00
    8   -5    6      1.93      0.00
    9   -5    6      5.82      0.00
   10   -5    6     -1.81      0.00
   11   -5    6     -3.25      0.00
   12   -5    6      2.30      0.00
   13   -5    6     -6.72      0.00
   14   -5    6      0.23      0.00
   15   -5    6      2.34      0.00
   16   -5    6      2.64      0.00
  -16   -4    6     -1.41      0.00
  -15   -4    6      4.08      0.00
  -14   -4    6     -2.04      0.00
  -13   -4    6     -2.85      0.00
  -12   -4    6      2.19      0.00
  -11   -4    6     -0.58      0.00
  -10   -4    6     -1.84      0.00
   -9   -4    6      6.12      0.00
   -8   -4    6      1.03      0.00
   -7   -4    6     -1.50      0.00
   -6   -4    6      6.42      0.00
   -5   -4    6    -11.26      0.00
   -4   -4    6     -0.15      0.00
   -3   -4    6      4.52      0.00
   -2   -4    6     -8.25      0.00
   -1   -4    6      1.57      0.00
    0   -4    6      9.62      0.00
    1   -4    6     -8.14      0.00
    2   -4    6      9.00      0.00
    3   -4    6     -0.03      0.00
    4   -4    6      4.45      0.00
    5   -4    6      1.86      0.00
    6   -4    6      5.70      0.00
    7   -4    6     -7.06      0.00
    8   -4    6      3.54      0.00
    9   -4    6     -2.77      0.00
   10   -4    6     -6.55      0.00
   11   -4    6      2.86      0.00
   12   -4    6     -4.72      0.00
   13   -4    6     -4.96      0.00
   14   -4    6      6.63      0.00
   15   -4    6     -4.77      0.00
   16   -4    6      1.39      0.00
  -16   -3    6     -0.52      0.00
  -15   -3    6      1.53      0.00
  -14   -3    6     -5.03      0.00
  -13   -3    6      5.39      0.00
  -12   -3    6     -0.45      0.00
  -11   -3    6     -0.23      0.00
  -10   -3    6      1.22      0.00
   -9   -3    6      4.03      0.00
   -8   -3    6    -11.88      0.00
   -7   -3    6      3.53      0.00
   -6   -3    6    -12.04      0.00
   -5   -3    6     -7.54      0.00
   -4   -3    6      6.55      0.00
   -3   -3    6     -1.76      0.00
   -2   -3    6     -0.12      0.00
   -1   -3    6     20.96      0.00
    0   -3    6     -2.57      0.00
    1   -3    6      3.04      0.00
    2   -3    6     13.13      0.00
    3   -3    6      0.24      0.00
    4   -3    6      3.74      0.00
    5   -3    6      4.20      0.00
    6   -3    6     -5.23      0.00
    7   -3    6     -5.08      0.00
    8   -3    6      1.45      0.00
    9   -3    6    -10.43      0.00
   10   -3    6      7.17      0.00
   11   -3    6      2.65      0.00
   12   -3    6     -0.63      0.00
   13   -3    6     10.41      0.00
   14   -3    6      1.69      0.00
   15   -3    6      0.87      0.00
   16   -3    6      1.77      0.00
  -17   -2    6     -1.63      0.00
  -16   -2    6      1.13      0.00
  -15   -2    6     -4.70      0.00
  -14   -2    6      1.58      0.00
  -13   -2    6     -0.04      0.00
  -12   -2    6      1.75      0.00
  -11   -2    6      0.80      0.00
  -10   -2    6      5.29      0.00
   -9   -2    6     -9.38      0.00
   -8   -2    6     -0.06      0.00
   -7   -2    6      3.89      0.00
   -6   -2    6     -3.94      0.00
   -5   -2    6     20.45      0.00
   -4   -2    6     10.71      0.00
   -3   -2    6      5.46      0.00
   -2   -2    6     11.43      0.00
   -1   -2    6      5.24      0.00
    0   -2    6    -25.30      0.00
    1   -2    6     19.11      0.00
    2   -2    6    -18.10      0.00
    3   -2    6     -5.28      0.00
    4   -2    6     -4.71      0.00
    5   -2    6    -12.78      0.00
    6   -2    6    -12.55      0.00
    7   -2    6      3.52      0.00
    8   -2    6     -5.80      0.00
    9   -2    6      7.41      0.00
   10   -2    6      1.51      0.00
   11   -2    6     -4.68      0.00
   12   -2    6      1.25      0.00
   13   -2    6      4.43      0.00
   14   -2    6     -9.39      0.00
   15   -2    6      3.51      0.00
   16   -2    6     -3.59      0.00
  -17   -1    6      0.19      0.00
  -16   -1    6     -3.08      0.00
  -15   -1    6      2.19      0.00
  -14   -1    6      1.65      0.00
  -13   -1    6     -1.43      0.00
  -12   -1    6     -3.84      0.00
  -11   -1    6     -1.05      0.00
  -10   -1    6     -7.12      0.00
   -9   -1    6      0.03      0.00
   -8   -1    6     11.58      0.00
   -6   -1    6     13.98      0.00
   -5   -1    6      0.99      0.00
   -4   -1    6     -9.12      0.00
   -3   -1    6    -14.62      0.00
   -1   -1    6    -41.91      0.00
    0   -1    6      9.57      0.00
    1   -1    6     -5.79      0.00
    2   -1    6    -12.26      0.00
    3   -1    6      9.47      0.00
    4   -1    6     -5.26      0.00
    5   -1    6      3.87      0.00
    6   -1    6     13.18      0.00
    7   -1    6     13.56      0.00
    8   -1    6      1.85      0.00
    9   -1    6      5.82      0.00
   10   -1    6      0.64      0.00
   11   -1    6     -1.18      0.00
   12   -1    6      5.96      0.00
   13   -1    6    -11.21      0.00
   14   -1    6      0.43      0.00
   15   -1    6     -0.57      0.00
   16   -1    6      0.28      0.00
  -16    0    6      4.21      0.00
  -15    0    6      0.62      0.00
  -14    0    6      4.26      0.00
  -13    0    6      0.45      0.00
  -12    0    6      4.47      0.00
  -11    0    6      3.10      0.00
  -10    0    6      3.68      0.00
   -9    0    6      4.17      0.00
   -8    0    6     -1.11      0.00
   -7    0    6     -3.09      0.00
   -6    0    6     -0.97      0.00
   -5    0    6    -13.78      0.00
   -4    0    6    -15.98      0.00
   -3    0    6      9.93      0.00
   -2    0    6    -17.25      0.00
   -1    0    6     18.59      0.00
    0    0    6     35.48      0.00
    1    0    6    -11.38      0.00
    2    0    6     17.44      0.00
    3    0    6      3.26      0.00
    4    0    6     -0.88      0.00
    5    0    6     10.62      0.00
    6    0    6      4.59      0.00
    7    0    6    -11.50      0.00
    8    0    6      0.39      0.00
    9    0    6      0.47      0.00
   10    0    6    -11.65      0.00
   11    0    6      3.95      0.00
   12    0    6     -7.76      0.00
   13    0    6     -1.17      0.00
   14    0    6      5.42      0.00
   15    0    6     -0.28      0.00
   16    0    6     -2.74      0.00
   17    0    6     -0.80      0.00
  -17    1    6      0.92      0.00
  -16    1    6     -1.33      0.00
  -15    1    6     -1.77      0.00
  -14    1    6     -7.49      0.00
  -13    1    6     -2.59      0.00
  -12    1    6     -2.94      0.00
  -11    1    6     -3.47      0.00
  -10    1    6     -5.39      0.00
   -9    1    6      4.13      0.00
   -8    1    6     -5.25      0.00
   -7    1    6      5.79      0.00
   -6    1    6     -1.08      0.00
   -5    1    6     -7.60      0.00
   -4    1    6     15.06      0.00
   -3    1    6      4.20      0.00
   -2    1    6     12.83      0.00
   -1    1    6     30.60      0.00
    0    1    6    -14.28      0.00
    1    1    6    -10.00      0.00
    2    1    6     20.76      0.00
    3    1    6    -15.84      0.00
    4    1    6     12.23      0.00
    5    1    6     -1.36      0.00
    6    1    6     -5.79      0.00
    7    1    6     -1.60      0.00
    8    1    6      4.19      0.00
    9    1    6     -9.62      0.00
   10    1    6      4.94      0.00
   11    1    6      0.97      0.00
   12    1    6      0.81      0.00
   13    1    6      4.05      0.00
   14    1    6      1.59      0.00
   15    1    6     -3.43      0.00
   16    1    6      1.90      0.00
   17    1    6      1.78      0.00
  -16    2    6     -0.14      0.00
  -15    2    6      0.62      0.00
  -14    2    6      4.65      0.00
  -13    2    6      2.22      0.00
  -12    2    6      0.14      0.00
  -11    2    6     -6.24      0.00
  -10    2    6      7.08      0.00
   -9    2    6     -8.23      0.00
   -8    2    6     -5.01      0.00
   -7    2    6     -2.54      0.00
   -6    2    6    -15.82      0.00
   -5    2    6     15.15      0.00
   -4    2    6      6.50      0.00
   -3    2    6      0.93      0.00
   -2    2    6      3.82      0.00
    0    2    6    -31.39      0.00
    1    2    6     18.20      0.00
    2    2    6    -21.61      0.00
    3    2    6     -6.50      0.00
    4    2    6      2.11      0.00
    5    2    6    -12.44      0.00
    6    2    6     -4.97      0.00
    7    2    6      1.60      0.00
    8    2    6     -3.08      0.00
    9    2    6     -3.60      0.00
   10    2    6      9.53      0.00
   11    2    6     -4.54      0.00
   12    2    6      0.37      0.00
   13    2    6      4.46      0.00
   14    2    6     -5.20      0.00
   15    2    6      1.05      0.00
   16    2    6      3.64      0.00
   17    2    6     -1.74      0.00
  -16    3    6      0.00      0.00
  -15    3    6      1.47      0.00
  -14    3    6     -4.11      0.00
  -13    3    6     -0.71      0.00
  -12    3    6     -4.86      0.00
  -11    3    6     12.22      0.00
  -10    3    6     -1.91      0.00
   -9    3    6      3.32      0.00
   -8    3    6      8.52      0.00
   -7    3    6      5.93      0.00
   -6    3    6     18.07      0.00
   -5    3    6     11.51      0.00
   -4    3    6     -3.57      0.00
   -3    3    6     -5.45      0.00
   -2    3    6     -6.20      0.00
   -1    3    6    -22.93      0.00
    0    3    6      6.32      0.00
    1    3    6     -1.45      0.00
    2    3    6    -17.54      0.00
    3    3    6     16.34      0.00
    4    3    6     -7.67      0.00
    5    3    6     -0.89      0.00
    6    3    6      6.77      0.00
    7    3    6      0.68      0.00
    8    3    6     -0.97      0.00
    9    3    6     10.10      0.00
   10    3    6      0.16      0.00
   11    3    6     -2.08      0.00
   12    3    6      5.70      0.00
   13    3    6     -4.63      0.00
   14    3    6     -2.74      0.00
   15    3    6      3.43      0.00
   16    3    6     -3.98      0.00
   17    3    6     -0.87      0.00
  -16    4    6      0.52      0.00
  -15    4    6     -1.63      0.00
  -14    4    6      2.33      0.00
  -13    4    6      0.63      0.00
  -12    4    6      8.58      0.00
  -11    4    6     -2.13      0.00
  -10    4    6     -1.03      0.00
   -9    4    6      0.83      0.00
   -8    4    6      2.71      0.00
   -7    4    6     -7.54      0.00
   -6    4    6     -4.65      0.00
   -5    4    6    -20.60      0.00
   -4    4    6    -17.44      0.00
   -3    4    6     -7.87      0.00
   -2    4    6    -13.45      0.00
   -1    4    6      6.96      0.00
    0    4    6     17.44      0.00
    1    4    6     -0.63      0.00
    2    4    6     12.18      0.00
    3    4    6     16.11      0.00
    4    4    6    -12.41      0.00
    5    4    6     19.12      0.00
    6    4    6     -4.27      0.00
    7    4    6      5.76      0.00
    8    4    6     -0.70      0.00
    9    4    6      3.49      0.00
   10    4    6    -12.79      0.00
   11    4    6      3.30      0.00
   12    4    6     -5.75      0.00
   13    4    6     -4.53      0.00
   14    4    6      5.82      0.00
   15    4    6     -2.98      0.00
   16    4    6      1.48      0.00
  -16    5    6     -3.98      0.00
  -15    5    6     -4.47      0.00
  -14    5    6     -6.67      0.00
  -13    5    6     -0.89      0.00
  -12    5    6     -4.25      0.00
  -11    5    6     -4.70      0.00
  -10    5    6     -1.26      0.00
   -9    5    6      2.82      0.00
   -8    5    6     -8.58      0.00
   -7    5    6     -0.02      0.00
   -6    5    6     -1.29      0.00
   -5    5    6     -3.59      0.00
   -4    5    6     14.49      0.00
   -3    5    6      7.91      0.00
   -2    5    6     15.94      0.00
   -1    5    6     17.29      0.00
    0    5    6     10.97      0.00
    1    5    6     -8.55      0.00
    2    5    6     20.68      0.00
    3    5    6    -28.13      0.00
    4    5    6     11.23      0.00
    5    5    6    -10.15      0.00
    6    5    6     -0.58      0.00
    7    5    6     -6.31      0.00
    8    5    6     -2.10      0.00
    9    5    6    -10.28      0.00
   10    5    6     -2.44      0.00
   11    5    6      2.22      0.00
   12    5    6     -1.06      0.00
   13    5    6      5.96      0.00
   14    5    6      2.49      0.00
   15    5    6      1.41      0.00
   16    5    6      3.51      0.00
  -15    6    6      3.08      0.00
  -14    6    6     10.28      0.00
  -13    6    6      2.76      0.00
  -12    6    6     -0.03      0.00
  -11    6    6     -1.01      0.00
  -10    6    6      2.83      0.00
   -9    6    6     -7.52      0.00
   -8    6    6     -0.84      0.00
   -7    6    6      3.03      0.00
   -6    6    6     -4.41      0.00
   -5    6    6     10.39      0.00
   -4    6    6      5.26      0.00
   -3    6    6      0.15      0.00
   -2    6    6      3.10      0.00
   -1    6    6     -0.69      0.00
    0    6    6    -24.59      0.00
    1    6    6      3.44      0.00
    2    6    6    -17.91      0.00
    3    6    6     -4.03      0.00
    4    6    6      8.47      0.00
    5    6    6     -8.17      0.00
    6    6    6      4.18      0.00
    7    6    6     -1.42      0.00
    8    6    6      3.54      0.00
    9    6    6      0.74      0.00
   10    6    6     12.26      0.00
   11    6    6     -2.42      0.00
   12    6    6      1.06      0.00
   13    6    6      0.70      0.00
   14    6    6     -4.34      0.00
   15    6    6     -0.80      0.00
   16    6    6     -6.54      0.00
  -15    7    6      4.06      0.00
  -14    7    6      4.02      0.00
  -13    7    6     -4.87      0.00
  -12    7    6      3.75      0.00
  -11    7    6      2.04      0.00
  -10    7    6      0.47      0.00
   -9    7    6      0.08      0.00
   -8    7    6      7.26      0.00
   -7    7    6     -1.25      0.00
   -6    7    6      4.75      0.00
   -5    7    6      3.34      0.00
   -4    7    6     -4.54      0.00
   -3    7    6     -5.00      0.00
   -2    7    6     -0.34      0.00
   -1    7    6    -16.83      0.00
    0    7    6      3.09      0.00
    1    7    6      8.05      0.00
    2    7    6     -3.87      0.00
    3    7    6     19.46      0.00
    4    7    6     -0.84      0.00
    5    7    6      4.35      0.00
    6    7    6      3.33      0.00
    7    7    6      0.97      0.00
    8    7    6      0.32      0.00
    9    7    6      4.98      0.00
   10    7    6     -0.39      0.00
   11    7    6     -0.03      0.00
   12    7    6      7.31      0.00
   13    7    6     -0.47      0.00
   14    7    6      2.52      0.00
   15    7    6      1.35      0.00
   16    7    6      6.23      0.00
  -15    8    6     -0.30      0.00
  -14    8    6     -9.29      0.00
  -13    8    6      3.22      0.00
  -12    8    6     -3.49      0.00
  -11    8    6      4.99      0.00
  -10    8    6     -4.69      0.00
   -9    8    6      7.22      0.00
   -8    8    6     -1.15      0.00
   -7    8    6     -0.53      0.00
   -6    8    6      2.73      0.00
   -5    8    6     -4.36      0.00
   -4    8    6    -10.65      0.00
   -3    8    6      6.40      0.00
   -2    8    6    -12.40      0.00
   -1    8    6      3.24      0.00
    0    8    6      9.16      0.00
    1    8    6     -3.97      0.00
    2    8    6      5.95      0.00
    3    8    6      6.19      0.00
    4    8    6    -11.79      0.00
    5    8    6      4.57      0.00
    6    8    6     -5.41      0.00
    7    8    6     -2.09      0.00
    8    8    6     -0.94      0.00
    9    8    6      0.45      0.00
   10    8    6     -5.84      0.00
   11    8    6      5.63      0.00
   12    8    6     -9.79      0.00
   13    8    6     -1.77      0.00
   14    8    6     -7.46      0.00
  -14    9    6     -0.78      0.00
  -13    9    6      1.88      0.00
  -12    9    6      1.24      0.00
  -11    9    6     -2.65      0.00
  -10    9    6      0.97      0.00
   -9    9    6      1.40      0.00
   -8    9    6     -5.59      0.00
   -7    9    6      2.55      0.00
   -6    9    6     -2.89      0.00
   -5    9    6     -7.23      0.00
   -4    9    6      9.53      0.00
   -3    9    6     -2.33      0.00
   -2    9    6      2.10      0.00
   -1    9    6     12.72      0.00
    0    9    6      1.50      0.00
    1    9    6     -0.51      0.00
    2    9    6      6.41      0.00
    3    9    6    -12.34      0.00
    4    9    6     -0.86      0.00
    5    9    6      2.04      0.00
    6    9    6     -6.60      0.00
    7    9    6      3.30      0.00
    8    9    6     -2.07      0.00
    9    9    6     -3.72      0.00
   10    9    6     -1.15      0.00
   11    9    6     -6.08      0.00
   12    9    6     -0.48      0.00
   13    9    6      0.90      0.00
   14    9    6      4.31      0.00
  -14   10    6      2.10      0.00
  -13   10    6     -2.33      0.00
  -12   10    6     -1.32      0.00
  -11   10    6     -3.96      0.00
  -10   10    6      2.77      0.00
   -9   10    6     -5.67      0.00
   -8   10    6      3.50      0.00
   -7   10    6     -0.61      0.00
   -6   10    6     -2.79      0.00
   -5   10    6      9.08      0.00
   -4   10    6      5.37      0.00
   -3   10    6      1.15      0.00
   -2   10    6     14.05      0.00
   -1   10    6     -2.71      0.00
    0   10    6     -4.70      0.00
    1   10    6     -0.79      0.00
    2   10    6     -6.08      0.00
    3   10    6     -8.07      0.00
    4   10    6      5.24      0.00
    5   10    6     -6.73      0.00
    6   10    6      3.94      0.00
    7   10    6      4.40      0.00
    8   10    6      3.60      0.00
    9   10    6      1.71      0.00
   10   10    6      5.22      0.00
   11   10    6     -2.28      0.00
   12   10    6      5.40      0.00
   13   10    6     -1.28      0.00
   14   10    6      4.28      0.00
  -13   11    6     -0.51      0.00
  -12   11    6     -0.22      0.00
  -11   11    6      0.24      0.00
  -10   11    6      1.18      0.00
   -9   11    6     -2.33      0.00
   -8   11    6      0.89      0.00
   -7   11    6      0.14      0.00
   -6   11    6      2.13      0.00
   -5   11    6      4.77      0.00
   -4   11    6     -6.81      0.00
   -3   11    6      0.67      0.00
   -2   11    6     -7.12      0.00
   -1   11    6     -7.25      0.00
    0   11    6     -0.35      0.00
    1   11    6     -1.32      0.00
    2   11    6     -4.80      0.00
    3   11    6      6.08      0.00
    4   11    6      2.95      0.00
    5   11    6     -0.13      0.00
    6   11    6      5.46      0.00
    7   11    6     -3.52      0.00
    8   11    6     -1.78      0.00
    9   11    6     -0.44      0.00
   10   11    6     -0.30      0.00
   11   11    6      2.37      0.00
   12   11    6      4.35      0.00
   13   11    6      0.09      0.00
   14   11    6     -1.76      0.00
  -12   12    6      1.39      0.00
  -11   12    6      2.76      0.00
  -10   12    6     -2.04      0.00
   -9   12    6      2.52      0.00
   -8   12    6      1.60      0.00
   -7   12    6     -4.12      0.00
   -6   12    6      2.78      0.00
   -5   12    6     -8.65      0.00
   -4   12    6     -3.01      0.00
   -3   12    6     -1.82      0.00
   -2   12    6     -4.87      0.00
   -1   12    6      0.71      0.00
    0   12    6      1.33      0.00
    1   12    6      1.81      0.00
    2   12    6      3.09      0.00
    3   12    6      8.52      0.00
    4   12    6     -4.22      0.00
    5   12    6      6.33      0.00
    6   12    6      5.76      0.00
    7   12    6      0.23      0.00
    8   12    6      4.59      0.00
    9   12    6      0.10      0.00
   10   12    6      0.96      0.00
   11   12    6      3.35      0.00
   12   12    6     -4.19      0.00
   13   12    6      0.15      0.00
  -11   13    6     -1.62      0.00
  -10   13    6     -0.64      0.00
   -9   13    6      0.76      0.00
   -8   13    6     -2.06      0.00
   -7   13    6      3.32      0.00
   -6   13    6      1.86      0.00
   -5   13    6     -0.54      0.00
   -4   13    6      4.84      0.00
   -3   13    6      2.46      0.00
   -2   13    6      2.84      0.00
   -1   13    6      8.06      0.00
    0   13    6      3.85      0.00
    1   13    6     -0.45      0.00
    2   13    6      9.34      0.00
    3   13    6     -3.73      0.00
    4   13    6      5.47      0.00
    5   13    6      2.16      0.00
    6   13    6    -11.05      0.00
    7   13    6     -5.67      0.00
    8   13    6     -3.86      0.00
    9   13    6      2.27      0.00
   10   13    6     -0.21      0.00
   11   13    6      1.87      0.00
   12   13    6     -3.53      0.00
  -10   14    6      1.06      0.00
   -9   14    6      0.80      0.00
   -8   14    6     -1.72      0.00
   -7   14    6      2.18      0.00
   -6   14    6     -9.13      0.00
   -5   14    6      1.54      0.00
   -4   14    6     -0.50      0.00
   -3   14    6     -1.24      0.00
   -2   14    6      0.67      0.00
   -1   14    6     -3.01      0.00
    0   14    6    -12.36      0.00
    1   14    6     -1.23      0.00
    2   14    6    -12.07      0.00
    3   14    6     -9.94      0.00
    4   14    6     -7.96      0.00
    5   14    6    -10.27      0.00
    6   14    6     -4.48      0.00
    7   14    6      8.19      0.00
    8   14    6      0.41      0.00
    9   14    6     -2.51      0.00
   10   14    6     -3.01      0.00
   11   14    6     -6.07      0.00
   -9   15    6     -0.51      0.00
   -8   15    6      1.82      0.00
   -7   15    6     -4.11      0.00
   -6   15    6      3.93      0.00
   -5   15    6      2.35      0.00
   -4   15    6      0.95      0.00
   -3   15    6     -0.98      0.00
   -2   15    6     -1.22      0.00
   -1   15    6     -7.05      0.00
    0   15    6      3.85      0.00
    1   15    6      2.54      0.00
    2   15    6      1.96      0.00
    3   15    6      9.63      0.00
    4   15    6      9.13      0.00
    5   15    6      4.40      0.00
    6   15    6     10.58      0.00
    7   15    6     -0.99      0.00
    8   15    6     -5.23      0.00
    9   15    6      0.00      0.00
   10   15    6     -2.69      0.00
   -7   16    6      2.14      0.00
   -6   16    6      2.35      0.00
   -5   16    6      0.75      0.00
   -4   16    6     -2.40      0.00
   -3   16    6     -3.09      0.00
   -2   16    6     -1.37      0.00
   -1   16    6      0.93      0.00
    0   16    6      5.56      0.00
    1   16    6     -3.53      0.00
    2   16    6      2.55      0.00
    3   16    6     -1.28      0.00
    4   16    6     -7.79      0.00
    5   16    6     -0.34      0.00
    6   16    6     -5.03      0.00
    7   16    6     -2.59      0.00
    8   16    6     -0.06      0.00
    9   16    6      1.16      0.00
   -6   17    6     -0.10      0.00
   -5   17    6     -2.26      0.00
   -4   17    6     -1.91      0.00
   -3   17    6      2.03      0.00
   -2   17    6      2.31      0.00
   -1   17    6      1.38      0.00
    0   17    6      0.54      0.00
    1   17    6      0.22      0.00
    2   17    6      3.28      0.00
    3   17    6     -6.30      0.00
    4   17    6      4.25      0.00
    5   17    6     -4.30      0.00
    6   17    6      5.81      0.00
    7   17    6     -5.10      0.00
   -3   18    6      1.90      0.00
   -2   18    6     -0.10      0.00
   -1   18    6      6.39      0.00
    0   18    6     -0.93      0.00
    1   18    6      4.71      0.00
    2   18    6     -4.52      0.00
    3   18    6      7.92      0.00
    4   18    6     -0.27      0.00
    5   18    6      8.42      0.00
   -4  -17    7      4.85      0.00
   -3  -17    7     -0.47      0.00
   -2  -17    7     -3.70      0.00
   -1  -17    7      1.58      0.00
    0  -17    7     -3.39      0.00
    1  -17    7     -1.57      0.00
    2  -17    7     -0.30      0.00
   -7  -16    7     -1.39      0.00
   -6  -16    7     -1.49      0.00
   -5  -16    7      0.23      0.00
   -4  -16    7      0.60      0.00
   -3  -16    7     -5.24      0.00
   -2  -16    7      3.09      0.00
   -1  -16    7     -2.07      0.00
    0  -16    7     -0.49      0.00
    1  -16    7      1.27      0.00
    2  -16    7     -2.49      0.00
    3  -16    7      2.00      0.00
    4  -16    7      6.59      0.00
    5  -16    7     -2.08      0.00
   -9  -15    7     -4.48      0.00
   -8  -15    7     -3.04      0.00
   -7  -15    7     -3.33      0.00
   -6  -15    7     -2.55      0.00
   -5  -15    7      1.99      0.00
   -4  -15    7     -3.96      0.00
   -3  -15    7     -0.14      0.00
   -2  -15    7      2.68      0.00
   -1  -15    7     -0.89      0.00
    0  -15    7      3.50      0.00
    1  -15    7      0.81      0.00
    2  -15    7      1.48      0.00
    3  -15    7      0.05      0.00
    4  -15    7     -3.33      0.00
    5  -15    7     -2.68      0.00
    6  -15    7     -0.11      0.00
    7  -15    7     -4.47      0.00
  -10  -14    7     -6.50      0.00
   -9  -14    7     -1.47      0.00
   -8  -14    7     -1.28      0.00
   -7  -14    7     -2.49      0.00
   -6  -14    7      3.13      0.00
   -5  -14    7      0.19      0.00
   -4  -14    7     -1.19      0.00
   -3  -14    7      7.54      0.00
   -2  -14    7     -2.05      0.00
   -1  -14    7      3.01      0.00
    0  -14    7     -0.64      0.00
    1  -14    7     -0.35      0.00
    2  -14    7     -3.16      0.00
    3  -14    7      5.41      0.00
    4  -14    7     -2.93      0.00
    5  -14    7      7.72      0.00
    6  -14    7     -0.44      0.00
    7  -14    7      1.14      0.00
    8  -14    7      0.18      0.00
    9  -14    7     -1.19      0.00
  -11  -13    7      0.73      0.00
  -10  -13    7      2.02      0.00
   -9  -13    7      5.67      0.00
   -8  -13    7      1.71      0.00
   -7  -13    7      4.07      0.00
   -6  -13    7      2.26      0.00
   -5  -13    7     -3.20      0.00
   -4  -13    7      2.11      0.00
   -3  -13    7     -0.29      0.00
   -2  -13    7     -2.72      0.00
   -1  -13    7     -0.95      0.00
    0  -13    7      0.53      0.00
    1  -13    7     -1.95      0.00
    2  -13    7      5.81      0.00
    3  -13    7     -0.94      0.00
    4  -13    7      0.49      0.00
    5  -13    7      0.85      0.00
    6  -13    7     -7.64      0.00
    7  -13    7      2.52      0.00
    8  -13    7     -1.44      0.00
    9  -13    7      3.49      0.00
   10  -13    7      4.87      0.00
  -12  -12    7      2.19      0.00
  -11  -12    7     -0.16      0.00
  -10  -12    7      2.73      0.00
   -9  -12    7     -0.72      0.00
   -8  -12    7     -1.85      0.00
   -7  -12    7      2.33      0.00
   -6  -12    7     -3.10      0.00
   -5  -12    7      2.56      0.00
   -4  -12    7      2.77      0.00
   -3  -12    7     -4.92      0.00
   -2  -12    7      1.16      0.00
   -1  -12    7      2.27      0.00
    0  -12    7     -0.56      0.00
    1  -12    7      2.83      0.00
    2  -12    7      3.29      0.00
    3  -12    7     -4.78      0.00
    4  -12    7      4.02      0.00
    5  -12    7     -4.97      0.00
    6  -12    7      4.84      0.00
    7  -12    7      1.70      0.00
    8  -12    7      1.53      0.00
    9  -12    7     -0.60      0.00
   11  -12    7     -6.95      0.00
  -13  -11    7      4.91      0.00
  -12  -11    7     -0.21      0.00
  -11  -11    7      1.83      0.00
  -10  -11    7      0.98      0.00
   -9  -11    7     -2.33      0.00
   -8  -11    7      2.92      0.00
   -7  -11    7     -2.39      0.00
   -6  -11    7     -0.85      0.00
   -5  -11    7      0.01      0.00
   -4  -11    7     -2.45      0.00
   -3  -11    7      2.48      0.00
   -2  -11    7      5.32      0.00
   -1  -11    7     -0.11      0.00
    0  -11    7      3.67      0.00
    1  -11    7      2.44      0.00
    2  -11    7     -3.12      0.00
    3  -11    7     -1.04      0.00
    4  -11    7      2.37      0.00
    5  -11    7     -2.81      0.00
    6  -11    7      4.26      0.00
    7  -11    7     -4.26      0.00
    8  -11    7      0.42      0.00
    9  -11    7     -2.36      0.00
   10  -11    7     -0.11      0.00
   11  -11    7      2.05      0.00
   12  -11    7      5.37      0.00
  -14  -10    7      1.78      0.00
  -13  -10    7     -4.24      0.00
  -12  -10    7     -3.39      0.00
  -11  -10    7     -1.51      0.00
  -10  -10    7     -3.68      0.00
   -9  -10    7      2.49      0.00
   -8  -10    7     -0.73      0.00
   -7  -10    7     -1.08      0.00
   -6  -10    7      2.52      0.00
   -5  -10    7      2.38      0.00
   -4  -10    7     -0.53      0.00
   -3  -10    7      4.03      0.00
   -2  -10    7     -4.75      0.00
   -1  -10    7     -0.04      0.00
    0  -10    7     -4.58      0.00
    1  -10    7     -5.76      0.00
    2  -10    7     -7.67      0.00
    3  -10    7      2.52      0.00
    4  -10    7     -5.79      0.00
    5  -10    7      1.18      0.00
    6  -10    7      0.02      0.00
    7  -10    7     -2.42      0.00
    8  -10    7      0.82      0.00
    9  -10    7     -1.40      0.00
   10  -10    7      2.70      0.00
   11  -10    7      4.83      0.00
   12  -10    7     -0.74      0.00
   13  -10    7     -0.87      0.00
  -14   -9    7     -1.07      0.00
  -13   -9    7     -1.22      0.00
  -12   -9    7      2.39      0.00
  -11   -9    7     -1.89      0.00
  -10   -9    7      2.09      0.00
   -9   -9    7     -2.50      0.00
   -8   -9    7     -1.39      0.00
   -7   -9    7      1.49      0.00
   -6   -9    7      2.71      0.00
   -5   -9    7     -3.06      0.00
   -4   -9    7      1.62      0.00
   -2   -9    7     -6.30      0.00
   -1   -9    7     -1.39      0.00
    0   -9    7     -8.68      0.00
    1   -9    7      0.17      0.00
    2   -9    7      1.23      0.00
    3   -9    7      4.60      0.00
    4   -9    7     -2.22      0.00
    5   -9    7      6.46      0.00
    6   -9    7     -4.02      0.00
    7   -9    7      2.92      0.00
    8   -9    7      1.61      0.00
    9   -9    7      7.74      0.00
   10   -9    7      0.17      0.00
   11   -9    7     -3.73      0.00
   12   -9    7     -5.14      0.00
   13   -9    7     -2.56      0.00
  -15   -8    7     -2.84      0.00
  -14   -8    7     -1.75      0.00
  -13   -8    7     -0.27      0.00
  -12   -8    7      1.70      0.00
  -11   -8    7     -0.47      0.00
  -10   -8    7      1.61      0.00
   -9   -8    7     -0.22      0.00
   -8   -8    7      1.23      0.00
   -7   -8    7     -0.69      0.00
   -6   -8    7     -4.22      0.00
   -5   -8    7     -4.93      0.00
   -4   -8    7      1.62      0.00
   -3   -8    7    -11.21      0.00
   -2   -8    7      6.27      0.00
   -1   -8    7     -1.67      0.00
    0   -8    7      7.46      0.00
    1   -8    7      8.89      0.00
    2   -8    7      6.84      0.00
    3   -8    7     -0.51      0.00
    4   -8    7      3.65      0.00
    5   -8    7     -0.76      0.00
    6   -8    7     -3.08      0.00
    7   -8    7      5.22      0.00
    8   -8    7     -0.41      0.00
    9   -8    7     -5.21      0.00
   10   -8    7     -2.20      0.00
   11   -8    7      1.85      0.00
   12   -8    7      1.23      0.00
   13   -8    7      5.00      0.00
   14   -8    7     -1.64      0.00
  -15   -7    7      0.11      0.00
  -14   -7    7      1.85      0.00
  -13   -7    7      3.26      0.00
  -12   -7    7     -3.57      0.00
  -11   -7    7      0.65      0.00
  -10   -7    7     -0.80      0.00
   -9   -7    7     -1.35      0.00
   -8   -7    7     -0.14      0.00
   -7   -7    7      1.11      0.00
   -6   -7    7     -2.03      0.00
   -5   -7    7      6.10      0.00
   -4   -7    7      0.35      0.00
   -3   -7    7      4.45      0.00
   -2   -7    7     12.81      0.00
   -1   -7    7      0.68      0.00
    0   -7    7     13.42      0.00
    1   -7    7     -3.03      0.00
    2   -7    7      0.15      0.00
    3   -7    7     -6.73      0.00
    4   -7    7      1.55      0.00
    5   -7    7     -8.45      0.00
    6   -7    7      4.30      0.00
    7   -7    7     -3.86      0.00
    8   -7    7     -5.22      0.00
    9   -7    7      0.75      0.00
   10   -7    7     -0.24      0.00
   11   -7    7     -4.46      0.00
   12   -7    7      1.38      0.00
   13   -7    7     -6.01      0.00
   14   -7    7     -2.66      0.00
  -15   -6    7     -1.27      0.00
  -14   -6    7      0.82      0.00
  -13   -6    7     -2.84      0.00
  -12   -6    7      0.05      0.00
  -11   -6    7      3.86      0.00
  -10   -6    7     -3.36      0.00
   -9   -6    7      4.50      0.00
   -8   -6    7     -0.61      0.00
   -7   -6    7      0.46      0.00
   -6   -6    7      1.08      0.00
   -5   -6    7      7.49      0.00
   -4   -6    7     -7.23      0.00
   -3   -6    7     14.22      0.00
   -2   -6    7    -10.50      0.00
   -1   -6    7     -0.14      0.00
    0   -6    7     -7.31      0.00
    1   -6    7    -14.19      0.00
    2   -6    7     -5.01      0.00
    3   -6    7     -2.60      0.00
    4   -6    7     -3.44      0.00
    5   -6    7     -0.46      0.00
    6   -6    7      3.38      0.00
    7   -6    7     -4.96      0.00
    8   -6    7      4.21      0.00
    9   -6    7     -0.30      0.00
   10   -6    7     -2.71      0.00
   11   -6    7      2.51      0.00
   12   -6    7     -1.68      0.00
   13   -6    7      2.01      0.00
   14   -6    7      6.61      0.00
   15   -6    7      2.06      0.00
  -16   -5    7     -4.34      0.00
  -15   -5    7      3.26      0.00
  -14   -5    7     -0.94      0.00
  -13   -5    7     -0.14      0.00
  -12   -5    7      3.00      0.00
  -11   -5    7     -2.10      0.00
  -10   -5    7      0.85      0.00
   -9   -5    7      0.89      0.00
   -8   -5    7     -0.39      0.00
   -7   -5    7      0.31      0.00
   -6   -5    7      5.09      0.00
   -5   -5    7     -6.75      0.00
   -4   -5    7      0.68      0.00
   -3   -5    7     -0.81      0.00
   -2   -5    7    -16.86      0.00
   -1   -5    7      4.60      0.00
    0   -5    7    -18.68      0.00
    1   -5    7      5.92      0.00
    2   -5    7      0.63      0.00
    3   -5    7      2.54      0.00
    4   -5    7      4.18      0.00
    5   -5    7      9.20      0.00
    6   -5    7     -0.81      0.00
    7   -5    7      5.33      0.00
    8   -5    7      2.18      0.00
    9   -5    7     -1.53      0.00
   10   -5    7      2.78      0.00
   11   -5    7      0.33      0.00
   12   -5    7      0.87      0.00
   13   -5    7      0.98      0.00
   14   -5    7      0.03      0.00
   15   -5    7     -5.76      0.00
  -16   -4    7      1.81      0.00
  -15   -4    7     -0.83      0.00
  -14   -4    7     -2.13      0.00
  -13   -4    7      0.52      0.00
  -12   -4    7     -0.68      0.00
  -11   -4    7     -2.87      0.00
  -10   -4    7      4.36      0.00
   -9   -4    7     -4.85      0.00
   -8   -4    7      1.18      0.00
   -7   -4    7     -3.01      0.00
   -6   -4    7     -4.24      0.00
   -5   -4    7     -9.76      0.00
   -4   -4    7      6.09      0.00
   -3   -4    7    -19.23      0.00
   -2   -4    7      8.00      0.00
   -1   -4    7     -1.06      0.00
    0   -4    7      4.40      0.00
    1   -4    7     20.28      0.00
    2   -4    7     -0.36      0.00
    3   -4    7     14.69      0.00
    4   -4    7      1.37      0.00
    5   -4    7      2.23      0.00
    6   -4    7     -3.89      0.00
    7   -4    7      1.67      0.00
    8   -4    7     -4.83      0.00
    9   -4    7     -0.77      0.00
   10   -4    7      0.83      0.00
   11   -4    7     -2.10      0.00
   12   -4    7      0.76      0.00
   13   -4    7      1.34      0.00
   14   -4    7     -4.06      0.00
   15   -4    7      1.54      0.00
   16   -4    7      3.69      0.00
  -16   -3    7      5.27      0.00
  -15   -3    7      0.06      0.00
  -14   -3    7      2.00      0.00
  -13   -3    7      3.04      0.00
  -12   -3    7     -2.60      0.00
  -11   -3    7      2.92      0.00
  -10   -3    7     -3.99      0.00
   -9   -3    7     -1.56      0.00
   -8   -3    7     -0.14      0.00
   -7   -3    7     -1.27      0.00
   -6   -3    7     -1.61      0.00
   -5   -3    7      7.00      0.00
   -4   -3    7      1.60      0.00
   -3   -3    7      1.61      0.00
   -2   -3    7     19.98      0.00
   -1   -3    7     -3.36      0.00
    0   -3    7     23.26      0.00
    1   -3    7     -9.38      0.00
    2   -3    7      1.11      0.00
    3   -3    7     -8.00      0.00
    4   -3    7    -10.12      0.00
    5   -3    7     -9.23      0.00
    6   -3    7     -4.49      0.00
    7   -3    7     -2.01      0.00
    8   -3    7     -3.50      0.00
    9   -3    7      4.36      0.00
   10   -3    7     -1.67      0.00
   11   -3    7      0.65      0.00
   12   -3    7      1.62      0.00
   13   -3    7     -3.66      0.00
   14   -3    7     -0.37      0.00
   15   -3    7      1.89      0.00
   16   -3    7     -2.32      0.00
  -16   -2    7     -2.49      0.00
  -15   -2    7     -1.89      0.00
  -14   -2    7     -0.38      0.00
  -13   -2    7     -4.13      0.00
  -12   -2    7     -1.72      0.00
  -11   -2    7     -1.54      0.00
  -10   -2    7     -0.86      0.00
   -9   -2    7      5.06      0.00
   -8   -2    7      2.33      0.00
   -7   -2    7      1.45      0.00
   -6   -2    7      5.76      0.00
   -5   -2    7      2.58      0.00
   -4   -2    7     -6.31      0.00
   -3   -2    7      9.46      0.00
   -2   -2    7      0.20      0.00
   -1   -2    7     -8.16      0.00
    0   -2    7     -2.29      0.00
    1   -2    7    -22.39      0.00
    2   -2    7      0.71      0.00
    3   -2    7    -13.09      0.00
    4   -2    7      3.01      0.00
    5   -2    7      1.63      0.00
    6   -2    7      8.81      0.00
    7   -2    7     -3.87      0.00
    8   -2    7      5.79      0.00
    9   -2    7     -1.01      0.00
   10   -2    7     -0.64      0.00
   11   -2    7      3.22      0.00
   12   -2    7     -3.41      0.00
   13   -2    7      0.49      0.00
   14   -2    7      1.58      0.00
   15   -2    7     -0.04      0.00
   16   -2    7     -1.26      0.00
  -16   -1    7     -4.30      0.00
  -15   -1    7      2.26      0.00
  -14   -1    7     -1.86      0.00
  -13   -1    7      2.15      0.00
  -12   -1    7      5.50      0.00
  -11   -1    7      4.21      0.00
  -10   -1    7      2.78      0.00
   -9   -1    7      3.35      0.00
   -7   -1    7      4.84      0.00
   -6   -1    7     -5.10      0.00
   -5   -1    7      0.01      0.00
   -4   -1    7     -0.22      0.00
   -3   -1    7      9.13      0.00
   -2   -1    7    -21.17      0.00
   -1   -1    7      1.86      0.00
    0   -1    7    -13.82      0.00
    1   -1    7     -2.64      0.00
    2   -1    7      4.81      0.00
    3   -1    7      1.74      0.00
    4   -1    7     10.62      0.00
    5   -1    7      3.11      0.00
    6   -1    7     -2.19      0.00
    7   -1    7      2.45      0.00
    8   -1    7      6.35      0.00
    9   -1    7     -4.06      0.00
   10   -1    7      4.58      0.00
   11   -1    7     -2.55      0.00
   12   -1    7      0.57      0.00
   13   -1    7      5.35      0.00
   14   -1    7      2.51      0.00
   15   -1    7     -0.72      0.00
   16   -1    7      3.08      0.00
  -16    0    7      5.27      0.00
  -15    0    7     -1.27      0.00
  -14    0    7      4.98      0.00
  -13    0    7      0.61      0.00
  -12    0    7      1.13      0.00
  -11    0    7     -2.31      0.00
  -10    0    7      3.55      0.00
   -9    0    7     -7.28      0.00
   -8    0    7      3.10      0.00
   -7    0    7     -2.67      0.00
   -6    0    7     -4.45      0.00
   -5    0    7     -0.55      0.00
   -4    0    7     -1.16      0.00
   -3    0    7     -9.62      0.00
   -2    0    7    -14.57      0.00
   -1    0    7     14.84      0.00
    0    0    7    -15.88      0.00
    1    0    7     33.38      0.00
    2    0    7     -0.16      0.00
    3    0    7     18.14      0.00
    4    0    7     -3.23      0.00
    5    0    7     -0.51      0.00
    6    0    7     -0.74      0.00
    7    0    7     -0.70      0.00
    8    0    7     -7.86      0.00
    9    0    7     -2.16      0.00
   10    0    7     -3.96      0.00
   11    0    7     -0.18      0.00
   12    0    7      1.35      0.00
   13    0    7     -2.55      0.00
   14    0    7     -3.01      0.00
   15    0    7      0.27      0.00
   16    0    7     -0.26      0.00
  -16    1    7      0.06      0.00
  -15    1    7      2.42      0.00
  -14    1    7     -0.54      0.00
  -13    1    7     -0.13      0.00
  -12    1    7     -0.08      0.00
  -11    1    7     -4.25      0.00
  -10    1    7     -6.14      0.00
   -9    1    7     -3.18      0.00
   -8    1    7     -1.23      0.00
   -7    1    7     -7.57      0.00
   -6    1    7      7.04      0.00
   -5    1    7     -1.21      0.00
   -4    1    7      7.80      0.00
   -3    1    7     -9.81      0.00
   -2    1    7     32.13      0.00
   -1    1    7      1.24      0.00
    0    1    7     25.35      0.00
    1    1    7      5.56      0.00
    2    1    7    -10.15      0.00
    3    1    7     -5.34      0.00
    4    1    7    -10.35      0.00
    5    1    7     -3.20      0.00
    6    1    7     -6.93      0.00
    7    1    7      2.66      0.00
    8    1    7     -7.34      0.00
    9    1    7      7.91      0.00
   10    1    7      0.17      0.00
   11    1    7      1.47      0.00
   12    1    7      0.76      0.00
   13    1    7     -1.59      0.00
   14    1    7      0.87      0.00
   15    1    7      0.08      0.00
   16    1    7     -2.62      0.00
  -16    2    7     -4.45      0.00
  -15    2    7     -1.64      0.00
  -14    2    7     -5.98      0.00
  -13    2    7     -1.82      0.00
  -12    2    7     -6.87      0.00
  -11    2    7      1.80      0.00
  -10    2    7     -0.13      0.00
   -9    2    7      6.40      0.00
   -8    2    7      6.73      0.00
   -7    2    7     10.77      0.00
   -6    2    7      8.92      0.00
   -5    2    7      0.70      0.00
   -4    2    7     -2.29      0.00
   -3    2    7     14.85      0.00
   -2    2    7      7.41      0.00
   -1    2    7     -7.77      0.00
    0    2    7      3.03      0.00
    1    2    7    -24.09      0.00
    2    2    7     -1.60      0.00
    3    2    7     -7.87      0.00
    4    2    7      0.04      0.00
    5    2    7      1.42      0.00
    6    2    7      7.36      0.00
    7    2    7      1.25      0.00
    8    2    7      9.57      0.00
    9    2    7      4.04      0.00
   10    2    7      2.37      0.00
   11    2    7      1.86      0.00
   12    2    7      0.41      0.00
   13    2    7      2.00      0.00
   14    2    7     -0.86      0.00
   15    2    7      0.41      0.00
   16    2    7     -0.26      0.00
  -16    3    7      2.78      0.00
  -15    3    7     -0.61      0.00
  -14    3    7      2.97      0.00
  -13    3    7      3.67      0.00
  -12    3    7     -0.66      0.00
  -11    3    7      3.55      0.00
  -10    3    7     -0.90      0.00
   -9    3    7      3.87      0.00
   -8    3    7     -8.44      0.00
   -7    3    7     -3.63      0.00
   -6    3    7    -13.26      0.00
   -5    3    7     -6.17      0.00
   -4    3    7      2.35      0.00
   -3    3    7     -4.78      0.00
   -2    3    7    -21.05      0.00
   -1    3    7    -10.70      0.00
    0    3    7     -9.52      0.00
    1    3    7    -13.51      0.00
    2    3    7     11.94      0.00
    3    3    7     -3.92      0.00
    4    3    7     10.80      0.00
    5    3    7      4.44      0.00
    6    3    7      3.97      0.00
    7    3    7     -0.50      0.00
    8    3    7      2.84      0.00
    9    3    7     -5.54      0.00
   10    3    7     -4.90      0.00
   11    3    7     -1.11      0.00
   12    3    7     -3.53      0.00
   13    3    7     -3.34      0.00
   14    3    7      1.37      0.00
   15    3    7     -0.83      0.00
   16    3    7      1.25      0.00
  -16    4    7      3.35      0.00
  -15    4    7      1.60      0.00
  -14    4    7      3.57      0.00
  -13    4    7     -3.03      0.00
  -12    4    7      7.00      0.00
  -11    4    7      0.98      0.00
  -10    4    7      6.61      0.00
   -9    4    7     -4.71      0.00
   -8    4    7      4.41      0.00
   -7    4    7      0.85      0.00
   -6    4    7      0.52      0.00
   -5    4    7     11.59      0.00
   -4    4    7     -5.43      0.00
   -3    4    7     -1.36      0.00
   -2    4    7     -4.52      0.00
   -1    4    7     11.48      0.00
    0    4    7     -7.73      0.00
    1    4    7     19.79      0.00
    2    4    7      3.10      0.00
    3    4    7     10.11      0.00
    4    4    7      6.63      0.00
    5    4    7     -3.00      0.00
    6    4    7     -3.23      0.00
    7    4    7     -3.79      0.00
    8    4    7     -1.30      0.00
    9    4    7     -6.42      0.00
   10    4    7      7.92      0.00
   11    4    7     -2.98      0.00
   12    4    7      1.56      0.00
   13    4    7      2.04      0.00
   14    4    7     -1.07      0.00
   15    4    7     -3.13      0.00
   16    4    7      0.73      0.00
  -16    5    7      0.55      0.00
  -15    5    7     -0.92      0.00
  -14    5    7      1.35      0.00
  -13    5    7      1.02      0.00
  -12    5    7      0.09      0.00
  -11    5    7     -3.68      0.00
  -10    5    7     -4.21      0.00
   -9    5    7     -1.36      0.00
   -8    5    7     -2.40      0.00
   -7    5    7     -1.93      0.00
   -6    5    7      1.60      0.00
   -5    5    7     -2.98      0.00
   -4    5    7     -4.09      0.00
   -3    5    7      1.93      0.00
   -2    5    7      8.44      0.00
   -1    5    7      5.85      0.00
    0    5    7      6.33      0.00
    1    5    7     12.24      0.00
    2    5    7     -7.46      0.00
    3    5    7     -0.99      0.00
    4    5    7    -12.77      0.00
    5    5    7     -8.66      0.00
    6    5    7     -2.39      0.00
    7    5    7     -1.14      0.00
    8    5    7     -5.09      0.00
    9    5    7      4.85      0.00
   10    5    7     -5.18      0.00
   11    5    7     -1.81      0.00
   12    5    7      0.83      0.00
   13    5    7     -1.54      0.00
   14    5    7     -1.50      0.00
   15    5    7      3.35      0.00
   16    5    7     -0.49      0.00
  -15    6    7     -4.66      0.00
  -14    6    7     -9.39      0.00
  -13    6    7     -5.54      0.00
  -12    6    7     -5.39      0.00
  -11    6    7     -1.75      0.00
  -10    6    7     -0.70      0.00
   -9    6    7     -1.25      0.00
   -8    6    7      4.72      0.00
   -7    6    7      0.44      0.00
   -6    6    7      5.67      0.00
   -5    6    7     -2.70      0.00
   -4    6    7      7.84      0.00
   -3    6    7      1.93      0.00
   -2    6    7      5.67      0.00
   -1    6    7     -8.01      0.00
    0    6    7      3.32      0.00
    1    6    7    -12.24      0.00
    2    6    7    -15.62      0.00
    3    6    7     -2.55      0.00
    4    6    7    -10.85      0.00
    5    6    7      8.67      0.00
    6    6    7     -0.62      0.00
    7    6    7      4.28      0.00
    8    6    7      0.97      0.00
    9    6    7      1.37      0.00
   10    6    7     -0.81      0.00
   11    6    7      5.16      0.00
   12    6    7      0.51      0.00
   13    6    7      1.38      0.00
   14    6    7      2.47      0.00
   15    6    7      1.71      0.00
  -15    7    7      3.18      0.00
  -14    7    7      1.34      0.00
  -13    7    7      2.28      0.00
  -12    7    7      1.48      0.00
  -11    7    7     -0.21      0.00
  -10    7    7      1.03      0.00
   -9    7    7      4.04      0.00
   -8    7    7     -1.19      0.00
   -7    7    7     -0.94      0.00
   -6    7    7     -3.16      0.00
   -5    7    7     -3.49      0.00
   -4    7    7     -0.09      0.00
   -3    7    7     -6.79      0.00
   -2    7    7     -6.03      0.00
   -1    7    7     -9.35      0.00
    0    7    7     -2.24      0.00
    1    7    7    -18.28      0.00
    2    7    7     12.86      0.00
    3    7    7     -1.96      0.00
    4    7    7     12.22      0.00
    5    7    7      6.53      0.00
    6    7    7      4.26      0.00
    7    7    7      1.71      0.00
    8    7    7      3.71      0.00
    9    7    7      0.00      0.00
   10    7    7     -0.07      0.00
   11    7    7     -2.19      0.00
   12    7    7     -3.93      0.00
   13    7    7     -0.42      0.00
   14    7    7      0.64      0.00
  -14    8    7      7.03      0.00
  -13    8    7      7.17      0.00
  -12    8    7      1.97      0.00
  -11    8    7      4.66      0.00
  -10    8    7      0.50      0.00
   -9    8    7      0.41      0.00
   -8    8    7     -6.55      0.00
   -7    8    7      0.82      0.00
   -6    8    7     -4.25      0.00
   -5    8    7      2.13      0.00
   -4    8    7     -3.94      0.00
   -3    8    7      1.62      0.00
   -2    8    7     -3.25      0.00
   -1    8    7     11.56      0.00
    0    8    7     -0.12      0.00
    1    8    7     16.23      0.00
    2    8    7     12.97      0.00
    3    8    7      5.50      0.00
    4    8    7      7.80      0.00
    5    8    7     -3.76      0.00
    6    8    7     -2.56      0.00
    7    8    7     -4.09      0.00
    8    8    7     -1.10      0.00
    9    8    7     -4.44      0.00
   10    8    7      3.48      0.00
   11    8    7      0.13      0.00
   12    8    7      5.35      0.00
   13    8    7      5.75      0.00
   14    8    7      0.09      0.00
  -14    9    7     -2.21      0.00
  -13    9    7     -6.08      0.00
  -12    9    7      2.48      0.00
  -11    9    7     -2.05      0.00
  -10    9    7      2.40      0.00
   -9    9    7     -4.30      0.00
   -8    9    7      3.20      0.00
   -7    9    7      1.28      0.00
   -6    9    7      0.41      0.00
   -5    9    7      2.33      0.00
   -4    9    7      1.02      0.00
   -3    9    7      1.76      0.00
   -2    9    7      6.85      0.00
   -1    9    7     -1.57      0.00
    0    9    7     -0.45      0.00
    1    9    7      5.30      0.00
    2    9    7    -10.41      0.00
    3    9    7     -4.55      0.00
    4    9    7     -7.34      0.00
    5    9    7     -8.92      0.00
    6    9    7     -3.04      0.00
    7    9    7     -0.77      0.00
    8    9    7     -3.28      0.00
    9    9    7      3.72      0.00
   10    9    7     -0.38      0.00
   11    9    7     -0.18      0.00
   12    9    7      0.36      0.00
   13    9    7    -11.44      0.00
   14    9    7     -3.13      0.00
  -13   10    7      2.84      0.00
  -12   10    7     -3.46      0.00
  -11   10    7      0.69      0.00
  -10   10    7     -5.25      0.00
   -9   10    7      1.70      0.00
   -8   10    7      3.14      0.00
   -7   10    7     -2.00      0.00
   -6   10    7      2.67      0.00
   -5   10    7      0.41      0.00
   -4   10    7     -2.40      0.00
   -3   10    7      0.05      0.00
   -2   10    7     -4.51      0.00
   -1   10    7     -3.33      0.00
    0   10    7      0.76      0.00
    1   10    7     -7.74      0.00
    2   10    7     -3.79      0.00
    3   10    7     -0.62      0.00
    4   10    7     -1.45      0.00
    5   10    7      2.65      0.00
    6   10    7      3.06      0.00
    7   10    7      0.05      0.00
    8   10    7     -0.26      0.00
    9   10    7     -1.03      0.00
   10   10    7     -4.85      0.00
   11   10    7      1.06      0.00
   12   10    7     -6.71      0.00
   13   10    7      5.62      0.00
   14   10    7      2.61      0.00
  -13   11    7     -0.26      0.00
  -12   11    7     -1.33      0.00
  -11   11    7     -0.60      0.00
  -10   11    7      2.45      0.00
   -9   11    7      3.30      0.00
   -8   11    7     -2.40      0.00
   -7   11    7      2.40      0.00
   -6   11    7      0.53      0.00
   -5   11    7     -1.25      0.00
   -4   11    7      1.48      0.00
   -3   11    7      3.82      0.00
   -2   11    7     -4.92      0.00
   -1   11    7      2.83      0.00
    0   11    7     -2.04      0.00
    1   11    7      0.83      0.00
    2   11    7      5.79      0.00
    3   11    7      2.88      0.00
    4   11    7      1.77      0.00
    5   11    7      4.40      0.00
    6   11    7      0.63      0.00
    7   11    7      2.61      0.00
    8   11    7      0.64      0.00
    9   11    7      1.88      0.00
   10   11    7     -1.95      0.00
   11   11    7     -1.20      0.00
   12   11    7     -2.06      0.00
   13   11    7      3.06      0.00
   14   11    7     -4.51      0.00
  -12   12    7      1.39      0.00
  -11   12    7      0.85      0.00
  -10   12    7      0.39      0.00
   -9   12    7     -2.78      0.00
   -8   12    7     -0.32      0.00
   -7   12    7     -2.56      0.00
   -6   12    7      0.55      0.00
   -5   12    7     -2.80      0.00
   -4   12    7      5.65      0.00
   -3   12    7     -7.10      0.00
   -2   12    7      9.28      0.00
   -1   12    7      3.76      0.00
    0   12    7      4.63      0.00
    1   12    7      3.62      0.00
    2   12    7     -1.58      0.00
    3   12    7     -0.13      0.00
    4   12    7     -0.38      0.00
    5   12    7     -1.51      0.00
    6   12    7     -3.39      0.00
    7   12    7     -3.69      0.00
    8   12    7      3.23      0.00
    9   12    7     -5.17      0.00
   10   12    7      8.60      0.00
   11   12    7     -0.76      0.00
   12   12    7      9.83      0.00
   13   12    7     -0.40      0.00
  -11   13    7     -1.74      0.00
  -10   13    7     -1.03      0.00
   -9   13    7     -2.36      0.00
   -8   13    7      0.93      0.00
   -7   13    7      0.80      0.00
   -6   13    7     -2.55      0.00
   -5   13    7      3.03      0.00
   -4   13    7     -4.22      0.00
   -3   13    7      3.06      0.00
   -2   13    7      1.17      0.00
   -1   13    7     -2.67      0.00
    0   13    7     -1.36      0.00
    1   13    7     -1.34      0.00
    2   13    7      1.24      0.00
    3   13    7     -2.42      0.00
    4   13    7     -2.79      0.00
    5   13    7      0.09      0.00
    6   13    7      1.13      0.00
    7   13    7      7.34      0.00
    8   13    7     -2.75      0.00
    9   13    7      5.10      0.00
   10   13    7     -1.38      0.00
   11   13    7      0.88      0.00
   12   13    7      0.80      0.00
  -10   14    7      0.07      0.00
   -9   14    7      3.31      0.00
   -8   14    7      1.75      0.00
   -7   14    7      1.55      0.00
   -6   14    7      3.77      0.00
   -5   14    7      2.32      0.00
   -4   14    7      0.77      0.00
   -3   14    7      2.15      0.00
   -2   14    7     -2.99      0.00
   -1   14    7     -0.49      0.00
    0   14    7     -1.41      0.00
    1   14    7      3.58      0.00
    2   14    7     -4.44      0.00
    3   14    7      3.19      0.00
    4   14    7      5.71      0.00
    5   14    7      2.04      0.00
    6   14    7      5.04      0.00
    7   14    7     -1.18      0.00
    8   14    7      4.48      0.00
    9   14    7      4.53      0.00
   10   14    7      1.47      0.00
   11   14    7      3.04      0.00
   -9   15    7      0.01      0.00
   -8   15    7     -1.82      0.00
   -7   15    7     -2.64      0.00
   -6   15    7     -1.16      0.00
   -5   15    7     -6.30      0.00
   -4   15    7     -1.10      0.00
   -3   15    7     -1.83      0.00
   -2   15    7     -1.96      0.00
   -1   15    7     -1.58      0.00
    0   15    7     -0.30      0.00
    1   15    7     -9.65      0.00
    2   15    7     -1.53      0.00
    3   15    7     -3.08      0.00
    4   15    7     -5.97      0.00
    5   15    7     -3.47      0.00
    6   15    7     -4.02      0.00
    7   15    7     -5.24      0.00
    8   15    7     -5.18      0.00
    9   15    7     -6.49      0.00
   10   15    7     -6.23      0.00
   -7   16    7      1.04      0.00
   -6   16    7     -4.48      0.00
   -5   16    7      3.36      0.00
   -4   16    7      1.16      0.00
   -3   16    7      0.36      0.00
   -2   16    7      1.83      0.00
   -1   16    7      1.31      0.00
    0   16    7      0.85      0.00
    1   16    7      5.08      0.00
    2   16    7      9.38      0.00
    3   16    7      2.88      0.00
    4   16    7      8.31      0.00
    5   16    7      1.97      0.00
    6   16    7      1.03      0.00
    7   16    7      1.16      0.00
    8   16    7      1.93      0.00
    9   16    7      0.61      0.00
   -5   17    7      3.83      0.00
   -4   17    7     -0.78      0.00
   -3   17    7      2.19      0.00
   -2   17    7     -1.40      0.00
   -1   17    7     -0.39      0.00
    0   17    7     -2.94      0.00
    1   17    7      1.14      0.00
    2   17    7     -8.03      0.00
    3   17    7     -1.82      0.00
    4   17    7     -6.94      0.00
    5   17    7     -4.67      0.00
    6   17    7      0.36      0.00
    7   17    7     -1.74      0.00
   -2   18    7     -2.52      0.00
   -1   18    7     -1.03      0.00
    0   18    7      1.23      0.00
    1   18    7     -0.57      0.00
    2   18    7      0.14      0.00
    3   18    7      0.93      0.00
    4   18    7     -2.34      0.00
   -6  -16    8      0.90      0.00
   -5  -16    8      2.18      0.00
   -4  -16    8     -1.78      0.00
   -3  -16    8     -1.39      0.00
   -2  -16    8     -2.95      0.00
   -1  -16    8     -7.03      0.00
    0  -16    8      1.05      0.00
    1  -16    8     -5.08      0.00
    2  -16    8     -4.54      0.00
    3  -16    8     -0.65      0.00
    4  -16    8     -5.43      0.00
   -8  -15    8     -1.04      0.00
   -7  -15    8      2.93      0.00
   -6  -15    8     -0.32      0.00
   -5  -15    8      0.35      0.00
   -4  -15    8     -1.87      0.00
   -3  -15    8      1.79      0.00
   -2  -15    8     -1.88      0.00
   -1  -15    8      2.91      0.00
    0  -15    8     -0.37      0.00
    1  -15    8     -2.93      0.00
    2  -15    8      5.03      0.00
    3  -15    8     -2.85      0.00
    4  -15    8      2.12      0.00
    5  -15    8      3.14      0.00
    6  -15    8     -3.94      0.00
   -9  -14    8     -0.71      0.00
   -8  -14    8     -3.05      0.00
   -7  -14    8      1.86      0.00
   -6  -14    8     -1.41      0.00
   -5  -14    8     -0.50      0.00
   -4  -14    8      0.10      0.00
   -3  -14    8     -0.19      0.00
   -2  -14    8     -2.74      0.00
   -1  -14    8      5.59      0.00
    0  -14    8     -4.08      0.00
    1  -14    8      5.65      0.00
    2  -14    8     -4.83      0.00
    3  -14    8     -3.24      0.00
    4  -14    8     -1.50      0.00
    5  -14    8     -6.49      0.00
    6  -14    8      2.45      0.00
    7  -14    8     -1.10      0.00
    8  -14    8      0.07      0.00
  -11  -13    8     -4.50      0.00
  -10  -13    8      0.62      0.00
   -9  -13    8     -0.66      0.00
   -8  -13    8      3.19      0.00
   -7  -13    8     -1.46      0.00
   -6  -13    8      0.02      0.00
   -5  -13    8      0.05      0.00
   -4  -13    8     -0.48      0.00
   -3  -13    8     -1.40      0.00
   -2  -13    8      4.53      0.00
   -1  -13    8     -4.57      0.00
    0  -13    8      0.03      0.00
    1  -13    8     -2.76      0.00
    2  -13    8     -2.40      0.00
    3  -13    8      4.91      0.00
    4  -13    8      7.44      0.00
    5  -13    8      3.75      0.00
    6  -13    8      6.94      0.00
    7  -13    8      0.96      0.00
    8  -13    8     -0.65      0.00
    9  -13    8     -2.62      0.00
  -12  -12    8      2.30      0.00
  -11  -12    8      2.16      0.00
  -10  -12    8      3.34      0.00
   -9  -12    8      0.45      0.00
   -8  -12    8     -0.88      0.00
   -7  -12    8     -4.09      0.00
   -6  -12    8     -1.19      0.00
   -5  -12    8     -3.77      0.00
   -4  -12    8      1.06      0.00
   -3  -12    8      1.92      0.00
   -2  -12    8     -0.70      0.00
   -1  -12    8      1.41      0.00
    0  -12    8      1.99      0.00
    1  -12    8      2.82      0.00
    2  -12    8      5.64      0.00
    3  -12    8      5.47      0.00
    4  -12    8     -8.41      0.00
    5  -12    8      1.33      0.00
    6  -12    8     -7.38      0.00
    7  -12    8     -4.60      0.00
    8  -12    8     -1.54      0.00
    9  -12    8      2.86      0.00
   10  -12    8     -2.53      0.00
  -12  -11    8     -0.02      0.00
  -11  -11    8      0.49      0.00
  -10  -11    8     -1.46      0.00
   -9  -11    8     -1.26      0.00
   -8  -11    8     -1.87      0.00
   -7  -11    8      1.11      0.00
   -6  -11    8      4.28      0.00
   -5  -11    8      0.51      0.00
   -4  -11    8      5.48      0.00
   -3  -11    8     -2.53      0.00
   -2  -11    8      1.28      0.00
   -1  -11    8      0.26      0.00
    0  -11    8      2.68      0.00
    1  -11    8     -1.66      0.00
    2  -11    8      2.19      0.00
    3  -11    8     -8.49      0.00
    4  -11    8     -0.03      0.00
    5  -11    8      0.79      0.00
    6  -11    8     -5.25      0.00
    7  -11    8      4.54      0.00
    8  -11    8      0.09      0.00
    9  -11    8      0.00      0.00
   10  -11    8      0.75      0.00
   11  -11    8      2.70      0.00
  -13  -10    8      1.41      0.00
  -12  -10    8     -0.24      0.00
  -11  -10    8     -0.96      0.00
  -10  -10    8     -0.24      0.00
   -9  -10    8     -1.42      0.00
   -8  -10    8      1.54      0.00
   -7  -10    8      4.74      0.00
   -6  -10    8     -1.09      0.00
   -5  -10    8      5.04      0.00
   -4  -10    8     -1.03      0.00
   -3  -10    8      0.07      0.00
   -2  -10    8      3.07      0.00
   -1  -10    8     -1.81      0.00
    0  -10    8     -0.64      0.00
    1  -10    8     -0.22      0.00
    2  -10    8     -3.00      0.00
    3  -10    8     -2.70      0.00
    4  -10    8      7.49      0.00
    5  -10    8     -4.17      0.00
    6  -10    8      6.26      0.00
    7  -10    8      3.58      0.00
    8  -10    8      1.73      0.00
    9  -10    8     -1.18      0.00
   10  -10    8      2.54      0.00
   11  -10    8     -3.04      0.00
   12  -10    8      3.09      0.00
  -14   -9    8     -1.13      0.00
  -13   -9    8     -0.41      0.00
  -12   -9    8     -2.88      0.00
  -11   -9    8      3.01      0.00
  -10   -9    8      0.67      0.00
   -9   -9    8      2.87      0.00
   -8   -9    8      4.78      0.00
   -7   -9    8     -1.72      0.00
   -6   -9    8     -3.15      0.00
   -5   -9    8     -0.63      0.00
   -4   -9    8     -8.52      0.00
   -3   -9    8     -0.75      0.00
   -2   -9    8     -5.13      0.00
   -1   -9    8     -3.46      0.00
    1   -9    8     -1.51      0.00
    2   -9    8     -2.72      0.00
    3   -9    8      8.08      0.00
    4   -9    8     -1.55      0.00
    5   -9    8      0.78      0.00
    6   -9    8      6.99      0.00
    7   -9    8     -4.75      0.00
    8   -9    8     -2.59      0.00
    9   -9    8      0.20      0.00
   10   -9    8     -1.05      0.00
   11   -9    8      1.17      0.00
   12   -9    8     -0.19      0.00
   13   -9    8      0.72      0.00
  -14   -8    8      1.46      0.00
  -13   -8    8     -0.29      0.00
  -12   -8    8      1.79      0.00
  -11   -8    8     -1.32      0.00
  -10   -8    8     -3.40      0.00
   -9   -8    8      1.18      0.00
   -8   -8    8     -6.22      0.00
   -7   -8    8     -3.53      0.00
   -6   -8    8      0.55      0.00
   -5   -8    8     -4.34      0.00
   -4   -8    8      0.03      0.00
   -3   -8    8      4.91      0.00
   -2   -8    8     -3.26      0.00
   -1   -8    8      7.19      0.00
    1   -8    8      2.74      0.00
    2   -8    8      3.05      0.00
    3   -8    8      2.42      0.00
    4   -8    8     -5.43      0.00
    5   -8    8      5.86      0.00
    6   -8    8     -8.53      0.00
    7   -8    8     -3.75      0.00
    8   -8    8      2.22      0.00
    9   -8    8     -1.24      0.00
   10   -8    8     -0.49      0.00
   11   -8    8     -2.53      0.00
   12   -8    8     -2.63      0.00
   13   -8    8     -0.18      0.00
   14   -8    8     -1.47      0.00
  -15   -7    8      0.51      0.00
  -14   -7    8     -0.29      0.00
  -13   -7    8      0.88      0.00
  -12   -7    8      0.98      0.00
  -11   -7    8     -1.44      0.00
  -10   -7    8      3.28      0.00
   -9   -7    8     -4.08      0.00
   -8   -7    8     -1.18      0.00
   -7   -7    8      0.23      0.00
   -6   -7    8      0.22      0.00
   -5   -7    8      0.93      0.00
   -4   -7    8      9.12      0.00
   -3   -7    8     -1.18      0.00
   -2   -7    8      5.22      0.00
   -1   -7    8      4.01      0.00
    0   -7    8     -1.82      0.00
    1   -7    8      3.51      0.00
    2   -7    8     -1.02      0.00
    3   -7    8     -3.99      0.00
    4   -7    8     -2.48      0.00
    5   -7    8     -2.08      0.00
    6   -7    8     -6.12      0.00
    7   -7    8      5.57      0.00
    8   -7    8     -0.19      0.00
    9   -7    8      3.93      0.00
   10   -7    8      2.02      0.00
   11   -7    8      8.93      0.00
   12   -7    8      5.15      0.00
   13   -7    8      2.06      0.00
   14   -7    8     -2.66      0.00
  -15   -6    8     -2.65      0.00
  -14   -6    8      1.25      0.00
  -13   -6    8     -3.38      0.00
  -12   -6    8     -1.96      0.00
  -11   -6    8     -0.89      0.00
  -10   -6    8     -1.12      0.00
   -9   -6    8      0.75      0.00
   -8   -6    8      4.75      0.00
   -7   -6    8      4.29      0.00
   -6   -6    8      5.11      0.00
   -5   -6    8      5.66      0.00
   -4   -6    8      1.20      0.00
   -3   -6    8     -0.97      0.00
   -2   -6    8      5.56      0.00
   -1   -6    8     -8.36      0.00
    0   -6    8      2.74      0.00
    1   -6    8     -4.91      0.00
    2   -6    8     -2.17      0.00
    3   -6    8     -6.18      0.00
    4   -6    8      5.09      0.00
    5   -6    8     -4.33      0.00
    6   -6    8      6.99      0.00
    7   -6    8      4.21      0.00
    8   -6    8      0.99      0.00
    9   -6    8      1.20      0.00
   10   -6    8      1.73      0.00
   11   -6    8     -7.14      0.00
   12   -6    8     -6.37      0.00
   13   -6    8     -8.71      0.00
   14   -6    8      1.73      0.00
   15   -6    8     -2.98      0.00
  -15   -5    8      4.19      0.00
  -14   -5    8     -2.38      0.00
  -13   -5    8      1.18      0.00
  -12   -5    8      1.34      0.00
  -11   -5    8      3.78      0.00
  -10   -5    8      1.54      0.00
   -9   -5    8      3.48      0.00
   -8   -5    8      2.95      0.00
   -7   -5    8     -0.94      0.00
   -6   -5    8     -1.37      0.00
   -5   -5    8     -4.36      0.00
   -4   -5    8     -7.43      0.00
   -3   -5    8     -4.77      0.00
   -2   -5    8     -6.26      0.00
   -1   -5    8     -7.26      0.00
    0   -5    8      2.21      0.00
    1   -5    8     -2.91      0.00
    2   -5    8      1.30      0.00
    3   -5    8      5.82      0.00
    4   -5    8      5.29      0.00
    5   -5    8     -0.69      0.00
    6   -5    8      8.51      0.00
    7   -5    8     -6.95      0.00
    8   -5    8     -0.40      0.00
    9   -5    8     -3.87      0.00
   10   -5    8     -6.10      0.00
   11   -5    8     -2.26      0.00
   12   -5    8      1.45      0.00
   13   -5    8      6.44      0.00
   14   -5    8      6.56      0.00
   15   -5    8      3.74      0.00
  -16   -4    8     -0.83      0.00
  -15   -4    8     -4.55      0.00
  -14   -4    8     -1.53      0.00
  -13   -4    8      2.68      0.00
  -12   -4    8      1.61      0.00
  -11   -4    8     -1.26      0.00
  -10   -4    8     -1.85      0.00
   -9   -4    8     -0.15      0.00
   -8   -4    8     -7.37      0.00
   -7   -4    8     -2.12      0.00
   -6   -4    8     -6.70      0.00
   -5   -4    8     -1.51      0.00
   -4   -4    8     -1.18      0.00
   -3   -4    8      6.16      0.00
   -2   -4    8     -1.76      0.00
   -1   -4    8     10.92      0.00
    0   -4    8      2.85      0.00
    1   -4    8      1.53      0.00
    2   -4    8      5.35      0.00
    3   -4    8      5.34      0.00
    4   -4    8     -6.49      0.00
    5   -4    8      5.14      0.00
    6   -4    8     -6.64      0.00
    7   -4    8     -4.84      0.00
    8   -4    8      1.37      0.00
    9   -4    8     -3.49      0.00
   10   -4    8      2.75      0.00
   11   -4    8      3.54      0.00
   12   -4    8      3.75      0.00
   13   -4    8      2.02      0.00
   14   -4    8     -6.17      0.00
   15   -4    8     -1.25      0.00
  -16   -3    8     -0.84      0.00
  -15   -3    8      0.46      0.00
  -14   -3    8      2.65      0.00
  -13   -3    8     -2.45      0.00
  -12   -3    8     -2.47      0.00
  -11   -3    8     -3.68      0.00
  -10   -3    8      1.01      0.00
   -9   -3    8     -3.72      0.00
   -8   -3    8     -1.71      0.00
   -7   -3    8      1.74      0.00
   -6   -3    8      3.23      0.00
   -5   -3    8      4.07      0.00
   -4   -3    8      5.76      0.00
   -3   -3    8      3.08      0.00
   -2   -3    8     -1.33      0.00
   -1   -3    8      6.86      0.00
    0   -3    8    -12.40      0.00
    1   -3    8      4.54      0.00
    2   -3    8     -1.60      0.00
    3   -3    8     -9.92      0.00
    4   -3    8     -4.56      0.00
    5   -3    8     -2.39      0.00
    6   -3    8     -9.95      0.00
    7   -3    8      6.73      0.00
    8   -3    8     -4.55      0.00
    9   -3    8      4.17      0.00
   10   -3    8     -0.79      0.00
   11   -3    8      1.77      0.00
   12   -3    8     -5.84      0.00
   13   -3    8     -2.42      0.00
   14   -3    8     -2.52      0.00
   15   -3    8      0.64      0.00
   16   -3    8      2.58      0.00
  -16   -2    8      2.31      0.00
  -15   -2    8      3.08      0.00
  -14   -2    8      1.72      0.00
  -13   -2    8      0.55      0.00
  -12   -2    8      1.00      0.00
  -11   -2    8      1.27      0.00
  -10   -2    8     -0.58      0.00
   -9   -2    8     -2.62      0.00
   -8   -2    8      7.66      0.00
   -7   -2    8     -0.84      0.00
   -6   -2    8      5.59      0.00
   -5   -2    8      0.36      0.00
   -4   -2    8      1.92      0.00
   -3   -2    8     -8.28      0.00
   -2   -2    8      4.43      0.00
    0   -2    8      0.97      0.00
    1   -2    8      3.62      0.00
    2   -2    8    -13.19      0.00
    3   -2    8      0.38      0.00
    4   -2    8      3.46      0.00
    5   -2    8      1.59      0.00
    6   -2    8      7.11      0.00
    7   -2    8     10.44      0.00
    8   -2    8      4.48      0.00
    9   -2    8      4.45      0.00
   10   -2    8      4.69      0.00
   11   -2    8     -3.49      0.00
   12   -2    8      3.85      0.00
   13   -2    8     -1.18      0.00
   14   -2    8      2.60      0.00
   15   -2    8     -0.63      0.00
   16   -2    8     -0.09      0.00
  -16   -1    8      0.54      0.00
  -15   -1    8     -2.51      0.00
  -14   -1    8     -2.89      0.00
  -13   -1    8     -1.90      0.00
  -12   -1    8     -2.66      0.00
  -11   -1    8      1.72      0.00
  -10   -1    8     -0.63      0.00
   -9   -1    8      6.95      0.00
   -8   -1    8      2.41      0.00
   -7   -1    8      0.86      0.00
   -6   -1    8     -3.33      0.00
   -5   -1    8     -6.06      0.00
   -3   -1    8     -1.34      0.00
   -2   -1    8     -1.85      0.00
   -1   -1    8     -3.88      0.00
    0   -1    8     15.40      0.00
    1   -1    8    -11.76      0.00
    2   -1    8     12.26      0.00
    3   -1    8      6.04      0.00
    4   -1    8     10.40      0.00
    5   -1    8      0.32      0.00
    6   -1    8     10.93      0.00
    7   -1    8     -8.40      0.00
    9   -1    8     -2.35      0.00
   10   -1    8     -9.37      0.00
   11   -1    8     -1.66      0.00
   12   -1    8     -1.43      0.00
   13   -1    8     -3.13      0.00
   14   -1    8      0.79      0.00
   15   -1    8     -0.40      0.00
   16   -1    8      1.59      0.00
  -16    0    8     -1.55      0.00
  -15    0    8     -0.97      0.00
  -14    0    8     -0.24      0.00
  -13    0    8      1.46      0.00
  -12    0    8      1.03      0.00
  -11    0    8      2.07      0.00
  -10    0    8     -0.25      0.00
   -9    0    8      1.76      0.00
   -8    0    8     -8.11      0.00
   -7    0    8     -4.68      0.00
   -6    0    8     -4.76      0.00
   -5    0    8     -2.50      0.00
   -4    0    8      5.57      0.00
   -3    0    8      8.38      0.00
   -2    0    8     -0.69      0.00
   -1    0    8     13.01      0.00
    0    0    8     -6.76      0.00
    1    0    8     -1.63      0.00
    2    0    8      6.52      0.00
    3    0    8     -0.55      0.00
    4    0    8     -4.22      0.00
    5    0    8     -2.26      0.00
    6    0    8     -6.38      0.00
    7    0    8    -13.71      0.00
    8    0    8      7.96      0.00
    9    0    8     -6.38      0.00
   10    0    8      2.20      0.00
   11    0    8      4.25      0.00
   12    0    8      1.21      0.00
   13    0    8      3.86      0.00
   14    0    8      4.79      0.00
   15    0    8      0.88      0.00
   16    0    8     -0.99      0.00
  -16    1    8      0.78      0.00
  -15    1    8      3.26      0.00
  -14    1    8     -1.34      0.00
  -13    1    8      2.53      0.00
  -12    1    8      3.16      0.00
  -11    1    8     -1.81      0.00
  -10    1    8      3.50      0.00
   -9    1    8     -3.93      0.00
   -8    1    8     -4.03      0.00
   -7    1    8      6.02      0.00
   -6    1    8      0.49      0.00
   -5    1    8      8.34      0.00
   -4    1    8      8.86      0.00
   -3    1    8     -1.51      0.00
   -2    1    8      3.97      0.00
   -1    1    8     -9.25      0.00
    0    1    8     -9.63      0.00
    1    1    8      5.17      0.00
    2    1    8     -4.63      0.00
    3    1    8    -11.36      0.00
    4    1    8     -8.48      0.00
    5    1    8     -5.81      0.00
    6    1    8    -12.44      0.00
    7    1    8      7.13      0.00
    8    1    8     -1.02      0.00
    9    1    8     -2.70      0.00
   10    1    8      8.24      0.00
   11    1    8     -0.65      0.00
   12    1    8     -1.81      0.00
   13    1    8      5.29      0.00
   14    1    8     -7.89      0.00
   15    1    8     -0.25      0.00
   16    1    8     -1.55      0.00
  -16    2    8     -1.19      0.00
  -15    2    8     -3.68      0.00
  -14    2    8      4.22      0.00
  -13    2    8     -0.97      0.00
  -12    2    8     -2.87      0.00
  -11    2    8     -0.26      0.00
  -10    2    8     -2.94      0.00
   -9    2    8     -5.16      0.00
   -8    2    8      6.19      0.00
   -7    2    8     -0.25      0.00
   -6    2    8      2.13      0.00
   -5    2    8      3.58      0.00
   -4    2    8     -7.67      0.00
   -3    2    8     -5.85      0.00
   -2    2    8    -11.85      0.00
   -1    2    8      0.31      0.00
    0    2    8     -5.69      0.00
    1    2    8     12.14      0.00
    2    2    8    -17.92      0.00
    3    2    8     11.49      0.00
    4    2    8      1.99      0.00
    5    2    8      6.22      0.00
    6    2    8      7.85      0.00
    7    2    8      9.85      0.00
    8    2    8     -1.98      0.00
    9    2    8      6.75      0.00
   10    2    8      1.00      0.00
   11    2    8     -5.65      0.00
   12    2    8      2.77      0.00
   13    2    8     -5.88      0.00
   14    2    8     -0.51      0.00
   15    2    8      1.01      0.00
   16    2    8      1.52      0.00
  -16    3    8      2.23      0.00
  -15    3    8     -1.16      0.00
  -14    3    8     -0.24      0.00
  -13    3    8     -4.55      0.00
  -12    3    8      2.73      0.00
  -11    3    8      0.15      0.00
  -10    3    8      1.03      0.00
   -9    3    8      4.45      0.00
   -8    3    8      8.00      0.00
   -7    3    8     -1.66      0.00
   -6    3    8      2.87      0.00
   -5    3    8     -7.30      0.00
   -4    3    8     -3.85      0.00
   -3    3    8     -3.14      0.00
   -2    3    8     14.03      0.00
   -1    3    8     -1.03      0.00
    0    3    8     24.25      0.00
    1    3    8     -7.04      0.00
    2    3    8     14.08      0.00
    3    3    8      8.96      0.00
    4    3    8      1.79      0.00
    5    3    8      6.00      0.00
    6    3    8      5.27      0.00
    7    3    8      0.58      0.00
    8    3    8     -4.84      0.00
    9    3    8      8.65      0.00
   10    3    8    -12.92      0.00
   11    3    8      6.21      0.00
   12    3    8     -0.37      0.00
   13    3    8     -2.42      0.00
   14    3    8      6.29      0.00
   15    3    8     -1.00      0.00
   16    3    8      1.93      0.00
  -16    4    8     -3.42      0.00
  -15    4    8      6.02      0.00
  -14    4    8     -1.65      0.00
  -13    4    8      4.46      0.00
  -12    4    8     -0.66      0.00
  -11    4    8     -3.89      0.00
  -10    4    8     -2.26      0.00
   -9    4    8      0.81      0.00
   -8    4    8    -10.07      0.00
   -7    4    8     -7.83      0.00
   -6    4    8     -2.32      0.00
   -5    4    8     -4.84      0.00
   -4    4    8      1.35      0.00
   -3    4    8     12.38      0.00
   -2    4    8     -1.84      0.00
   -1    4    8      7.71      0.00
    0    4    8     -1.43      0.00
    1    4    8     -8.39      0.00
    2    4    8      6.49      0.00
    3    4    8    -13.21      0.00
    4    4    8      0.71      0.00
    5    4    8     -6.15      0.00
    6    4    8     -0.62      0.00
    7    4    8    -13.10      0.00
    8    4    8      4.84      0.00
    9    4    8    -11.56      0.00
   10    4    8      2.39      0.00
   11    4    8      1.16      0.00
   12    4    8     -0.51      0.00
   13    4    8      4.65      0.00
   14    4    8      2.74      0.00
   15    4    8      1.27      0.00
   16    4    8     -1.45      0.00
  -15    5    8     -1.17      0.00
  -14    5    8      2.02      0.00
  -13    5    8      0.04      0.00
  -12    5    8     -0.53      0.00
  -11    5    8      3.58      0.00
  -10    5    8      3.35      0.00
   -9    5    8     -0.36      0.00
   -8    5    8     -2.52      0.00
   -7    5    8     10.22      0.00
   -6    5    8      0.59      0.00
   -5    5    8      6.75      0.00
   -4    5    8     12.95      0.00
   -3    5    8     -0.81      0.00
   -2    5    8     -1.30      0.00
   -1    5    8      1.68      0.00
    0    5    8    -15.44      0.00
    1    5    8      1.04      0.00
    2    5    8     -2.91      0.00
    3    5    8     -4.34      0.00
    4    5    8      2.38      0.00
    5    5    8     -2.00      0.00
    6    5    8     -6.31      0.00
    7    5    8      3.53      0.00
    8    5    8      4.41      0.00
    9    5    8      1.95      0.00
   10    5    8      9.88      0.00
   11    5    8      1.56      0.00
   12    5    8      0.61      0.00
   13    5    8     -0.17      0.00
   14    5    8     -5.69      0.00
   15    5    8     -4.28      0.00
   16    5    8     -2.51      0.00
  -15    6    8      3.56      0.00
  -14    6    8      0.84      0.00
  -13    6    8      0.69      0.00
  -12    6    8     -0.32      0.00
  -11    6    8      3.10      0.00
  -10    6    8     -0.65      0.00
   -9    6    8     -0.12      0.00
   -8    6    8      8.04      0.00
   -7    6    8      1.45      0.00
   -6    6    8      2.05      0.00
   -5    6    8      3.77      0.00
   -4    6    8     -5.22      0.00
   -3    6    8     -9.86      0.00
   -2    6    8     -0.70      0.00
   -1    6    8    -13.24      0.00
    0    6    8     -2.04      0.00
    1    6    8      8.95      0.00
    2    6    8     -7.66      0.00
    3    6    8      8.71      0.00
    4    6    8     -2.05      0.00
    5    6    8      1.14      0.00
    6    6    8      1.32      0.00
    7    6    8      6.16      0.00
    8    6    8     -1.91      0.00
    9    6    8      0.49      0.00
   10    6    8      0.71      0.00
   11    6    8     -6.87      0.00
   12    6    8     -2.64      0.00
   13    6    8     -1.36      0.00
   14    6    8     -4.47      0.00
   15    6    8      0.89      0.00
   16    6    8      2.35      0.00
  -15    7    8     -7.97      0.00
  -14    7    8     -6.89      0.00
  -13    7    8     -3.38      0.00
  -12    7    8     -1.22      0.00
  -11    7    8     -2.67      0.00
  -10    7    8     -3.47      0.00
   -9    7    8      1.85      0.00
   -8    7    8     -0.41      0.00
   -7    7    8     -3.07      0.00
   -6    7    8     -2.27      0.00
   -5    7    8     -2.56      0.00
   -4    7    8    -11.59      0.00
   -3    7    8      2.74      0.00
   -2    7    8     -4.92      0.00
   -1    7    8      4.11      0.00
    0    7    8     12.93      0.00
    1    7    8     -2.01      0.00
    2    7    8      4.61      0.00
    3    7    8      2.75      0.00
    4    7    8     -2.62      0.00
    5    7    8      2.95      0.00
    6    7    8      1.92      0.00
    7    7    8      1.37      0.00
    8    7    8     -5.88      0.00
    9    7    8      3.59      0.00
   10    7    8    -11.26      0.00
   11    7    8      1.54      0.00
   12    7    8     -2.32      0.00
   13    7    8     -1.08      0.00
   14    7    8      0.34      0.00
   15    7    8      4.40      0.00
  -14    8    8     -0.71      0.00
  -13    8    8      0.45      0.00
  -12    8    8     -2.28      0.00
  -11    8    8     -1.81      0.00
  -10    8    8     -0.13      0.00
   -9    8    8     -0.46      0.00
   -8    8    8     -6.13      0.00
   -7    8    8     -3.16      0.00
   -6    8    8     -1.48      0.00
   -5    8    8     -5.97      0.00
   -4    8    8      5.40      0.00
   -3    8    8      6.52      0.00
   -2    8    8      3.57      0.00
   -1    8    8      9.51      0.00
    0    8    8     -0.57      0.00
    1    8    8     -4.54      0.00
    2    8    8      1.32      0.00
    3    8    8     -7.40      0.00
    4    8    8     -0.12      0.00
    5    8    8      0.62      0.00
    6    8    8      1.11      0.00
    7    8    8     -2.95      0.00
    8    8    8      1.67      0.00
    9    8    8     -1.51      0.00
   10    8    8      1.52      0.00
   11    8    8      2.43      0.00
   12    8    8      3.82      0.00
   13    8    8      2.54      0.00
   14    8    8      5.60      0.00
  -14    9    8      7.26      0.00
  -13    9    8      2.16      0.00
  -12    9    8      3.85      0.00
  -11    9    8     -2.50      0.00
  -10    9    8      5.86      0.00
   -9    9    8     -3.59      0.00
   -8    9    8      3.97      0.00
   -7    9    8      2.06      0.00
   -6    9    8      1.38      0.00
   -5    9    8      5.80      0.00
   -4    9    8      5.60      0.00
   -3    9    8     -1.05      0.00
   -2    9    8      3.03      0.00
   -1    9    8     -2.91      0.00
    0    9    8     -7.34      0.00
    1    9    8     -1.95      0.00
    2    9    8     -2.28      0.00
    3    9    8     -2.71      0.00
    4    9    8      4.22      0.00
    5    9    8     -4.78      0.00
    6    9    8     -0.72      0.00
    7    9    8     -3.48      0.00
    8    9    8      5.88      0.00
    9    9    8     -2.53      0.00
   10    9    8      7.33      0.00
   11    9    8     -0.46      0.00
   12    9    8      5.47      0.00
   13    9    8     -0.36      0.00
   14    9    8      6.05      0.00
  -13   10    8     -1.47      0.00
  -12   10    8     -0.12      0.00
  -11   10    8      6.46      0.00
  -10   10    8     -1.02      0.00
   -9   10    8      0.59      0.00
   -8   10    8      0.51      0.00
   -7   10    8      1.09      0.00
   -6   10    8      0.23      0.00
   -5   10    8      0.65      0.00
   -4   10    8     -1.93      0.00
   -3   10    8     -5.04      0.00
   -2   10    8     -4.10      0.00
   -1   10    8     -8.08      0.00
    0   10    8     -5.31      0.00
    1   10    8      3.63      0.00
    2   10    8     -3.86      0.00
    3   10    8      4.40      0.00
    4   10    8     -0.39      0.00
    5   10    8      2.44      0.00
    6   10    8      2.93      0.00
    7   10    8      4.38      0.00
    8   10    8      0.88      0.00
    9   10    8     -2.50      0.00
   10   10    8      2.53      0.00
   11   10    8     -3.62      0.00
   12   10    8     -4.03      0.00
   13   10    8     -5.54      0.00
   14   10    8     -9.36      0.00
  -12   11    8      1.17      0.00
  -11   11    8     -3.52      0.00
  -10   11    8     -1.47      0.00
   -9   11    8     -0.63      0.00
   -8   11    8      1.60      0.00
   -7   11    8     -3.93      0.00
   -6   11    8     -0.10      0.00
   -5   11    8     -5.08      0.00
   -4   11    8     -6.94      0.00
   -3   11    8     -1.86      0.00
   -2   11    8     -3.56      0.00
   -1   11    8      3.00      0.00
    0   11    8      8.37      0.00
    1   11    8      0.93      0.00
    2   11    8      4.77      0.00
    3   11    8      8.07      0.00
    4   11    8     -0.70      0.00
    5   11    8      4.94      0.00
    6   11    8     -2.62      0.00
    7   11    8     -3.86      0.00
    8   11    8    -10.52      0.00
    9   11    8      4.11      0.00
   10   11    8     -9.36      0.00
   11   11    8      3.29      0.00
   12   11    8     -3.38      0.00
   13   11    8      6.26      0.00
  -12   12    8     -2.30      0.00
  -11   12    8      2.70      0.00
  -10   12    8     -3.18      0.00
   -9   12    8      5.55      0.00
   -8   12    8     -3.31      0.00
   -7   12    8      2.16      0.00
   -6   12    8      0.87      0.00
   -5   12    8     -0.42      0.00
   -4   12    8      5.54      0.00
   -3   12    8      2.10      0.00
   -2   12    8      7.50      0.00
   -1   12    8      0.75      0.00
    0   12    8      1.22      0.00
    1   12    8      1.50      0.00
    2   12    8      3.24      0.00
    3   12    8     -8.61      0.00
    4   12    8     -2.45      0.00
    5   12    8     -8.56      0.00
    6   12    8     -8.51      0.00
    7   12    8     -2.25      0.00
    8   12    8      3.41      0.00
    9   12    8     -2.77      0.00
   10   12    8     -0.38      0.00
   11   12    8     -3.13      0.00
   12   12    8     -2.32      0.00
   13   12    8     -3.21      0.00
  -11   13    8     -0.48      0.00
  -10   13    8      1.53      0.00
   -9   13    8     -2.07      0.00
   -8   13    8     -3.41      0.00
   -7   13    8      2.59      0.00
   -6   13    8     -3.30      0.00
   -5   13    8      5.42      0.00
   -4   13    8      1.91      0.00
   -3   13    8      6.11      0.00
   -2   13    8     -2.90      0.00
   -1   13    8      3.16      0.00
    0   13    8     -3.02      0.00
    1   13    8     -6.10      0.00
    2   13    8     -4.89      0.00
    3   13    8     -3.89      0.00
    4   13    8      2.75      0.00
    5   13    8      0.13      0.00
    6   13    8      6.70      0.00
    7   13    8      8.31      0.00
    8   13    8     -0.20      0.00
    9   13    8      6.52      0.00
   10   13    8     -0.29      0.00
   11   13    8      6.14      0.00
   12   13    8      4.44      0.00
  -10   14    8      1.43      0.00
   -9   14    8     -2.07      0.00
   -8   14    8      4.62      0.00
   -7   14    8     -1.39      0.00
   -6   14    8      1.73      0.00
   -5   14    8     -1.70      0.00
   -4   14    8     -1.80      0.00
   -3   14    8     -7.71      0.00
   -2   14    8     -0.73      0.00
   -1   14    8     -5.35      0.00
    0   14    8     -2.23      0.00
    1   14    8      5.79      0.00
    2   14    8     -1.01      0.00
    3   14    8      6.43      0.00
    4   14    8     -0.93      0.00
    5   14    8     -0.17      0.00
    6   14    8      6.88      0.00
    7   14    8     -6.47      0.00
    8   14    8      2.28      0.00
    9   14    8     -7.37      0.00
   10   14    8      4.66      0.00
   11   14    8     -2.97      0.00
   -8   15    8     -0.83      0.00
   -7   15    8     -0.32      0.00
   -6   15    8      1.17      0.00
   -5   15    8      1.22      0.00
   -4   15    8     -2.73      0.00
   -3   15    8      0.44      0.00
   -2   15    8      0.58      0.00
   -1   15    8      1.71      0.00
    0   15    8      9.91      0.00
    1   15    8      0.15      0.00
    2   15    8      7.39      0.00
    3   15    8      3.86      0.00
    4   15    8      0.92      0.00
    5   15    8     12.39      0.00
    6   15    8     -2.90      0.00
    7   15    8      3.78      0.00
    8   15    8      4.05      0.00
    9   15    8      6.03      0.00
   10   15    8      2.15      0.00
   -7   16    8      0.39      0.00
   -6   16    8      0.52      0.00
   -5   16    8     -3.33      0.00
   -4   16    8      0.50      0.00
   -3   16    8      3.87      0.00
   -2   16    8      3.93      0.00
   -1   16    8      3.20      0.00
    0   16    8     -4.32      0.00
    1   16    8     -5.40      0.00
    2   16    8     -6.25      0.00
    3   16    8    -10.84      0.00
    4   16    8     -1.95      0.00
    5   16    8    -15.28      0.00
    6   16    8     -6.47      0.00
    7   16    8     -7.38      0.00
    8   16    8     -2.75      0.00
   -5   17    8     -0.41      0.00
   -4   17    8      2.90      0.00
   -3   17    8      2.86      0.00
   -2   17    8     -4.46      0.00
   -1   17    8      1.82      0.00
    0   17    8     -4.13      0.00
    1   17    8      6.19      0.00
    2   17    8     -0.26      0.00
    3   17    8      9.17      0.00
    4   17    8     -0.97      0.00
    5   17    8      8.44      0.00
    6   17    8      2.19      0.00
   -1   18    8     -4.24      0.00
    0   18    8     -0.80      0.00
    1   18    8     -4.91      0.00
    2   18    8      0.77      0.00
    3   18    8     -3.74      0.00
   -4  -16    9     -3.71      0.00
   -3  -16    9      5.80      0.00
   -2  -16    9      3.31      0.00
   -1  -16    9      5.72      0.00
    0  -16    9      1.55      0.00
    1  -16    9      3.55      0.00
    2  -16    9      1.70      0.00
    3  -16    9      4.30      0.00
   -7  -15    9      0.51      0.00
   -6  -15    9      1.67      0.00
   -5  -15    9      0.83      0.00
   -4  -15    9     -0.28      0.00
   -3  -15    9      1.58      0.00
   -2  -15    9     -3.92      0.00
   -1  -15    9     -3.62      0.00
    0  -15    9     -2.10      0.00
    1  -15    9     -1.42      0.00
    2  -15    9     -2.41      0.00
    3  -15    9     -4.65      0.00
    4  -15    9     -3.12      0.00
    5  -15    9      0.61      0.00
    6  -15    9     -4.91      0.00
   -9  -14    9      2.82      0.00
   -8  -14    9      2.62      0.00
   -7  -14    9      2.76      0.00
   -6  -14    9      2.85      0.00
   -5  -14    9     -2.22      0.00
   -4  -14    9      4.70      0.00
   -3  -14    9     -2.04      0.00
   -2  -14    9     -1.03      0.00
   -1  -14    9     -1.28      0.00
    0  -14    9     -1.50      0.00
    1  -14    9     -2.57      0.00
    2  -14    9     -0.42      0.00
    3  -14    9      5.12      0.00
    4  -14    9      2.12      0.00
    5  -14    9      0.24      0.00
    6  -14    9      3.61      0.00
    7  -14    9     -2.00      0.00
  -10  -13    9      0.74      0.00
   -9  -13    9     -3.55      0.00
   -8  -13    9     -1.16      0.00
   -7  -13    9     -1.35      0.00
   -6  -13    9     -3.02      0.00
   -5  -13    9     -1.97      0.00
   -4  -13    9     -1.59      0.00
   -3  -13    9     -6.21      0.00
   -2  -13    9      0.97      0.00
   -1  -13    9     -0.79      0.00
    0  -13    9      4.15      0.00
    1  -13    9     -0.78      0.00
    2  -13    9      4.35      0.00
    3  -13    9     -8.36      0.00
    4  -13    9     -2.05      0.00
    5  -13    9     -4.10      0.00
    6  -13    9      0.21      0.00
    7  -13    9      0.91      0.00
    8  -13    9      3.03      0.00
    9  -13    9     -1.39      0.00
  -11  -12    9      1.22      0.00
  -10  -12    9      0.16      0.00
   -9  -12    9     -0.16      0.00
   -8  -12    9      1.30      0.00
   -7  -12    9     -1.29      0.00
   -6  -12    9     -2.97      0.00
   -5  -12    9      2.13      0.00
   -4  -12    9     -1.06      0.00
   -3  -12    9      1.50      0.00
   -2  -12    9      3.35      0.00
   -1  -12    9      2.70      0.00
    0  -12    9     -5.22      0.00
    1  -12    9      3.21      0.00
    2  -12    9     -4.71      0.00
    3  -12    9      2.88      0.00
    4  -12    9      4.44      0.00
    5  -12    9      5.99      0.00
    6  -12    9      0.64      0.00
    7  -12    9      0.11      0.00
    8  -12    9     -3.10      0.00
    9  -12    9     -3.05      0.00
   10  -12    9     -4.48      0.00
  -12  -11    9     -0.20      0.00
  -11  -11    9      0.35      0.00
  -10  -11    9     -3.13      0.00
   -9  -11    9     -1.87      0.00
   -8  -11    9     -2.10      0.00
   -7  -11    9     -2.62      0.00
   -6  -11    9      2.43      0.00
   -5  -11    9      3.99      0.00
   -4  -11    9     -0.88      0.00
   -3  -11    9      6.61      0.00
   -2  -11    9     -0.94      0.00
   -1  -11    9     -2.18      0.00
    0  -11    9      1.53      0.00
    1  -11    9      1.43      0.00
    2  -11    9     -3.97      0.00
    3  -11    9      4.50      0.00
    4  -11    9     -2.20      0.00
    5  -11    9     -6.95      0.00
    6  -11    9     -0.11      0.00
    7  -11    9     -2.79      0.00
    8  -11    9     -2.01      0.00
    9  -11    9      0.39      0.00
   10  -11    9      4.59      0.00
   11  -11    9     -0.54      0.00
  -13  -10    9     -2.45      0.00
  -12  -10    9      3.06      0.00
  -11  -10    9     -0.45      0.00
  -10  -10    9      1.91      0.00
   -9  -10    9      3.74      0.00
   -8  -10    9      2.54      0.00
   -7  -10    9      2.77      0.00
   -6  -10    9      4.12      0.00
   -5  -10    9     -3.43      0.00
   -4  -10    9     -1.28      0.00
   -3  -10    9     -1.63      0.00
   -2  -10    9     -4.46      0.00
   -1  -10    9     -1.37      0.00
    0  -10    9      0.91      0.00
    1  -10    9     -5.52      0.00
    2  -10    9      3.06      0.00
    3  -10    9      0.96      0.00
    4  -10    9     -6.13      0.00
    5  -10    9      3.91      0.00
    6  -10    9     -1.49      0.00
    7  -10    9     -0.71      0.00
    8  -10    9      1.54      0.00
    9  -10    9      5.98      0.00
   10  -10    9     -4.06      0.00
   11  -10    9     -1.90      0.00
   12  -10    9     -2.99      0.00
  -13   -9    9      1.39      0.00
  -12   -9    9      1.73      0.00
  -11   -9    9     -0.05      0.00
  -10   -9    9     -0.53      0.00
   -9   -9    9      0.36      0.00
   -8   -9    9     -2.94      0.00
   -7   -9    9      2.36      0.00
   -6   -9    9     -2.58      0.00
   -5   -9    9     -3.75      0.00
   -4   -9    9      4.34      0.00
   -2   -9    9      1.37      0.00
   -1   -9    9      2.16      0.00
    0   -9    9      3.06      0.00
    1   -9    9      1.83      0.00
    2   -9    9      9.40      0.00
    3   -9    9     -5.34      0.00
    4   -9    9      5.56      0.00
    5   -9    9      3.95      0.00
    6   -9    9     -2.27      0.00
    7   -9    9      3.29      0.00
    8   -9    9      3.76      0.00
    9   -9    9     -6.41      0.00
   10   -9    9     -0.27      0.00
   11   -9    9      5.40      0.00
   12   -9    9      3.37      0.00
  -14   -8    9     -0.51      0.00
  -13   -8    9      4.55      0.00
  -12   -8    9     -1.54      0.00
  -11   -8    9      0.48      0.00
  -10   -8    9      1.94      0.00
   -9   -8    9     -0.27      0.00
   -8   -8    9     -0.77      0.00
   -7   -8    9     -0.53      0.00
   -6   -8    9     -6.39      0.00
   -5   -8    9      2.30      0.00
   -4   -8    9     -1.33      0.00
   -2   -8    9      4.91      0.00
   -1   -8    9      2.88      0.00
    0   -8    9     -1.08      0.00
    1   -8    9      3.12      0.00
    2   -8    9     -3.54      0.00
    3   -8    9     -5.53      0.00
    4   -8    9      6.06      0.00
    5   -8    9     -8.77      0.00
    6   -8    9      2.42      0.00
    7   -8    9      2.79      0.00
    8   -8    9     -6.46      0.00
    9   -8    9     -0.85      0.00
   10   -8    9      6.31      0.00
   11   -8    9     -4.07      0.00
   12   -8    9      1.20      0.00
   13   -8    9     -2.00      0.00
  -14   -7    9      2.64      0.00
  -13   -7    9     -1.47      0.00
  -12   -7    9     -5.38      0.00
  -11   -7    9      0.79      0.00
  -10   -7    9     -4.12      0.00
   -9   -7    9     -4.38      0.00
   -8   -7    9      3.15      0.00
   -7   -7    9     -3.70      0.00
   -6   -7    9      2.46      0.00
   -5   -7    9      6.76      0.00
   -4   -7    9     -5.95      0.00
   -3   -7    9      8.65      0.00
   -2   -7    9     -1.45      0.00
   -1   -7    9     -5.07      0.00
    0   -7    9     -4.71      0.00
    1   -7    9     -3.52      0.00
    2   -7    9    -11.68      0.00
    3   -7    9      5.96      0.00
    4   -7    9     -5.52      0.00
    5   -7    9     -0.96      0.00
    6   -7    9      5.57      0.00
    7   -7    9     -7.25      0.00
    8   -7    9      0.66      0.00
    9   -7    9      4.69      0.00
   10   -7    9     -6.14      0.00
   11   -7    9     -4.14      0.00
   12   -7    9     -3.42      0.00
   13   -7    9     -3.94      0.00
   14   -7    9     -4.47      0.00
  -15   -6    9     -1.59      0.00
  -14   -6    9     -2.08      0.00
  -13   -6    9     -6.76      0.00
  -12   -6    9      5.05      0.00
  -11   -6    9     -2.02      0.00
  -10   -6    9     -0.19      0.00
   -9   -6    9      4.82      0.00
   -8   -6    9     -0.91      0.00
   -7   -6    9     -1.50      0.00
   -6   -6    9      8.33      0.00
   -5   -6    9     -6.50      0.00
   -4   -6    9      1.80      0.00
   -3   -6    9      1.34      0.00
   -2   -6    9     -9.85      0.00
   -1   -6    9     -0.21      0.00
    0   -6    9      0.61      0.00
    1   -6    9     -1.20      0.00
    2   -6    9      5.33      0.00
    3   -6    9      8.47      0.00
    4   -6    9     -4.03      0.00
    5   -6    9     12.14      0.00
    6   -6    9     -3.05      0.00
    7   -6    9      3.23      0.00
    8   -6    9      4.97      0.00
    9   -6    9      0.95      0.00
   10   -6    9      1.51      0.00
   11   -6    9      7.62      0.00
   12   -6    9      7.44      0.00
   13   -6    9      1.35      0.00
   14   -6    9      5.82      0.00
  -15   -5    9     -0.71      0.00
  -14   -5    9     -3.78      0.00
  -13   -5    9      5.00      0.00
  -12   -5    9      1.90      0.00
  -11   -5    9     -0.73      0.00
  -10   -5    9      5.20      0.00
   -9   -5    9     -0.80      0.00
   -8   -5    9     -1.06      0.00
   -7   -5    9      3.99      0.00
   -6   -5    9     -3.35      0.00
   -5   -5    9     -6.51      0.00
   -4   -5    9      9.12      0.00
   -3   -5    9     -9.54      0.00
   -2   -5    9      5.55      0.00
   -1   -5    9      7.06      0.00
    0   -5    9      2.87      0.00
    1   -5    9      7.48      0.00
    2   -5    9      8.25      0.00
    3   -5    9     -0.58      0.00
    4   -5    9      0.84      0.00
    5   -5    9      2.12      0.00
    6   -5    9     -9.63      0.00
    7   -5    9      2.48      0.00
    8   -5    9     -2.12      0.00
    9   -5    9     -4.47      0.00
   10   -5    9     -0.24      0.00
   11   -5    9      1.25      0.00
   12   -5    9    -12.23      0.00
   13   -5    9      2.87      0.00
   14   -5    9     -7.07      0.00
   15   -5    9      1.91      0.00
  -15   -4    9      1.19      0.00
  -14   -4    9      3.91      0.00
  -13   -4    9      4.21      0.00
  -12   -4    9     -3.77      0.00
  -11   -4    9      3.07      0.00
  -10   -4    9      1.05      0.00
   -9   -4    9     -1.82      0.00
   -8   -4    9      0.52      0.00
   -7   -4    9      1.51      0.00
   -6   -4    9     -5.88      0.00
   -5   -4    9      6.89      0.00
   -4   -4    9     -1.24      0.00
   -3   -4    9     -4.06      0.00
   -2   -4    9     13.27      0.00
   -1   -4    9     -4.10      0.00
    0   -4    9      6.39      0.00
    1   -4    9     -2.96      0.00
    2   -4    9      0.16      0.00
    3   -4    9    -14.38      0.00
    4   -4    9      4.52      0.00
    5   -4    9    -13.42      0.00
    6   -4    9      1.74      0.00
    7   -4    9      0.44      0.00
    8   -4    9     -4.81      0.00
    9   -4    9      0.25      0.00
   10   -4    9      4.04      0.00
   11   -4    9     -6.76      0.00
   12   -4    9      8.26      0.00
   13   -4    9     -0.79      0.00
   14   -4    9      3.75      0.00
   15   -4    9      2.29      0.00
  -16   -3    9     -3.35      0.00
  -15   -3    9     -1.69      0.00
  -14   -3    9      1.38      0.00
  -13   -3    9     -1.82      0.00
  -12   -3    9     -0.42      0.00
  -11   -3    9      1.43      0.00
  -10   -3    9     -7.32      0.00
   -9   -3    9     -0.84      0.00
   -8   -3    9      1.50      0.00
   -7   -3    9     -3.46      0.00
   -6   -3    9      2.86      0.00
   -5   -3    9      7.69      0.00
   -4   -3    9     -6.57      0.00
   -3   -3    9     13.34      0.00
   -2   -3    9     -1.31      0.00
   -1   -3    9     -5.49      0.00
    0   -3    9     -2.04      0.00
    1   -3    9    -10.22      0.00
    3   -3    9     -2.49      0.00
    4   -3    9      4.44      0.00
    5   -3    9     -6.48      0.00
    6   -3    9     13.69      0.00
    7   -3    9     -5.34      0.00
    8   -3    9      5.17      0.00
    9   -3    9      5.98      0.00
   10   -3    9     -1.18      0.00
   11   -3    9      3.78      0.00
   12   -3    9      0.08      0.00
   13   -3    9      1.53      0.00
   14   -3    9      0.71      0.00
   15   -3    9     -2.52      0.00
  -16   -2    9     -0.26      0.00
  -15   -2    9     -0.26      0.00
  -14   -2    9     -1.09      0.00
  -13   -2    9     -6.12      0.00
  -12   -2    9      1.30      0.00
  -11   -2    9     -1.91      0.00
  -10   -2    9      1.38      0.00
   -9   -2    9      6.28      0.00
   -8   -2    9     -1.42      0.00
   -7   -2    9      2.68      0.00
   -6   -2    9      4.37      0.00
   -5   -2    9     -4.66      0.00
   -4   -2    9     -4.18      0.00
   -3   -2    9      5.22      0.00
   -2   -2    9    -22.02      0.00
   -1   -2    9      0.92      0.00
    0   -2    9    -11.88      0.00
    1   -2    9      4.16      0.00
    3   -2    9     15.40      0.00
    4   -2    9    -11.07      0.00
    5   -2    9     11.17      0.00
    6   -2    9     -4.94      0.00
    7   -2    9     -2.82      0.00
    8   -2    9      3.92      0.00
    9   -2    9     -6.78      0.00
   10   -2    9     -4.74      0.00
   11   -2    9     -1.83      0.00
   12   -2    9     -2.48      0.00
   13   -2    9     -3.01      0.00
   14   -2    9     -2.92      0.00
   15   -2    9      1.53      0.00
  -16   -1    9      0.88      0.00
  -15   -1    9      2.02      0.00
  -14   -1    9      0.82      0.00
  -13   -1    9      2.98      0.00
  -12   -1    9      4.10      0.00
  -11   -1    9     -4.21      0.00
  -10   -1    9      4.00      0.00
   -9   -1    9     -5.04      0.00
   -8   -1    9     -3.24      0.00
   -7   -1    9     -0.34      0.00
   -6   -1    9     -4.45      0.00
   -5   -1    9     -5.62      0.00
   -3   -1    9    -12.61      0.00
   -2   -1    9     -1.04      0.00
   -1   -1    9     13.56      0.00
    0   -1    9      0.92      0.00
    1   -1    9     12.18      0.00
    2   -1    9     11.56      0.00
    3   -1    9      1.44      0.00
    4   -1    9      3.93      0.00
    5   -1    9      9.24      0.00
    6   -1    9     -2.23      0.00
    7   -1    9      9.08      0.00
    8   -1    9     -1.58      0.00
    9   -1    9      2.84      0.00
   10   -1    9      3.22      0.00
   11   -1    9      5.82      0.00
   12   -1    9     -0.36      0.00
   13   -1    9      1.85      0.00
   14   -1    9      2.66      0.00
   15   -1    9      0.74      0.00
   16   -1    9     -1.79      0.00
  -16    0    9     -1.02      0.00
  -15    0    9     -0.17      0.00
  -14    0    9     -2.79      0.00
  -13    0    9      1.54      0.00
  -12    0    9     -5.06      0.00
  -11    0    9      0.15      0.00
  -10    0    9     -1.75      0.00
   -9    0    9     -3.00      0.00
   -8    0    9      3.77      0.00
   -7    0    9      0.73      0.00
   -6    0    9      1.12      0.00
   -5    0    9      1.10      0.00
   -4    0    9      3.32      0.00
   -3    0    9     -7.37      0.00
   -2    0    9     26.77      0.00
   -1    0    9      0.66      0.00
    0    0    9      7.68      0.00
    1    0    9      8.21      0.00
    2    0    9     -8.61      0.00
    3    0    9     -4.92      0.00
    4    0    9      0.44      0.00
    5    0    9     -5.43      0.00
    6    0    9     -8.49      0.00
    7    0    9      2.41      0.00
    8    0    9     -7.03      0.00
    9    0    9     -0.38      0.00
   10    0    9      3.12      0.00
   11    0    9     -6.73      0.00
   12    0    9      0.93      0.00
   13    0    9     -2.67      0.00
   14    0    9     -0.89      0.00
   15    0    9     -4.76      0.00
   16    0    9      0.41      0.00
  -16    1    9     -1.11      0.00
  -15    1    9     -1.61      0.00
  -14    1    9     -0.26      0.00
  -13    1    9     -0.78      0.00
  -12    1    9     -2.78      0.00
  -11    1    9      4.07      0.00
  -10    1    9      1.32      0.00
   -9    1    9      4.24      0.00
   -8    1    9      4.87      0.00
   -7    1    9     -2.13      0.00
   -6    1    9      0.40      0.00
   -5    1    9      5.56      0.00
   -4    1    9     -8.53      0.00
   -3    1    9     10.79      0.00
   -2    1    9      3.26      0.00
   -1    1    9    -22.54      0.00
    0    1    9      8.18      0.00
    1    1    9    -26.88      0.00
    2    1    9     -1.57      0.00
    3    1    9     -6.87      0.00
    4    1    9      1.43      0.00
    5    1    9    -10.99      0.00
    6    1    9      8.83      0.00
    7    1    9     -3.59      0.00
    8    1    9     -1.21      0.00
    9    1    9      5.42      0.00
   10    1    9     -4.34      0.00
   11    1    9     -1.70      0.00
   12    1    9      0.20      0.00
   13    1    9      1.06      0.00
   14    1    9     -1.84      0.00
   15    1    9      2.98      0.00
   16    1    9      2.22      0.00
  -16    2    9      2.46      0.00
  -15    2    9      0.68      0.00
  -14    2    9      2.73      0.00
  -13    2    9     -0.87      0.00
  -12    2    9      5.26      0.00
  -11    2    9      4.64      0.00
  -10    2    9     -2.58      0.00
   -9    2    9      3.82      0.00
   -8    2    9     -4.66      0.00
   -7    2    9     -0.84      0.00
   -6    2    9      1.34      0.00
   -5    2    9     -3.72      0.00
   -4    2    9     -1.66      0.00
   -3    2    9      7.64      0.00
   -2    2    9    -30.92      0.00
   -1    2    9      4.11      0.00
    0    2    9    -15.73      0.00
    1    2    9     -3.41      0.00
    2    2    9      2.91      0.00
    3    2    9      3.01      0.00
    4    2    9     -1.84      0.00
    5    2    9      4.73      0.00
    6    2    9      7.28      0.00
    7    2    9     -7.92      0.00
    8    2    9     11.16      0.00
    9    2    9     -6.60      0.00
   10    2    9     -3.37      0.00
   11    2    9      3.20      0.00
   12    2    9      0.94      0.00
   13    2    9     -4.04      0.00
   14    2    9      2.72      0.00
   15    2    9     -0.63      0.00
   16    2    9     -2.40      0.00
  -15    3    9     -0.36      0.00
  -14    3    9      0.12      0.00
  -13    3    9      0.79      0.00
  -12    3    9      1.02      0.00
  -11    3    9     -8.08      0.00
  -10    3    9      1.98      0.00
   -9    3    9     -6.31      0.00
   -8    3    9     -3.99      0.00
   -7    3    9     -1.06      0.00
   -6    3    9     -4.08      0.00
   -5    3    9     -4.14      0.00
   -4    3    9      1.56      0.00
   -3    3    9    -14.40      0.00
   -2    3    9      1.32      0.00
   -1    3    9     10.75      0.00
    0    3    9      3.72      0.00
    1    3    9     14.28      0.00
    2    3    9     14.91      0.00
    3    3    9      4.15      0.00
    4    3    9      4.75      0.00
    5    3    9      8.01      0.00
    6    3    9     -9.13      0.00
    7    3    9      2.00      0.00
    8    3    9     -4.20      0.00
    9    3    9     -5.91      0.00
   10    3    9      2.84      0.00
   11    3    9     -0.10      0.00
   12    3    9     -5.80      0.00
   13    3    9      4.55      0.00
   14    3    9      1.88      0.00
   15    3    9     -1.38      0.00
   16    3    9      3.03      0.00
  -15    4    9     -0.31      0.00
  -14    4    9     -5.03      0.00
  -13    4    9     -0.50      0.00
  -12    4    9     -3.82      0.00
  -11    4    9      0.57      0.00
  -10    4    9     -1.58      0.00
   -9    4    9     -0.27      0.00
   -8    4    9      1.44      0.00
   -7    4    9      3.87      0.00
   -6    4    9      0.50      0.00
   -5    4    9      4.41      0.00
   -4    4    9      4.65      0.00
   -3    4    9      3.10      0.00
   -2    4    9     20.36      0.00
   -1    4    9     10.70      0.00
    0    4    9      1.83      0.00
    1    4    9     17.59      0.00
    2    4    9    -15.46      0.00
    3    4    9     -1.16      0.00
    4    4    9     -6.08      0.00
    5    4    9     -6.56      0.00
    6    4    9     -7.10      0.00
    7    4    9      5.65      0.00
    8    4    9     -5.43      0.00
    9    4    9      4.50      0.00
   10    4    9      4.65      0.00
   11    4    9      0.49      0.00
   12    4    9      5.21      0.00
   13    4    9      5.44      0.00
   14    4    9     -5.61      0.00
   15    4    9      4.86      0.00
   16    4    9     -1.48      0.00
  -15    5    9     -1.43      0.00
  -14    5    9      4.46      0.00
  -13    5    9     -1.70      0.00
  -12    5    9     -0.48      0.00
  -11    5    9      0.93      0.00
  -10    5    9      0.64      0.00
   -9    5    9      1.19      0.00
   -8    5    9      5.70      0.00
   -7    5    9     -1.65      0.00
   -6    5    9      2.37      0.00
   -5    5    9      2.51      0.00
   -4    5    9     -1.94      0.00
   -3    5    9      2.96      0.00
   -2    5    9      3.82      0.00
   -1    5    9    -20.41      0.00
    0    5    9      3.20      0.00
    1    5    9    -20.99      0.00
    2    5    9    -10.44      0.00
    3    5    9     -3.55      0.00
    4    5    9     -2.21      0.00
    5    5    9     -1.91      0.00
    6    5    9      6.52      0.00
    7    5    9      1.84      0.00
    8    5    9     -2.51      0.00
    9    5    9      9.27      0.00
   10    5    9     -3.82      0.00
   11    5    9      2.01      0.00
   12    5    9      3.15      0.00
   13    5    9     -2.82      0.00
   14    5    9      3.45      0.00
   15    5    9      1.45      0.00
  -15    6    9      4.57      0.00
  -14    6    9      0.04      0.00
  -13    6    9      3.88      0.00
  -12    6    9      5.53      0.00
  -11    6    9      3.51      0.00
  -10    6    9      0.14      0.00
   -9    6    9      4.06      0.00
   -8    6    9     -5.33      0.00
   -7    6    9     -1.61      0.00
   -6    6    9     -0.15      0.00
   -5    6    9     -3.94      0.00
   -4    6    9     -2.57      0.00
   -3    6    9      1.79      0.00
   -2    6    9    -14.92      0.00
   -1    6    9     -3.08      0.00
    0    6    9      0.61      0.00
    1    6    9    -12.45      0.00
    2    6    9     14.14      0.00
    3    6    9      4.87      0.00
    4    6    9      5.54      0.00
    5    6    9      5.06      0.00
    6    6    9      9.07      0.00
    7    6    9     -5.57      0.00
    8    6    9     11.26      0.00
    9    6    9     -4.76      0.00
   10    6    9     -0.37      0.00
   11    6    9     -0.43      0.00
   12    6    9     -3.87      0.00
   13    6    9     -4.32      0.00
   14    6    9      0.47      0.00
   15    6    9     -4.79      0.00
  -14    7    9      1.86      0.00
  -13    7    9      4.12      0.00
  -12    7    9     -1.36      0.00
  -11    7    9     -1.78      0.00
  -10    7    9      2.51      0.00
   -9    7    9     -2.12      0.00
   -8    7    9     -1.80      0.00
   -7    7    9      3.59      0.00
   -6    7    9     -2.13      0.00
   -5    7    9      0.78      0.00
   -4    7    9      2.51      0.00
   -3    7    9      0.25      0.00
   -2    7    9     -4.95      0.00
   -1    7    9     17.68      0.00
    0    7    9     -6.06      0.00
    1    7    9     17.42      0.00
    2    7    9     12.98      0.00
    3    7    9     -1.80      0.00
    4    7    9      2.68      0.00
    5    7    9      0.33      0.00
    6    7    9    -10.08      0.00
    7    7    9     -3.88      0.00
    8    7    9     -1.42      0.00
    9    7    9     -8.34      0.00
   10    7    9      3.00      0.00
   11    7    9     -4.68      0.00
   12    7    9     -0.87      0.00
   13    7    9     -2.60      0.00
   14    7    9     -0.53      0.00
   15    7    9     -3.87      0.00
  -14    8    9     -1.63      0.00
  -13    8    9     -7.63      0.00
  -12    8    9     -3.11      0.00
  -11    8    9     -2.08      0.00
  -10    8    9     -0.74      0.00
   -9    8    9     -4.72      0.00
   -8    8    9      4.64      0.00
   -7    8    9      0.01      0.00
   -6    8    9      1.33      0.00
   -5    8    9      1.68      0.00
   -4    8    9      1.84      0.00
   -3    8    9     -6.59      0.00
   -2    8    9     12.18      0.00
   -1    8    9     -1.95      0.00
    0    8    9      0.99      0.00
    1    8    9     11.06      0.00
    2    8    9    -14.46      0.00
    3    8    9     -3.14      0.00
    4    8    9     -3.38      0.00
    5    8    9     -7.50      0.00
    6    8    9     -4.65      0.00
    7    8    9      7.62      0.00
    8    8    9     -8.13      0.00
    9    8    9      4.83      0.00
   10    8    9     -1.66      0.00
   11    8    9     -0.53      0.00
   12    8    9      1.06      0.00
   13    8    9      3.04      0.00
   14    8    9     -0.59      0.00
  -13    9    9      0.28      0.00
  -12    9    9     -2.13      0.00
  -11    9    9      1.37      0.00
  -10    9    9     -5.98      0.00
   -9    9    9      0.87      0.00
   -8    9    9      2.42      0.00
   -7    9    9     -3.84      0.00
   -6    9    9      1.50      0.00
   -5    9    9      2.18      0.00
   -4    9    9     -3.56      0.00
   -3    9    9      6.23      0.00
   -2    9    9      1.81      0.00
   -1    9    9     -6.46      0.00
    0    9    9      4.75      0.00
    1    9    9    -12.39      0.00
    2    9    9     -8.74      0.00
    3    9    9      1.40      0.00
    4    9    9     -0.82      0.00
    5    9    9      2.34      0.00
    6    9    9     12.72      0.00
    7    9    9      1.67      0.00
    8    9    9      2.98      0.00
    9    9    9      6.78      0.00
   10    9    9     -1.25      0.00
   11    9    9      7.75      0.00
   12    9    9      0.58      0.00
   13    9    9      4.77      0.00
   14    9    9     -1.13      0.00
  -13   10    9      1.57      0.00
  -12   10    9      0.68      0.00
  -11   10    9      1.26      0.00
  -10   10    9      1.29      0.00
   -8   10    9     -4.14      0.00
   -7   10    9      0.85      0.00
   -6   10    9      1.78      0.00
   -5   10    9     -5.47      0.00
   -4   10    9      1.19      0.00
   -3   10    9     -0.44      0.00
   -2   10    9     -6.03      0.00
   -1   10    9     -2.29      0.00
    0   10    9     -2.19      0.00
    1   10    9     -5.49      0.00
    2   10    9      8.20      0.00
    3   10    9      6.28      0.00
    4   10    9     -2.01      0.00
    5   10    9      6.76      0.00
    6   10    9     -5.35      0.00
    7   10    9     -2.37      0.00
    8   10    9      1.86      0.00
    9   10    9      0.26      0.00
   10   10    9     -1.38      0.00
   11   10    9     -0.19      0.00
   12   10    9     -1.06      0.00
   13   10    9      0.00      0.00
   14   10    9      1.30      0.00
  -12   11    9      4.55      0.00
  -11   11    9     -1.93      0.00
  -10   11    9      5.54      0.00
   -9   11    9     -5.38      0.00
   -8   11    9     -1.44      0.00
   -7   11    9      2.31      0.00
   -6   11    9     -0.63      0.00
   -5   11    9     -0.30      0.00
   -4   11    9      4.72      0.00
   -3   11    9     -1.37      0.00
   -2   11    9     -1.02      0.00
   -1   11    9      5.32      0.00
    0   11    9      0.14      0.00
    1   11    9      1.13      0.00
    2   11    9      5.64      0.00
    3   11    9     -7.71      0.00
    4   11    9      0.02      0.00
    5   11    9     -1.16      0.00
    6   11    9     -0.33      0.00
    7   11    9     -0.97      0.00
    8   11    9      3.28      0.00
    9   11    9     -6.49      0.00
   10   11    9      3.08      0.00
   11   11    9     -2.79      0.00
   12   11    9     -0.73      0.00
   13   11    9     -4.61      0.00
  -11   12    9      0.30      0.00
  -10   12    9     -2.00      0.00
   -9   12    9     -1.30      0.00
   -8   12    9      1.06      0.00
   -7   12    9      2.25      0.00
   -6   12    9     -5.70      0.00
   -5   12    9      3.47      0.00
   -4   12    9     -4.56      0.00
   -3   12    9     -4.53      0.00
   -2   12    9      6.16      0.00
   -1   12    9     -0.66      0.00
    0   12    9     -2.99      0.00
    1   12    9      9.84      0.00
    2   12    9     -6.20      0.00
    3   12    9      2.26      0.00
    4   12    9      7.40      0.00
    5   12    9     -2.33      0.00
    6   12    9     -1.11      0.00
    7   12    9      0.68      0.00
    8   12    9     -3.90      0.00
    9   12    9     -2.82      0.00
   10   12    9      4.48      0.00
   11   12    9     -5.19      0.00
   12   12    9      4.38      0.00
  -10   13    9      0.24      0.00
   -9   13    9      0.52      0.00
   -8   13    9      3.15      0.00
   -7   13    9     -4.51      0.00
   -6   13    9     -0.08      0.00
   -5   13    9     -0.07      0.00
   -4   13    9     -3.76      0.00
   -3   13    9      4.87      0.00
   -2   13    9     -5.59      0.00
   -1   13    9     -4.16      0.00
    0   13    9      1.37      0.00
    1   13    9     -7.14      0.00
    2   13    9     -1.95      0.00
    3   13    9     -1.89      0.00
    4   13    9     -6.83      0.00
    5   13    9     -7.16      0.00
    6   13    9      3.44      0.00
    7   13    9     -3.20      0.00
    8   13    9      0.37      0.00
    9   13    9      4.98      0.00
   10   13    9     -8.20      0.00
   11   13    9      0.83      0.00
   -9   14    9     -1.51      0.00
   -8   14    9     -2.43      0.00
   -7   14    9     -3.32      0.00
   -6   14    9      7.12      0.00
   -5   14    9      0.05      0.00
   -4   14    9      4.09      0.00
   -3   14    9      2.07      0.00
   -2   14    9      0.67      0.00
   -1   14    9      0.75      0.00
    0   14    9      0.30      0.00
    1   14    9     -2.22      0.00
    2   14    9     -0.82      0.00
    3   14    9      6.67      0.00
    4   14    9      2.34      0.00
    5   14    9      9.36      0.00
    6   14    9      1.08      0.00
    7   14    9     -1.20      0.00
    8   14    9     -0.15      0.00
    9   14    9     -4.60      0.00
   10   14    9      0.76      0.00
   -8   15    9     -0.58      0.00
   -7   15    9      6.54      0.00
   -6   15    9     -4.49      0.00
   -5   15    9     -1.78      0.00
   -4   15    9     -1.76      0.00
   -3   15    9     -0.32      0.00
   -2   15    9     -2.71      0.00
   -1   15    9      2.72      0.00
    0   15    9      0.02      0.00
    1   15    9      0.79      0.00
    2   15    9     11.57      0.00
    3   15    9     -4.43      0.00
    4   15    9     -2.11      0.00
    5   15    9     -0.81      0.00
    6   15    9    -10.39      0.00
    7   15    9      2.99      0.00
    8   15    9     -3.02      0.00
    9   15    9      3.26      0.00
   -6   16    9      0.64      0.00
   -5   16    9      0.95      0.00
   -4   16    9      3.05      0.00
   -3   16    9     -6.03      0.00
   -2   16    9      1.19      0.00
   -1   16    9      0.41      0.00
    0   16    9      0.82      0.00
    1   16    9      8.82      0.00
    2   16    9     -5.77      0.00
    3   16    9     -0.40      0.00
    4   16    9      4.77      0.00
    5   16    9     -3.02      0.00
    6   16    9     10.04      0.00
    7   16    9      3.38      0.00
    8   16    9      4.53      0.00
   -4   17    9     -3.18      0.00
   -3   17    9      2.24      0.00
   -2   17    9      3.65      0.00
   -1   17    9      0.26      0.00
    0   17    9     -2.65      0.00
    1   17    9     -6.44      0.00
    2   17    9     -8.92      0.00
    3   17    9     -0.27      0.00
    4   17    9     -8.72      0.00
    5   17    9      1.38      0.00
    6   17    9     -6.11      0.00
   -2  -16   10     -2.60      0.00
   -1  -16   10      2.60      0.00
    0  -16   10     -1.21      0.00
   -6  -15   10      1.16      0.00
   -5  -15   10     -3.21      0.00
   -4  -15   10      4.90      0.00
   -3  -15   10      0.81      0.00
   -2  -15   10      3.59      0.00
   -1  -15   10      3.03      0.00
    0  -15   10     -1.10      0.00
    1  -15   10      3.26      0.00
    2  -15   10      2.25      0.00
    3  -15   10      2.17      0.00
    4  -15   10      5.61      0.00
   -8  -14   10      3.40      0.00
   -7  -14   10     -0.91      0.00
   -6  -14   10     -0.64      0.00
   -5  -14   10      1.48      0.00
   -4  -14   10      1.51      0.00
   -3  -14   10     -5.93      0.00
   -2  -14   10      3.06      0.00
   -1  -14   10     -3.71      0.00
    0  -14   10      0.60      0.00
    1  -14   10      3.55      0.00
    2  -14   10     -4.30      0.00
    3  -14   10      1.76      0.00
    4  -14   10     -2.81      0.00
    5  -14   10     -1.98      0.00
    6  -14   10     -0.03      0.00
   -9  -13   10      3.28      0.00
   -8  -13   10     -1.05      0.00
   -7  -13   10     -1.61      0.00
   -6  -13   10     -0.97      0.00
   -5  -13   10      1.40      0.00
   -4  -13   10     -6.43      0.00
   -3  -13   10      3.74      0.00
   -2  -13   10     -2.84      0.00
   -1  -13   10     -4.86      0.00
    0  -13   10      2.78      0.00
    1  -13   10     -4.46      0.00
    2  -13   10      4.92      0.00
    3  -13   10      2.69      0.00
    4  -13   10      0.76      0.00
    5  -13   10      1.30      0.00
    6  -13   10     -2.91      0.00
    7  -13   10      0.44      0.00
    8  -13   10     -2.74      0.00
  -10  -12   10     -2.74      0.00
   -9  -12   10     -2.49      0.00
   -8  -12   10     -1.05      0.00
   -7  -12   10     -1.05      0.00
   -6  -12   10      3.13      0.00
   -5  -12   10     -3.73      0.00
   -4  -12   10      1.23      0.00
   -3  -12   10      0.51      0.00
   -2  -12   10     -1.59      0.00
   -1  -12   10      4.65      0.00
    0  -12   10      4.29      0.00
    1  -12   10     -1.46      0.00
    2  -12   10     -1.75      0.00
    3  -12   10     -6.71      0.00
    4  -12   10     -6.57      0.00
    5  -12   10      0.39      0.00
    6  -12   10     -1.11      0.00
    7  -12   10      3.09      0.00
    8  -12   10      1.60      0.00
    9  -12   10      0.59      0.00
  -11  -11   10     -0.35      0.00
  -10  -11   10      1.88      0.00
   -9  -11   10      3.95      0.00
   -8  -11   10     -1.83      0.00
   -7  -11   10      5.34      0.00
   -6  -11   10     -2.09      0.00
   -5  -11   10      3.40      0.00
   -4  -11   10      2.99      0.00
   -3  -11   10      2.79      0.00
   -2  -11   10     -0.18      0.00
   -1  -11   10      3.58      0.00
    0  -11   10     -7.27      0.00
    1  -11   10     -3.41      0.00
    2  -11   10      0.50      0.00
    3  -11   10     -1.20      0.00
    4  -11   10      9.30      0.00
    5  -11   10     -0.85      0.00
    6  -11   10      5.89      0.00
    7  -11   10     -3.31      0.00
    8  -11   10      2.35      0.00
    9  -11   10     -4.09      0.00
   10  -11   10      2.68      0.00
  -12  -10   10     -2.55      0.00
  -11  -10   10      0.15      0.00
  -10  -10   10      0.50      0.00
   -9  -10   10     -3.02      0.00
   -8  -10   10      2.96      0.00
   -7  -10   10      0.87      0.00
   -6  -10   10     -0.44      0.00
   -5  -10   10      1.71      0.00
   -4  -10   10     -0.88      0.00
   -3  -10   10     -4.45      0.00
   -2  -10   10     -0.49      0.00
   -1  -10   10     -2.98      0.00
    0  -10   10     -3.82      0.00
    1  -10   10      7.73      0.00
    2  -10   10     -1.06      0.00
    3  -10   10      5.61      0.00
    4  -10   10     -0.75      0.00
    5  -10   10      0.38      0.00
    6  -10   10     -1.25      0.00
    7  -10   10      0.98      0.00
    8  -10   10     -3.14      0.00
    9  -10   10      0.21      0.00
   10  -10   10      0.21      0.00
   11  -10   10      2.16      0.00
  -13   -9   10     -0.09      0.00
  -12   -9   10      2.25      0.00
  -11   -9   10      2.97      0.00
  -10   -9   10      1.36      0.00
   -9   -9   10      2.80      0.00
   -8   -9   10      1.53      0.00
   -7   -9   10     -5.69      0.00
   -6   -9   10     -1.83      0.00
   -5   -9   10     -2.97      0.00
   -4   -9   10     -3.89      0.00
   -3   -9   10      0.88      0.00
   -2   -9   10      2.41      0.00
   -1   -9   10     -1.03      0.00
    0   -9   10      3.17      0.00
    1   -9   10      2.34      0.00
    2   -9   10     -3.74      0.00
    3   -9   10      2.43      0.00
    4   -9   10     -6.05      0.00
    5   -9   10      0.19      0.00
    6   -9   10     -5.54      0.00
    7   -9   10     -2.51      0.00
    8   -9   10     -1.90      0.00
    9   -9   10      0.88      0.00
   10   -9   10     -3.45      0.00
   11   -9   10     -3.91      0.00
   12   -9   10     -1.26      0.00
  -13   -8   10     -0.27      0.00
  -12   -8   10      1.22      0.00
  -11   -8   10     -2.87      0.00
  -10   -8   10     -1.90      0.00
   -9   -8   10     -4.52      0.00
   -8   -8   10     -3.79      0.00
   -7   -8   10     -2.18      0.00
   -6   -8   10      5.63      0.00
   -5   -8   10     -0.69      0.00
   -4   -8   10      5.79      0.00
   -3   -8   10      3.22      0.00
   -2   -8   10      0.56      0.00
   -1   -8   10      0.97      0.00
    0   -8   10      6.23      0.00
    1   -8   10     -3.87      0.00
    2   -8   10      2.03      0.00
    3   -8   10     -1.15      0.00
    4   -8   10     -2.07      0.00
    5   -8   10     -1.74      0.00
    6   -8   10      1.51      0.00
    7   -8   10      1.49      0.00
    8   -8   10      2.72      0.00
    9   -8   10      6.48      0.00
   10   -8   10      1.72      0.00
   11   -8   10     11.08      0.00
   12   -8   10      4.25      0.00
   13   -8   10     -1.32      0.00
  -14   -7   10     -0.57      0.00
  -13   -7   10      0.41      0.00
  -12   -7   10     -0.75      0.00
  -11   -7   10      0.15      0.00
  -10   -7   10     -0.23      0.00
   -9   -7   10      3.65      0.00
   -8   -7   10      0.53      0.00
   -7   -7   10      6.71      0.00
   -6   -7   10      0.71      0.00
   -5   -7   10      1.00      0.00
   -4   -7   10      0.23      0.00
   -3   -7   10     -3.03      0.00
   -2   -7   10     -2.12      0.00
   -1   -7   10     -1.66      0.00
    0   -7   10     -2.16      0.00
    1   -7   10     -8.90      0.00
    2   -7   10      4.31      0.00
    3   -7   10    -10.29      0.00
    4   -7   10      3.58      0.00
    5   -7   10      0.77      0.00
    6   -7   10      3.77      0.00
    7   -7   10      0.98      0.00
    8   -7   10      5.49      0.00
    9   -7   10     -7.19      0.00
   10   -7   10      0.60      0.00
   11   -7   10     -3.38      0.00
   12   -7   10     -6.71      0.00
   13   -7   10      3.73      0.00
  -14   -6   10      0.67      0.00
  -13   -6   10      0.57      0.00
  -12   -6   10     -0.21      0.00
  -11   -6   10     -0.82      0.00
  -10   -6   10      1.96      0.00
   -9   -6   10     -0.30      0.00
   -8   -6   10      1.07      0.00
   -7   -6   10      1.74      0.00
   -6   -6   10     -7.05      0.00
   -5   -6   10     -3.50      0.00
   -4   -6   10     -4.18      0.00
   -3   -6   10     -7.05      0.00
   -2   -6   10     -1.59      0.00
   -1   -6   10     -3.52      0.00
    0   -6   10     -5.98      0.00
    1   -6   10      3.28      0.00
    2   -6   10     -0.36      0.00
    3   -6   10      2.00      0.00
    4   -6   10      9.35      0.00
    5   -6   10     -1.46      0.00
    6   -6   10      1.69      0.00
    7   -6   10     -0.42      0.00
    8   -6   10     -5.88      0.00
    9   -6   10     -4.33      0.00
   10   -6   10      0.32      0.00
   11   -6   10    -12.28      0.00
   12   -6   10      0.55      0.00
   13   -6   10     -4.58      0.00
   14   -6   10     -3.44      0.00
  -15   -5   10     -3.28      0.00
  -14   -5   10     -0.09      0.00
  -13   -5   10     -1.46      0.00
  -12   -5   10     -2.31      0.00
  -11   -5   10      1.68      0.00
  -10   -5   10     -1.43      0.00
   -9   -5   10     -2.33      0.00
   -8   -5   10      0.33      0.00
   -7   -5   10     -6.11      0.00
   -6   -5   10     -4.01      0.00
   -5   -5   10      5.60      0.00
   -4   -5   10     -4.30      0.00
   -3   -5   10      6.24      0.00
   -2   -5   10      1.33      0.00
   -1   -5   10      5.47      0.00
    0   -5   10      3.29      0.00
    1   -5   10     10.58      0.00
    2   -5   10     -2.56      0.00
    3   -5   10     11.60      0.00
    4   -5   10     -3.99      0.00
    5   -5   10      2.71      0.00
    6   -5   10     -0.69      0.00
    7   -5   10     -0.80      0.00
    8   -5   10     -3.39      0.00
    9   -5   10      5.94      0.00
   10   -5   10     -2.54      0.00
   11   -5   10     10.18      0.00
   12   -5   10      3.53      0.00
   13   -5   10      9.16      0.00
   14   -5   10     -6.17      0.00
  -15   -4   10      1.35      0.00
  -14   -4   10      2.25      0.00
  -13   -4   10      0.38      0.00
  -12   -4   10      3.10      0.00
  -11   -4   10     -1.05      0.00
  -10   -4   10     -1.88      0.00
   -9   -4   10      0.47      0.00
   -8   -4   10     -3.29      0.00
   -7   -4   10     -2.67      0.00
   -6   -4   10      9.02      0.00
   -5   -4   10     -0.26      0.00
   -4   -4   10      4.67      0.00
   -3   -4   10      9.37      0.00
   -2   -4   10      0.66      0.00
   -1   -4   10      6.06      0.00
    0   -4   10      1.41      0.00
    1   -4   10     -1.40      0.00
    2   -4   10     -0.82      0.00
    3   -4   10     -1.70      0.00
    4   -4   10    -11.77      0.00
    5   -4   10     -1.17      0.00
    6   -4   10     -7.55      0.00
    7   -4   10     -1.77      0.00
    8   -4   10      1.77      0.00
    9   -4   10      3.45      0.00
   10   -4   10     -0.55      0.00
   11   -4   10     -0.59      0.00
   12   -4   10      1.90      0.00
   13   -4   10    -13.12      0.00
   14   -4   10      6.97      0.00
   15   -4   10     -4.48      0.00
  -15   -3   10      3.60      0.00
  -14   -3   10     -2.58      0.00
  -13   -3   10     -1.91      0.00
  -12   -3   10      0.40      0.00
  -11   -3   10      0.32      0.00
  -10   -3   10      3.11      0.00
   -9   -3   10      3.01      0.00
   -8   -3   10      3.10      0.00
   -7   -3   10      7.29      0.00
   -6   -3   10      3.48      0.00
   -5   -3   10     -4.25      0.00
   -4   -3   10      4.11      0.00
   -3   -3   10     -6.98      0.00
   -2   -3   10     -2.44      0.00
   -1   -3   10     -5.37      0.00
    0   -3   10     -2.57      0.00
    1   -3   10     -7.07      0.00
    2   -3   10     -1.18      0.00
    3   -3   10    -11.95      0.00
    4   -3   10      4.67      0.00
    5   -3   10      1.95      0.00
    6   -3   10      1.93      0.00
    7   -3   10      5.72      0.00
    8   -3   10      3.61      0.00
    9   -3   10     -4.09      0.00
   10   -3   10      1.96      0.00
   11   -3   10      1.28      0.00
   12   -3   10     -5.67      0.00
   13   -3   10      4.74      0.00
   14   -3   10      1.39      0.00
   15   -3   10     -4.23      0.00
  -15   -2   10     -2.81      0.00
  -14   -2   10      0.60      0.00
  -13   -2   10      4.66      0.00
  -12   -2   10     -1.14      0.00
  -11   -2   10     -0.25      0.00
  -10   -2   10      0.47      0.00
   -9   -2   10     -1.67      0.00
   -8   -2   10      0.90      0.00
   -7   -2   10      0.02      0.00
   -6   -2   10     -8.48      0.00
   -5   -2   10     -0.28      0.00
   -4   -2   10     -1.33      0.00
   -3   -2   10     -9.41      0.00
   -2   -2   10      3.96      0.00
   -1   -2   10     -5.31      0.00
    0   -2   10      0.79      0.00
    1   -2   10     -0.92      0.00
    2   -2   10      1.80      0.00
    3   -2   10      9.45      0.00
    4   -2   10     11.25      0.00
    5   -2   10      0.51      0.00
    6   -2   10      7.09      0.00
    7   -2   10     -1.51      0.00
    8   -2   10     -2.01      0.00
   10   -2   10      3.11      0.00
   11   -2   10     -2.76      0.00
   12   -2   10      4.27      0.00
   13   -2   10      5.64      0.00
   14   -2   10      0.50      0.00
   15   -2   10      4.38      0.00
  -15   -1   10     -0.41      0.00
  -14   -1   10     -2.29      0.00
  -13   -1   10     -1.18      0.00
  -12   -1   10     -2.59      0.00
  -11   -1   10      3.34      0.00
  -10   -1   10     -0.77      0.00
   -9   -1   10     -1.24      0.00
   -8   -1   10     -0.85      0.00
   -7   -1   10     -5.41      0.00
   -6   -1   10     -2.09      0.00
   -5   -1   10      4.02      0.00
   -4   -1   10     -5.15      0.00
   -3   -1   10      6.67      0.00
   -2   -1   10      4.23      0.00
    0   -1   10      3.81      0.00
    1   -1   10      1.44      0.00
    2   -1   10      5.91      0.00
    3   -1   10     -3.05      0.00
    4   -1   10     -6.30      0.00
    5   -1   10    -10.98      0.00
    6   -1   10     -3.00      0.00
    7   -1   10    -10.94      0.00
    8   -1   10     -0.08      0.00
   10   -1   10     -2.92      0.00
   11   -1   10     -2.33      0.00
   12   -1   10      1.12      0.00
   13   -1   10     -3.89      0.00
   14   -1   10     -3.49      0.00
   15   -1   10     -0.08      0.00
  -15    0   10      1.37      0.00
  -14    0   10      2.59      0.00
  -13    0   10     -1.17      0.00
  -12    0   10      2.77      0.00
  -11    0   10     -2.39      0.00
  -10    0   10     -3.08      0.00
   -9    0   10     -0.24      0.00
   -8    0   10     -4.37      0.00
   -7    0   10     -0.61      0.00
   -6    0   10      6.88      0.00
   -5    0   10      1.40      0.00
   -4    0   10      4.14      0.00
   -3    0   10      7.91      0.00
   -2    0   10     -6.71      0.00
   -1    0   10      2.34      0.00
    0    0   10     -1.31      0.00
    1    0   10      5.51      0.00
    2    0   10     -7.33      0.00
    3    0   10      2.71      0.00
    4    0   10     -8.99      0.00
    5    0   10      8.81      0.00
    6    0   10     -4.53      0.00
    7    0   10      7.38      0.00
    8    0   10      2.86      0.00
    9    0   10      3.27      0.00
   10    0   10      4.27      0.00
   11    0   10      5.14      0.00
   12    0   10      0.22      0.00
   13    0   10      1.00      0.00
   14    0   10     -0.24      0.00
   15    0   10      1.33      0.00
  -15    1   10     -1.77      0.00
  -14    1   10      2.70      0.00
  -13    1   10     -1.27      0.00
  -12    1   10      1.95      0.00
  -11    1   10     -3.84      0.00
  -10    1   10      1.46      0.00
   -9    1   10     -0.66      0.00
   -8    1   10      6.32      0.00
   -7    1   10      7.23      0.00
   -6    1   10      4.36      0.00
   -5    1   10      0.22      0.00
   -4    1   10      1.40      0.00
   -3    1   10     -3.37      0.00
   -2    1   10     -3.76      0.00
   -1    1   10      6.50      0.00
    0    1   10     -0.05      0.00
    1    1   10     -3.97      0.00
    2    1   10      0.61      0.00
    3    1   10     -1.41      0.00
    4    1   10      3.98      0.00
    5    1   10      6.25      0.00
    6    1   10      2.78      0.00
    7    1   10     10.63      0.00
    8    1   10     -0.17      0.00
    9    1   10      7.74      0.00
   10    1   10     -3.40      0.00
   11    1   10      2.45      0.00
   12    1   10     -4.42      0.00
   13    1   10     -1.13      0.00
   14    1   10      0.16      0.00
   15    1   10     -3.30      0.00
  -15    2   10      2.20      0.00
  -14    2   10     -2.32      0.00
  -13    2   10      0.79      0.00
  -12    2   10     -1.60      0.00
  -11    2   10      3.35      0.00
  -10    2   10      3.32      0.00
   -9    2   10      5.18      0.00
   -8    2   10      0.27      0.00
   -7    2   10     -1.19      0.00
   -6    2   10     -6.82      0.00
   -5    2   10     -6.80      0.00
   -4    2   10     -1.39      0.00
   -3    2   10     -8.70      0.00
   -2    2   10      7.32      0.00
   -1    2   10     -0.35      0.00
    0    2   10     -5.46      0.00
    1    2   10      3.16      0.00
    2    2   10     -0.08      0.00
    3    2   10     -0.27      0.00
    4    2   10      7.25      0.00
    5    2   10     -3.19      0.00
    6    2   10      2.48      0.00
    7    2   10     -6.03      0.00
    8    2   10     -4.45      0.00
    9    2   10     -6.90      0.00
   10    2   10     -5.46      0.00
   11    2   10     -6.01      0.00
   12    2   10     -1.49      0.00
   13    2   10     -1.62      0.00
   14    2   10      2.11      0.00
   15    2   10      0.43      0.00
  -15    3   10      1.80      0.00
  -14    3   10     -1.72      0.00
  -13    3   10      2.64      0.00
  -12    3   10     -1.27      0.00
  -11    3   10      0.34      0.00
  -10    3   10     -1.21      0.00
   -9    3   10     -3.90      0.00
   -8    3   10     -3.38      0.00
   -7    3   10     -6.11      0.00
   -6    3   10     -2.52      0.00
   -5    3   10      3.40      0.00
   -4    3   10     -3.03      0.00
   -3    3   10      4.75      0.00
   -2    3   10      2.20      0.00
   -1    3   10    -11.79      0.00
    0    3   10      5.60      0.00
    1    3   10     -7.36      0.00
    2    3   10      3.06      0.00
    3    3   10     -1.97      0.00
    4    3   10      0.75      0.00
    5    3   10     -7.19      0.00
    6    3   10      0.38      0.00
    7    3   10     -5.77      0.00
    8    3   10     -0.46      0.00
    9    3   10     -2.40      0.00
   10    3   10      3.98      0.00
   11    3   10      0.59      0.00
   12    3   10      5.20      0.00
   13    3   10      0.84      0.00
   14    3   10     -0.72      0.00
   15    3   10     -1.69      0.00
  -15    4   10     -2.16      0.00
  -14    4   10     -1.79      0.00
  -13    4   10     -3.30      0.00
  -12    4   10     -2.67      0.00
  -11    4   10      0.85      0.00
  -10    4   10     -4.27      0.00
   -9    4   10      0.99      0.00
   -8    4   10     -3.00      0.00
   -7    4   10      3.92      0.00
   -6    4   10      3.60      0.00
   -5    4   10      0.95      0.00
   -4    4   10      3.26      0.00
   -3    4   10      4.43      0.00
   -2    4   10     -7.12      0.00
   -1    4   10      5.08      0.00
    0    4   10     -0.90      0.00
    1    4   10      5.05      0.00
    2    4   10     -1.65      0.00
    3    4   10      5.04      0.00
    4    4   10     -8.15      0.00
    5    4   10      1.73      0.00
    6    4   10     -3.76      0.00
    7    4   10     -2.51      0.00
    8    4   10      5.41      0.00
    9    4   10     -0.08      0.00
   10    4   10      2.37      0.00
   11    4   10      0.32      0.00
   12    4   10     -2.45      0.00
   13    4   10      0.79      0.00
   14    4   10     -3.17      0.00
   15    4   10      3.15      0.00
  -15    5   10     -4.38      0.00
  -14    5   10      1.00      0.00
  -13    5   10     -0.25      0.00
  -12    5   10      3.26      0.00
  -11    5   10     -1.87      0.00
  -10    5   10      2.18      0.00
   -9    5   10     -0.84      0.00
   -8    5   10      5.11      0.00
   -7    5   10      1.50      0.00
   -6    5   10      2.97      0.00
   -5    5   10      1.53      0.00
   -4    5   10      0.15      0.00
   -3    5   10     -3.41      0.00
   -2    5   10     -1.97      0.00
   -1    5   10      3.67      0.00
    0    5   10     -1.37      0.00
    1    5   10     -2.38      0.00
    2    5   10      1.85      0.00
    3    5   10     -5.93      0.00
    4    5   10      0.68      0.00
    5    5   10      4.40      0.00
    6    5   10      1.30      0.00
    7    5   10      8.92      0.00
    8    5   10      1.52      0.00
    9    5   10      2.83      0.00
   10    5   10      1.44      0.00
   11    5   10      1.14      0.00
   12    5   10     -1.85      0.00
   13    5   10     -0.64      0.00
   14    5   10      0.72      0.00
   15    5   10      0.12      0.00
  -14    6   10      0.66      0.00
  -13    6   10      0.68      0.00
  -12    6   10     -0.27      0.00
  -11    6   10     -0.95      0.00
  -10    6   10      2.79      0.00
   -9    6   10      1.42      0.00
   -8    6   10      0.81      0.00
   -7    6   10      0.05      0.00
   -6    6   10     -5.98      0.00
   -5    6   10     -4.54      0.00
   -4    6   10     -3.28      0.00
   -3    6   10     -5.60      0.00
   -2    6   10      3.13      0.00
   -1    6   10     -0.68      0.00
    0    6   10     -1.30      0.00
    1    6   10      3.64      0.00
    2    6   10     -2.60      0.00
    3    6   10      0.85      0.00
    4    6   10      4.70      0.00
    5    6   10      0.40      0.00
    6    6   10     -0.76      0.00
    7    6   10      0.56      0.00
    8    6   10     -7.85      0.00
    9    6   10     -2.01      0.00
   10    6   10     -6.45      0.00
   11    6   10     -2.87      0.00
   12    6   10      0.42      0.00
   13    6   10      3.89      0.00
   14    6   10      2.36      0.00
   15    6   10      2.69      0.00
  -14    7   10      1.60      0.00
  -13    7   10      4.43      0.00
  -12    7   10     -1.97      0.00
  -11    7   10      4.52      0.00
  -10    7   10     -1.29      0.00
   -9    7   10     -2.57      0.00
   -8    7   10     -2.47      0.00
   -7    7   10     -7.49      0.00
   -6    7   10     -0.79      0.00
   -5    7   10      0.31      0.00
   -4    7   10     -3.37      0.00
   -3    7   10      5.22      0.00
   -2    7   10      2.74      0.00
   -1    7   10      0.49      0.00
    0    7   10      0.15      0.00
    1    7   10     -0.61      0.00
    2    7   10     -1.98      0.00
    3    7   10      1.99      0.00
    4    7   10      0.61      0.00
    5    7   10     -4.25      0.00
    6    7   10      2.95      0.00
    7    7   10     -6.16      0.00
    8    7   10     -1.44      0.00
    9    7   10      0.73      0.00
   10    7   10      1.77      0.00
   11    7   10      2.87      0.00
   12    7   10      8.20      0.00
   13    7   10     -1.90      0.00
   14    7   10      3.21      0.00
   15    7   10     -1.90      0.00
  -13    8   10     -6.20      0.00
  -12    8   10      6.71      0.00
  -11    8   10     -3.37      0.00
  -10    8   10      0.33      0.00
   -9    8   10      0.36      0.00
   -8    8   10      0.00      0.00
   -7    8   10      2.22      0.00
   -6    8   10      5.59      0.00
   -5    8   10      2.30      0.00
   -4    8   10      9.70      0.00
   -3    8   10      6.18      0.00
   -2    8   10      2.74      0.00
   -1    8   10     -4.91      0.00
    0    8   10      3.44      0.00
    1    8   10     -3.87      0.00
    2    8   10      0.17      0.00
    3    8   10      0.83      0.00
    4    8   10     -4.58      0.00
    5    8   10     -2.16      0.00
    6    8   10     -3.03      0.00
    7    8   10     -3.29      0.00
    8    8   10      4.98      0.00
    9    8   10      1.91      0.00
   10    8   10      1.04      0.00
   11    8   10      0.76      0.00
   12    8   10     -6.91      0.00
   13    8   10     -5.96      0.00
   14    8   10     -3.91      0.00
  -13    9   10      2.79      0.00
  -11    9   10      1.12      0.00
  -10    9   10     -2.15      0.00
   -9    9   10      2.15      0.00
   -8    9   10     -2.54      0.00
   -7    9   10      5.81      0.00
   -6    9   10     -1.20      0.00
   -5    9   10      1.20      0.00
   -4    9   10     -2.50      0.00
   -3    9   10     -8.05      0.00
   -2    9   10    -10.34      0.00
   -1    9   10      1.35      0.00
    0    9   10     -3.19      0.00
    1    9   10      1.05      0.00
    2    9   10      5.43      0.00
    3    9   10      0.32      0.00
    4    9   10      0.15      0.00
    5    9   10      5.08      0.00
    6    9   10      2.02      0.00
    7    9   10      3.60      0.00
    8    9   10      8.67      0.00
    9    9   10     -5.96      0.00
   10    9   10      4.76      0.00
   11    9   10     -2.84      0.00
   12    9   10     -1.25      0.00
   13    9   10      3.51      0.00
   14    9   10     -0.14      0.00
  -12   10   10      0.27      0.00
  -11   10   10     -2.03      0.00
  -10   10   10      0.55      0.00
   -9   10   10     -1.15      0.00
   -8   10   10      2.84      0.00
   -7   10   10      0.59      0.00
   -6   10   10     -1.58      0.00
   -5   10   10     -2.44      0.00
   -4   10   10     -2.41      0.00
   -3   10   10     -2.92      0.00
   -2   10   10      7.33      0.00
   -1   10   10      4.43      0.00
    0   10   10      2.83      0.00
    1   10   10      4.69      0.00
    2   10   10     -0.88      0.00
    3   10   10      0.73      0.00
    4   10   10      3.62      0.00
    5   10   10      5.14      0.00
    6   10   10     -3.82      0.00
    7   10   10      6.18      0.00
    8   10   10    -16.22      0.00
    9   10   10      2.93      0.00
   10   10   10     -5.83      0.00
   11   10   10      0.59      0.00
   12   10   10      0.48      0.00
   13   10   10      3.49      0.00
  -12   11   10     -1.66      0.00
  -11   11   10      1.55      0.00
  -10   11   10      0.15      0.00
   -9   11   10      0.65      0.00
   -8   11   10      0.12      0.00
   -7   11   10     -4.08      0.00
   -6   11   10     -2.13      0.00
   -5   11   10      1.61      0.00
   -4   11   10     -1.98      0.00
   -3   11   10      5.98      0.00
   -2   11   10      1.78      0.00
   -1   11   10     -1.53      0.00
    0   11   10      0.12      0.00
    1   11   10      0.35      0.00
    2   11   10      1.50      0.00
    3   11   10     -3.96      0.00
    4   11   10      0.52      0.00
    5   11   10    -14.53      0.00
    6   11   10      0.34      0.00
    7   11   10     -8.06      0.00
    8   11   10      6.74      0.00
    9   11   10      6.41      0.00
   10   11   10      0.86      0.00
   11   11   10      3.38      0.00
   12   11   10      3.84      0.00
   13   11   10      0.92      0.00
  -11   12   10     -0.34      0.00
  -10   12   10      0.05      0.00
   -9   12   10     -0.61      0.00
   -8   12   10     -0.41      0.00
   -7   12   10      0.57      0.00
   -6   12   10      4.26      0.00
   -5   12   10      2.92      0.00
   -4   12   10      5.08      0.00
   -3   12   10      4.56      0.00
   -2   12   10     -1.66      0.00
   -1   12   10     -3.60      0.00
    0   12   10     -1.92      0.00
    1   12   10     -5.92      0.00
    2   12   10    -11.72      0.00
    3   12   10     -1.56      0.00
    4   12   10     -6.45      0.00
    5   12   10      3.72      0.00
    6   12   10      7.46      0.00
    7   12   10      7.54      0.00
    8   12   10      4.77      0.00
    9   12   10     -0.62      0.00
   10   12   10      1.61      0.00
   11   12   10      1.71      0.00
   12   12   10     -1.94      0.00
  -10   13   10      0.84      0.00
   -9   13   10      0.20      0.00
   -8   13   10      1.15      0.00
   -7   13   10      1.82      0.00
   -6   13   10      0.33      0.00
   -5   13   10     -3.42      0.00
   -4   13   10     -3.71      0.00
   -3   13   10     -7.02      0.00
   -2   13   10     -5.46      0.00
   -1   13   10      3.43      0.00
    0   13   10      2.80      0.00
    1   13   10     -1.70      0.00
    2   13   10     11.74      0.00
    3   13   10      6.31      0.00
    4   13   10      4.46      0.00
    5   13   10     13.15      0.00
    6   13   10     -0.38      0.00
    7   13   10     -5.66      0.00
    8   13   10     -1.47      0.00
    9   13   10     -7.62      0.00
   10   13   10      0.13      0.00
   11   13   10     -5.37      0.00
   -9   14   10      0.14      0.00
   -8   14   10     -0.15      0.00
   -7   14   10     -2.85      0.00
   -6   14   10     -2.49      0.00
   -5   14   10     -4.13      0.00
   -4   14   10      0.38      0.00
   -3   14   10     -0.77      0.00
   -2   14   10      5.50      0.00
   -1   14   10      1.04      0.00
    0   14   10     -1.46      0.00
    1   14   10      7.71      0.00
    2   14   10     -1.31      0.00
    3   14   10     -0.83      0.00
    4   14   10     -0.63      0.00
    5   14   10     -4.66      0.00
    6   14   10     -9.68      0.00
    7   14   10      4.11      0.00
    8   14   10     -1.89      0.00
    9   14   10      2.65      0.00
   10   14   10      0.27      0.00
   -7   15   10      2.06      0.00
   -6   15   10      0.13      0.00
   -5   15   10      5.38      0.00
   -4   15   10      2.64      0.00
   -3   15   10      3.66      0.00
   -2   15   10      0.87      0.00
   -1   15   10      0.12      0.00
    0   15   10     -2.77      0.00
    1   15   10     -4.68      0.00
    2   15   10     -3.78      0.00
    3   15   10     -5.59      0.00
    4   15   10      2.48      0.00
    5   15   10     -8.07      0.00
    6   15   10      2.17      0.00
    7   15   10     -3.10      0.00
    8   15   10     -2.99      0.00
    9   15   10     -0.60      0.00
   -6   16   10      0.51      0.00
   -5   16   10     -1.66      0.00
   -4   16   10      0.48      0.00
   -3   16   10     -0.20      0.00
   -2   16   10     -0.79      0.00
   -1   16   10     -4.58      0.00
    0   16   10     -1.21      0.00
    1   16   10      1.49      0.00
    2   16   10     -1.35      0.00
    3   16   10      6.07      0.00
    4   16   10     -3.97      0.00
    5   16   10      0.85      0.00
    6   16   10      6.38      0.00
    7   16   10      0.33      0.00
   -3   17   10     -2.79      0.00
   -2   17   10     -5.73      0.00
   -1   17   10      0.62      0.00
    0   17   10      3.88      0.00
    1   17   10      0.02      0.00
    2   17   10      4.61      0.00
    3   17   10     -1.56      0.00
    4   17   10      1.98      0.00
    5   17   10      8.85      0.00
   -4  -15   11      2.29      0.00
   -3  -15   11     -2.61      0.00
   -2  -15   11      0.42      0.00
   -1  -15   11     -3.57      0.00
    0  -15   11      2.38      0.00
    1  -15   11     -2.68      0.00
    2  -15   11     -3.42      0.00
    3  -15   11     -0.75      0.00
   -7  -14   11      0.32      0.00
   -6  -14   11     -2.69      0.00
   -5  -14   11      1.29      0.00
   -4  -14   11     -1.96      0.00
   -3  -14   11      0.81      0.00
   -2  -14   11      0.84      0.00
   -1  -14   11      2.13      0.00
    0  -14   11      2.54      0.00
    1  -14   11     -0.29      0.00
    2  -14   11      6.45      0.00
    3  -14   11      4.52      0.00
    4  -14   11      2.98      0.00
    5  -14   11      0.03      0.00
   -9  -13   11      2.68      0.00
   -8  -13   11     -4.84      0.00
   -7  -13   11      0.25      0.00
   -6  -13   11     -1.69      0.00
   -5  -13   11      1.20      0.00
   -4  -13   11     -2.96      0.00
   -3  -13   11      4.28      0.00
   -2  -13   11     -3.52      0.00
   -1  -13   11      7.51      0.00
    0  -13   11     -3.76      0.00
    1  -13   11      3.13      0.00
    2  -13   11      0.71      0.00
    3  -13   11     -7.28      0.00
    4  -13   11     -1.33      0.00
    5  -13   11      0.27      0.00
    6  -13   11     -1.61      0.00
    7  -13   11      1.29      0.00
  -10  -12   11      3.13      0.00
   -9  -12   11     -5.93      0.00
   -8  -12   11      1.81      0.00
   -7  -12   11     -2.37      0.00
   -6  -12   11      2.75      0.00
   -5  -12   11     -2.83      0.00
   -4  -12   11      4.14      0.00
   -3  -12   11     -3.24      0.00
   -2  -12   11      2.45      0.00
   -1  -12   11     -5.01      0.00
    0  -12   11     -2.67      0.00
    1  -12   11      3.77      0.00
    2  -12   11     -6.18      0.00
    3  -12   11      5.46      0.00
    4  -12   11      1.91      0.00
    5  -12   11     -2.82      0.00
    6  -12   11     -1.43      0.00
    7  -12   11      2.31      0.00
    8  -12   11     -1.87      0.00
    9  -12   11      2.83      0.00
  -11  -11   11      2.67      0.00
  -10  -11   11     -2.88      0.00
   -9  -11   11      4.06      0.00
   -8  -11   11      2.42      0.00
   -7  -11   11      5.22      0.00
   -6  -11   11     -1.11      0.00
   -5  -11   11      2.08      0.00
   -4  -11   11     -2.38      0.00
   -3  -11   11     -0.83      0.00
   -2  -11   11      2.01      0.00
   -1  -11   11     -1.89      0.00
    0  -11   11      5.57      0.00
    1  -11   11     -4.73      0.00
    2  -11   11      0.68      0.00
    3  -11   11     -1.14      0.00
    4  -11   11     -3.14      0.00
    5  -11   11     -0.32      0.00
    6  -11   11      5.47      0.00
    7  -11   11     -1.48      0.00
    8  -11   11     -0.39      0.00
    9  -11   11      2.90      0.00
   10  -11   11     -3.42      0.00
  -12  -10   11      0.98      0.00
  -11  -10   11      1.43      0.00
  -10  -10   11      0.64      0.00
   -9  -10   11      2.65      0.00
   -8  -10   11     -0.67      0.00
   -7  -10   11     -3.58      0.00
   -6  -10   11      0.59      0.00
   -5  -10   11     -2.33      0.00
   -4  -10   11      1.64      0.00
   -3  -10   11      1.20      0.00
   -2  -10   11     -1.44      0.00
   -1  -10   11     -1.64      0.00
    0  -10   11      1.79      0.00
    1  -10   11     -3.57      0.00
    2  -10   11      5.45      0.00
    3  -10   11      1.02      0.00
    4  -10   11      0.88      0.00
    5  -10   11      6.17      0.00
    6  -10   11     -2.45      0.00
    7  -10   11     -0.23      0.00
    8  -10   11      3.18      0.00
    9  -10   11     -3.85      0.00
   10  -10   11     -2.77      0.00
   11  -10   11      0.73      0.00
  -12   -9   11     -1.13      0.00
  -11   -9   11     -3.37      0.00
  -10   -9   11     -0.28      0.00
   -9   -9   11     -2.82      0.00
   -8   -9   11     -2.70      0.00
   -7   -9   11      0.73      0.00
   -6   -9   11     -0.48      0.00
   -5   -9   11      1.22      0.00
   -4   -9   11      0.45      0.00
   -3   -9   11      0.10      0.00
   -2   -9   11     -1.81      0.00
   -1   -9   11      7.22      0.00
    0   -9   11     -2.07      0.00
    1   -9   11      4.07      0.00
    2   -9   11      1.82      0.00
    3   -9   11     -4.62      0.00
    4   -9   11      2.99      0.00
    5   -9   11     -1.25      0.00
    6   -9   11     -2.79      0.00
    7   -9   11      2.14      0.00
    8   -9   11     -2.25      0.00
    9   -9   11     -3.38      0.00
   10   -9   11      6.59      0.00
   11   -9   11      1.47      0.00
  -13   -8   11     -2.36      0.00
  -12   -8   11     -0.99      0.00
  -11   -8   11      0.62      0.00
  -10   -8   11      3.68      0.00
   -9   -8   11     -1.68      0.00
   -8   -8   11      3.20      0.00
   -7   -8   11     -0.51      0.00
   -6   -8   11     -0.20      0.00
   -5   -8   11      2.28      0.00
   -4   -8   11      0.26      0.00
   -3   -8   11      1.33      0.00
   -2   -8   11      3.58      0.00
   -1   -8   11     -1.66      0.00
    0   -8   11     -6.63      0.00
    1   -8   11      1.37      0.00
    2   -8   11     -9.33      0.00
    3   -8   11      3.05      0.00
    4   -8   11     -1.54      0.00
    5   -8   11     -5.63      0.00
    6   -8   11      1.72      0.00
    7   -8   11     -3.50      0.00
    8   -8   11     -2.10      0.00
    9   -8   11      4.16      0.00
   10   -8   11     -3.16      0.00
   11   -8   11     -5.31      0.00
   12   -8   11     -1.03      0.00
  -13   -7   11     -1.10      0.00
  -12   -7   11      2.38      0.00
  -11   -7   11      1.82      0.00
  -10   -7   11     -3.79      0.00
   -9   -7   11      0.85      0.00
   -8   -7   11     -0.14      0.00
   -7   -7   11      1.20      0.00
   -6   -7   11      3.32      0.00
   -5   -7   11      1.27      0.00
   -4   -7   11     -0.95      0.00
   -3   -7   11      1.40      0.00
   -2   -7   11     -2.12      0.00
   -1   -7   11     -4.86      0.00
    0   -7   11      4.46      0.00
    1   -7   11      1.68      0.00
    2   -7   11      1.20      0.00
    3   -7   11      5.83      0.00
    4   -7   11     -3.73      0.00
    5   -7   11      5.78      0.00
    6   -7   11     -0.86      0.00
    7   -7   11      5.11      0.00
    8   -7   11      3.65      0.00
    9   -7   11      5.04      0.00
   10   -7   11      1.53      0.00
   11   -7   11      5.77      0.00
   12   -7   11      2.36      0.00
   13   -7   11     -0.06      0.00
  -14   -6   11     -0.70      0.00
  -13   -6   11      4.36      0.00
  -12   -6   11      1.43      0.00
  -11   -6   11     -0.35      0.00
  -10   -6   11      1.64      0.00
   -9   -6   11      2.85      0.00
   -8   -6   11     -0.24      0.00
   -7   -6   11      0.22      0.00
   -6   -6   11     -1.01      0.00
   -5   -6   11     -6.00      0.00
   -4   -6   11      0.38      0.00
   -3   -6   11     -6.00      0.00
   -2   -6   11     -2.18      0.00
   -1   -6   11      0.95      0.00
    0   -6   11      4.73      0.00
    1   -6   11     -5.66      0.00
    2   -6   11      4.56      0.00
    3   -6   11     -3.66      0.00
    4   -6   11     -0.70      0.00
    5   -6   11      0.95      0.00
    6   -6   11      0.25      0.00
    7   -6   11     -2.20      0.00
    8   -6   11     -1.78      0.00
    9   -6   11     -5.33      0.00
   10   -6   11     -2.93      0.00
   11   -6   11      0.05      0.00
   12   -6   11      2.92      0.00
   13   -6   11     -0.51      0.00
  -14   -5   11      3.50      0.00
  -13   -5   11      1.61      0.00
  -12   -5   11     -2.86      0.00
  -11   -5   11     -0.74      0.00
  -10   -5   11     -0.50      0.00
   -9   -5   11     -1.86      0.00
   -8   -5   11     -2.54      0.00
   -7   -5   11     -0.55      0.00
   -6   -5   11     -5.62      0.00
   -5   -5   11      0.50      0.00
   -4   -5   11     -0.16      0.00
   -3   -5   11      0.25      0.00
   -2   -5   11      5.19      0.00
   -1   -5   11      3.00      0.00
    0   -5   11     -3.39      0.00
    1   -5   11     -1.92      0.00
    2   -5   11      4.88      0.00
    3   -5   11    -10.67      0.00
    4   -5   11      6.46      0.00
    5   -5   11     -7.75      0.00
    6   -5   11     -0.97      0.00
    7   -5   11     -3.34      0.00
    8   -5   11      0.97      0.00
    9   -5   11     -2.36      0.00
   10   -5   11      1.20      0.00
   11   -5   11     -2.61      0.00
   12   -5   11     -9.23      0.00
   13   -5   11      1.17      0.00
   14   -5   11     -6.17      0.00
  -15   -4   11      0.04      0.00
  -14   -4   11     -2.67      0.00
  -13   -4   11     -3.34      0.00
  -12   -4   11     -3.05      0.00
  -11   -4   11      0.57      0.00
  -10   -4   11     -0.47      0.00
   -9   -4   11     -1.50      0.00
   -8   -4   11      1.57      0.00
   -7   -4   11      0.49      0.00
   -6   -4   11      2.05      0.00
   -5   -4   11      5.73      0.00
   -4   -4   11     -0.73      0.00
   -3   -4   11      4.17      0.00
   -2   -4   11     -1.75      0.00
   -1   -4   11     -2.68      0.00
    0   -4   11     -4.15      0.00
    1   -4   11      6.46      0.00
    2   -4   11     -9.41      0.00
    3   -4   11      5.07      0.00
    4   -4   11      2.44      0.00
    5   -4   11     -0.79      0.00
    6   -4   11      7.59      0.00
    7   -4   11      0.12      0.00
    8   -4   11      2.02      0.00
    9   -4   11     -0.09      0.00
   10   -4   11      3.72      0.00
   11   -4   11     -2.30      0.00
   12   -4   11      9.05      0.00
   13   -4   11     -2.05      0.00
   14   -4   11      3.56      0.00
  -15   -3   11     -1.99      0.00
  -14   -3   11      1.87      0.00
  -13   -3   11     -3.30      0.00
  -12   -3   11      3.92      0.00
  -11   -3   11     -1.09      0.00
  -10   -3   11     -1.86      0.00
   -9   -3   11      0.61      0.00
   -8   -3   11      1.59      0.00
   -7   -3   11     -1.55      0.00
   -6   -3   11      4.10      0.00
   -5   -3   11      1.42      0.00
   -4   -3   11     -3.43      0.00
   -3   -3   11      2.81      0.00
   -2   -3   11     -6.32      0.00
   -1   -3   11     -1.49      0.00
    0   -3   11      1.37      0.00
    1   -3   11      0.56      0.00
    2   -3   11     -2.82      0.00
    3   -3   11     12.08      0.00
    4   -3   11     -7.12      0.00
    5   -3   11      6.63      0.00
    6   -3   11     -2.75      0.00
    7   -3   11      3.07      0.00
    8   -3   11     -1.62      0.00
    9   -3   11      4.72      0.00
   10   -3   11     -5.51      0.00
   11   -3   11      1.25      0.00
   12   -3   11     -5.67      0.00
   13   -3   11      0.38      0.00
   14   -3   11     -7.17      0.00
  -15   -2   11     -0.34      0.00
  -14   -2   11     -1.69      0.00
  -13   -2   11      0.50      0.00
  -12   -2   11      2.79      0.00
  -11   -2   11     -0.81      0.00
  -10   -2   11      4.27      0.00
   -9   -2   11      1.16      0.00
   -8   -2   11     -0.26      0.00
   -7   -2   11     -0.07      0.00
   -6   -2   11     -0.97      0.00
   -5   -2   11    -10.60      0.00
   -4   -2   11      3.59      0.00
   -2   -2   11      1.46      0.00
   -1   -2   11      5.91      0.00
    0   -2   11      3.83      0.00
    1   -2   11     -1.69      0.00
    3   -2   11     -0.69      0.00
    4   -2   11     -7.21      0.00
    5   -2   11      7.74      0.00
    6   -2   11     -5.50      0.00
    7   -2   11      0.36      0.00
    8   -2   11     -1.60      0.00
    9   -2   11     -3.08      0.00
   10   -2   11     -1.83      0.00
   11   -2   11      2.15      0.00
   12   -2   11      0.59      0.00
   13   -2   11     -3.58      0.00
   14   -2   11      6.28      0.00
   15   -2   11     -0.11      0.00
  -15   -1   11      3.65      0.00
  -14   -1   11      0.11      0.00
  -13   -1   11      5.79      0.00
  -12   -1   11     -2.68      0.00
  -11   -1   11      0.74      0.00
  -10   -1   11     -0.38      0.00
   -9   -1   11      0.29      0.00
   -8   -1   11     -2.78      0.00
   -7   -1   11     -0.33      0.00
   -6   -1   11     -3.24      0.00
   -4   -1   11      1.94      0.00
   -2   -1   11      7.08      0.00
   -1   -1   11      1.66      0.00
    0   -1   11     -0.94      0.00
    1   -1   11      0.28      0.00
    2   -1   11      7.60      0.00
    3   -1   11    -12.82      0.00
    4   -1   11     12.36      0.00
    5   -1   11     -5.29      0.00
    6   -1   11     -6.88      0.00
    7   -1   11      0.30      0.00
    8   -1   11     -4.57      0.00
    9   -1   11     -0.83      0.00
   10   -1   11      5.10      0.00
   11   -1   11     -0.59      0.00
   13   -1   11      5.25      0.00
   14   -1   11      4.06      0.00
   15   -1   11     -5.97      0.00
  -15    0   11     -2.70      0.00
  -14    0   11     -1.11      0.00
  -13    0   11     -2.16      0.00
  -12    0   11     -2.12      0.00
  -11    0   11      1.73      0.00
  -10    0   11     -0.97      0.00
   -9    0   11     -2.08      0.00
   -8    0   11      1.97      0.00
   -7    0   11      2.96      0.00
   -6    0   11      0.72      0.00
   -5    0   11      6.28      0.00
   -4    0   11     -0.67      0.00
   -3    0   11      4.07      0.00
   -2    0   11      2.74      0.00
   -1    0   11     -9.80      0.00
    0    0   11     -2.39      0.00
    1    0   11     -6.23      0.00
    2    0   11    -11.73      0.00
    3    0   11     -3.52      0.00
    4    0   11      0.26      0.00
    5    0   11    -14.90      0.00
    6    0   11      9.48      0.00
    7    0   11      1.04      0.00
    8    0   11      2.69      0.00
    9    0   11      2.87      0.00
   10    0   11     -0.47      0.00
   11    0   11     -3.16      0.00
   12    0   11      0.31      0.00
   13    0   11     -0.22      0.00
   14    0   11     -7.09      0.00
   15    0   11      3.63      0.00
  -15    1   11     -0.66      0.00
  -14    1   11      2.76      0.00
  -13    1   11     -1.85      0.00
  -12    1   11      0.70      0.00
  -11    1   11      1.75      0.00
  -10    1   11     -2.47      0.00
   -9    1   11     -0.32      0.00
   -8    1   11      1.23      0.00
   -7    1   11     -5.97      0.00
   -6    1   11      0.02      0.00
   -5    1   11     -0.02      0.00
   -4    1   11     -5.19      0.00
   -3    1   11      2.28      0.00
   -2    1   11    -13.29      0.00
   -1    1   11     -3.12      0.00
    0    1   11      0.75      0.00
    1    1   11      0.29      0.00
    2    1   11      4.45      0.00
    3    1   11     10.38      0.00
    4    1   11     -2.37      0.00
    5    1   11      7.07      0.00
    6    1   11      8.05      0.00
    7    1   11     -8.79      0.00
    8    1   11      3.29      0.00
    9    1   11      0.11      0.00
   10    1   11     -4.23      0.00
   11    1   11      3.77      0.00
   12    1   11      0.02      0.00
   13    1   11     -1.27      0.00
   14    1   11      3.10      0.00
   15    1   11      3.89      0.00
  -15    2   11      3.55      0.00
  -14    2   11     -1.26      0.00
  -13    2   11      2.56      0.00
  -12    2   11      1.70      0.00
  -11    2   11     -4.25      0.00
  -10    2   11     -0.83      0.00
   -9    2   11      3.36      0.00
   -8    2   11     -3.36      0.00
   -7    2   11      4.13      0.00
   -6    2   11      3.98      0.00
   -5    2   11     -2.94      0.00
   -4    2   11      4.35      0.00
   -3    2   11     -3.74      0.00
   -2    2   11      2.78      0.00
   -1    2   11     15.20      0.00
    0    2   11      4.27      0.00
    1    2   11     11.86      0.00
    2    2   11      4.84      0.00
    3    2   11      6.35      0.00
    4    2   11     -4.33      0.00
    5    2   11     10.45      0.00
    6    2   11     -7.59      0.00
    7    2   11      3.66      0.00
    8    2   11      5.32      0.00
    9    2   11     -3.81      0.00
   10    2   11      4.78      0.00
   11    2   11      4.23      0.00
   12    2   11     -1.62      0.00
   13    2   11      2.41      0.00
   14    2   11     -0.02      0.00
   15    2   11     -2.00      0.00
  -15    3   11     -3.32      0.00
  -14    3   11     -0.38      0.00
  -13    3   11     -1.90      0.00
  -12    3   11      0.37      0.00
  -11    3   11      0.52      0.00
  -10    3   11      5.04      0.00
   -9    3   11     -1.43      0.00
   -8    3   11      0.69      0.00
   -7    3   11      2.70      0.00
   -6    3   11     -2.21      0.00
   -5    3   11     -1.15      0.00
   -4    3   11      3.94      0.00
   -3    3   11      1.38      0.00
   -2    3   11     12.69      0.00
   -1    3   11      1.29      0.00
    0    3   11     -0.33      0.00
    1    3   11     -3.81      0.00
    2    3   11     -4.63      0.00
    3    3   11    -11.69      0.00
    4    3   11     -0.33      0.00
    5    3   11     -4.52      0.00
    6    3   11     -9.75      0.00
    7    3   11      4.37      0.00
    8    3   11     -8.50      0.00
    9    3   11      1.49      0.00
   10    3   11      1.89      0.00
   11    3   11     -3.32      0.00
   12    3   11      0.37      0.00
   13    3   11      1.85      0.00
   14    3   11     -1.86      0.00
   15    3   11     -1.95      0.00
  -15    4   11      1.34      0.00
  -14    4   11      3.51      0.00
  -13    4   11      1.62      0.00
  -12    4   11     -0.41      0.00
  -11    4   11      1.24      0.00
  -10    4   11     -1.00      0.00
   -9    4   11     -0.50      0.00
   -8    4   11      1.76      0.00
   -7    4   11     -0.58      0.00
   -6    4   11     -2.35      0.00
   -5    4   11      5.01      0.00
   -4    4   11     -1.68      0.00
   -3    4   11     -1.08      0.00
   -2    4   11     -3.70      0.00
   -1    4   11    -15.70      0.00
    0    4   11     -7.74      0.00
    1    4   11     -9.71      0.00
    2    4   11     -7.18      0.00
    3    4   11     -1.53      0.00
    4    4   11      5.04      0.00
    5    4   11     -4.47      0.00
    6    4   11     10.38      0.00
    7    4   11      4.22      0.00
    8    4   11      1.67      0.00
    9    4   11      5.28      0.00
   10    4   11     -0.18      0.00
   11    4   11     -1.95      0.00
   12    4   11     -0.55      0.00
   13    4   11     -4.55      0.00
   14    4   11     -3.79      0.00
   15    4   11      1.28      0.00
  -14    5   11     -3.44      0.00
  -13    5   11     -1.77      0.00
  -12    5   11     -1.48      0.00
  -11    5   11      1.42      0.00
  -10    5   11     -2.03      0.00
   -9    5   11     -0.94      0.00
   -8    5   11      0.98      0.00
   -7    5   11     -3.31      0.00
   -6    5   11      0.84      0.00
   -5    5   11     -0.45      0.00
   -4    5   11     -6.97      0.00
   -3    5   11      2.66      0.00
   -2    5   11    -12.04      0.00
   -1    5   11      1.99      0.00
    0    5   11      3.57      0.00
    1    5   11      2.64      0.00
    2    5   11     10.86      0.00
    3    5   11      7.68      0.00
    4    5   11      4.82      0.00
    5    5   11      0.32      0.00
    6    5   11      6.80      0.00
    7    5   11     -7.85      0.00
    8    5   11      2.61      0.00
    9    5   11     -3.32      0.00
   10    5   11     -5.19      0.00
   11    5   11     -4.84      0.00
   12    5   11      1.55      0.00
   13    5   11     -4.87      0.00
   14    5   11      5.50      0.00
   15    5   11     -2.93      0.00
  -14    6   11     -0.75      0.00
  -13    6   11      0.08      0.00
  -12    6   11      1.23      0.00
  -11    6   11     -3.46      0.00
  -10    6   11     -0.54      0.00
   -9    6   11      1.60      0.00
   -8    6   11     -2.30      0.00
   -7    6   11      1.09      0.00
   -6    6   11      2.99      0.00
   -5    6   11     -3.61      0.00
   -4    6   11      4.06      0.00
   -3    6   11     -3.60      0.00
   -2    6   11      3.78      0.00
   -1    6   11     10.93      0.00
    0    6   11      1.84      0.00
    1    6   11     11.68      0.00
    2    6   11      0.56      0.00
    3    6   11      3.28      0.00
    4    6   11     -9.01      0.00
    5    6   11      4.85      0.00
    6    6   11     -8.92      0.00
    7    6   11     -1.98      0.00
    8    6   11      0.84      0.00
    9    6   11     -4.45      0.00
   10    6   11      1.69      0.00
   11    6   11      1.01      0.00
   12    6   11      0.30      0.00
   13    6   11     -1.02      0.00
   14    6   11      2.92      0.00
  -14    7   11     -0.08      0.00
  -13    7   11     -0.11      0.00
  -12    7   11     -3.77      0.00
  -11    7   11      1.33      0.00
  -10    7   11      0.19      0.00
   -9    7   11     -0.42      0.00
   -8    7   11      1.37      0.00
   -7    7   11      0.95      0.00
   -6    7   11     -0.62      0.00
   -5    7   11     -0.02      0.00
   -4    7   11      2.03      0.00
   -3    7   11      1.98      0.00
   -2    7   11      6.44      0.00
   -1    7   11     -0.73      0.00
    0    7   11      0.09      0.00
    1    7   11     -3.48      0.00
    2    7   11     -7.35      0.00
    3    7   11     -8.14      0.00
    4    7   11     -2.73      0.00
    5    7   11     -1.55      0.00
    6    7   11     -5.18      0.00
    7    7   11      7.10      0.00
    8    7   11     -4.83      0.00
    9    7   11      3.14      0.00
   10    7   11     -1.18      0.00
   11    7   11      9.00      0.00
   12    7   11     -1.07      0.00
   13    7   11     12.19      0.00
   14    7   11     -1.16      0.00
  -13    8   11     -2.20      0.00
  -12    8   11      4.63      0.00
  -11    8   11     -0.15      0.00
  -10    8   11      1.04      0.00
   -9    8   11      0.62      0.00
   -8    8   11      0.65      0.00
   -7    8   11     -0.25      0.00
   -6    8   11     -2.16      0.00
   -5    8   11     -1.02      0.00
   -4    8   11     -2.21      0.00
   -3    8   11     -4.41      0.00
   -2    8   11      0.77      0.00
   -1    8   11    -10.19      0.00
    0    8   11     -0.23      0.00
    1    8   11    -10.72      0.00
    2    8   11     -2.94      0.00
    3    8   11     -1.40      0.00
    4    8   11      6.76      0.00
    5    8   11     -0.99      0.00
    6    8   11      7.25      0.00
    7    8   11      2.55      0.00
    8    8   11     -1.91      0.00
    9    8   11      6.92      0.00
   10    8   11      1.53      0.00
   11    8   11      1.81      0.00
   12    8   11     -1.98      0.00
   13    8   11     -0.16      0.00
   14    8   11     -7.43      0.00
  -13    9   11      5.07      0.00
  -12    9   11     -1.56      0.00
  -11    9   11      3.64      0.00
  -10    9   11      0.96      0.00
   -8    9   11     -1.75      0.00
   -6    9   11     -1.64      0.00
   -5    9   11      2.90      0.00
   -4    9   11      0.27      0.00
   -3    9   11      6.49      0.00
   -2    9   11     -4.23      0.00
   -1    9   11      2.70      0.00
    0    9   11     -3.04      0.00
    1    9   11      1.16      0.00
    2    9   11      7.76      0.00
    3    9   11      5.49      0.00
    4    9   11      0.24      0.00
    5    9   11     -0.34      0.00
    6    9   11      1.67      0.00
    7    9   11    -10.91      0.00
    8    9   11      4.57      0.00
    9    9   11     -9.78      0.00
   10    9   11     -2.48      0.00
   11    9   11    -11.12      0.00
   12    9   11     -3.34      0.00
   13    9   11     -8.39      0.00
  -12   10   11      2.33      0.00
  -11   10   11     -4.04      0.00
  -10   10   11      0.07      0.00
   -8   10   11     -1.93      0.00
   -7   10   11      0.19      0.00
   -6   10   11      3.51      0.00
   -5   10   11     -2.47      0.00
   -4   10   11      1.16      0.00
   -3   10   11     -3.38      0.00
   -2   10   11     -2.29      0.00
   -1   10   11      1.48      0.00
    0   10   11      4.39      0.00
    1   10   11      7.36      0.00
    2   10   11      2.46      0.00
    3   10   11     -0.30      0.00
    4   10   11     -1.76      0.00
    5   10   11     -0.41      0.00
    6   10   11     -2.72      0.00
    7   10   11      3.65      0.00
    8   10   11      3.38      0.00
    9   10   11      1.72      0.00
   10   10   11      4.07      0.00
   11   10   11      0.57      0.00
   12   10   11      7.85      0.00
   13   10   11      0.93      0.00
  -11   11   11      0.07      0.00
  -10   11   11     -0.89      0.00
   -9   11   11      1.05      0.00
   -8   11   11      2.47      0.00
   -7   11   11      2.87      0.00
   -6   11   11     -3.08      0.00
   -5   11   11      3.23      0.00
   -4   11   11     -1.83      0.00
   -3   11   11      0.48      0.00
   -2   11   11      3.13      0.00
   -1   11   11      5.49      0.00
    0   11   11     -2.99      0.00
    1   11   11      0.13      0.00
    2   11   11     -5.28      0.00
    3   11   11     -2.15      0.00
    4   11   11      1.15      0.00
    5   11   11      1.96      0.00
    6   11   11     -0.43      0.00
    7   11   11     -2.64      0.00
    8   11   11     -5.24      0.00
    9   11   11     -6.34      0.00
   10   11   11     -0.41      0.00
   11   11   11      0.97      0.00
   12   11   11      0.51      0.00
  -10   12   11     -0.17      0.00
   -9   12   11     -0.76      0.00
   -8   12   11      1.22      0.00
   -7   12   11     -3.33      0.00
   -6   12   11      0.77      0.00
   -5   12   11     -2.97      0.00
   -4   12   11     -1.93      0.00
   -3   12   11     -1.39      0.00
   -2   12   11     -0.44      0.00
   -1   12   11     -5.66      0.00
    0   12   11      0.42      0.00
    1   12   11     -1.15      0.00
    2   12   11     -0.96      0.00
    3   12   11      0.83      0.00
    4   12   11     -2.90      0.00
    5   12   11     -5.25      0.00
    6   12   11     -4.51      0.00
    7   12   11      5.16      0.00
    8   12   11     -0.77      0.00
    9   12   11     10.88      0.00
   10   12   11     -0.28      0.00
   11   12   11      5.06      0.00
   -9   13   11      2.46      0.00
   -8   13   11     -1.61      0.00
   -7   13   11      1.12      0.00
   -6   13   11      2.44      0.00
   -5   13   11      5.00      0.00
   -4   13   11      3.69      0.00
   -3   13   11      7.21      0.00
   -2   13   11     -1.42      0.00
   -1   13   11     -0.82      0.00
    0   13   11     -0.79      0.00
    1   13   11     -5.82      0.00
    2   13   11      1.62      0.00
    3   13   11     -0.21      0.00
    4   13   11     -0.67      0.00
    5   13   11      5.13      0.00
    6   13   11      5.91      0.00
    7   13   11      1.54      0.00
    8   13   11      2.64      0.00
    9   13   11      0.74      0.00
   10   13   11     -0.89      0.00
   -8   14   11      1.00      0.00
   -7   14   11      1.61      0.00
   -6   14   11      1.16      0.00
   -5   14   11     -6.06      0.00
   -4   14   11      0.02      0.00
   -3   14   11     -8.03      0.00
   -2   14   11     -0.20      0.00
   -1   14   11      3.29      0.00
    0   14   11      2.43      0.00
    1   14   11      6.09      0.00
    2   14   11      2.83      0.00
    3   14   11     -0.07      0.00
    4   14   11      4.20      0.00
    5   14   11      0.56      0.00
    6   14   11     -1.32      0.00
    7   14   11     -3.26      0.00
    8   14   11     -2.89      0.00
    9   14   11     -2.86      0.00
   -7   15   11     -0.23      0.00
   -6   15   11     -3.41      0.00
   -5   15   11      1.69      0.00
   -4   15   11      0.45      0.00
   -3   15   11      0.84      0.00
   -2   15   11      2.94      0.00
   -1   15   11      2.62      0.00
    0   15   11      0.04      0.00
    1   15   11      3.22      0.00
    2   15   11     -1.77      0.00
    3   15   11     -0.04      0.00
    4   15   11     -2.16      0.00
    5   15   11     -2.51      0.00
    6   15   11     -0.39      0.00
    7   15   11      2.93      0.00
    8   15   11      5.47      0.00
   -5   16   11      0.99      0.00
   -4   16   11     -1.28      0.00
   -3   16   11      0.42      0.00
   -2   16   11      3.53      0.00
   -1   16   11     -4.30      0.00
    0   16   11     -0.14      0.00
    1   16   11     -6.55      0.00
    2   16   11     -4.71      0.00
    3   16   11     -0.80      0.00
    4   16   11     -0.85      0.00
    5   16   11      1.12      0.00
    6   16   11      1.23      0.00
   -2   17   11     -3.58      0.00
   -1   17   11     -1.62      0.00
    0   17   11     -1.09      0.00
    1   17   11     -0.78      0.00
    2   17   11      5.73      0.00
    3   17   11      1.38      0.00
   -1  -15   12      0.31      0.00
    0  -15   12      0.79      0.00
   -6  -14   12     -4.68      0.00
   -5  -14   12      0.14      0.00
   -4  -14   12     -3.72      0.00
   -3  -14   12     -1.09      0.00
   -2  -14   12     -0.38      0.00
   -1  -14   12     -3.32      0.00
    0  -14   12     -0.43      0.00
    1  -14   12     -5.24      0.00
    2  -14   12      2.09      0.00
    3  -14   12     -3.63      0.00
    4  -14   12      1.37      0.00
   -8  -13   12      1.57      0.00
   -7  -13   12      1.45      0.00
   -6  -13   12      3.37      0.00
   -5  -13   12      2.44      0.00
   -4  -13   12      2.90      0.00
   -3  -13   12      6.63      0.00
   -2  -13   12      2.11      0.00
   -1  -13   12      4.44      0.00
    0  -13   12      0.02      0.00
    1  -13   12      3.84      0.00
    2  -13   12     -1.03      0.00
    3  -13   12      0.79      0.00
    4  -13   12     -1.00      0.00
    5  -13   12     -1.06      0.00
    6  -13   12     -3.97      0.00
   -9  -12   12     -0.60      0.00
   -8  -12   12      0.59      0.00
   -7  -12   12     -1.30      0.00
   -6  -12   12      1.44      0.00
   -5  -12   12     -0.81      0.00
   -4  -12   12      3.12      0.00
   -3  -12   12     -2.90      0.00
   -2  -12   12     -1.34      0.00
   -1  -12   12     -2.20      0.00
    0  -12   12      0.10      0.00
    1  -12   12     -1.48      0.00
    2  -12   12     -3.43      0.00
    3  -12   12      3.50      0.00
    4  -12   12     -2.10      0.00
    5  -12   12      1.35      0.00
    6  -12   12      5.31      0.00
    7  -12   12     -0.42      0.00
    8  -12   12      0.87      0.00
  -10  -11   12     -1.57      0.00
   -9  -11   12      0.05      0.00
   -8  -11   12     -2.29      0.00
   -7  -11   12      0.72      0.00
   -6  -11   12     -2.08      0.00
   -5  -11   12     -0.82      0.00
   -4  -11   12     -4.02      0.00
   -3  -11   12     -3.29      0.00
   -2  -11   12     -3.92      0.00
   -1  -11   12     -0.01      0.00
    0  -11   12     -4.81      0.00
    1  -11   12      1.55      0.00
    2  -11   12      4.41      0.00
    3  -11   12     -0.84      0.00
    4  -11   12      1.53      0.00
    5  -11   12      2.97      0.00
    6  -11   12     -4.44      0.00
    7  -11   12      1.09      0.00
    8  -11   12      2.86      0.00
    9  -11   12      0.36      0.00
  -11  -10   12     -0.20      0.00
  -10  -10   12      1.08      0.00
   -9  -10   12     -1.56      0.00
   -8  -10   12      2.32      0.00
   -7  -10   12     -1.69      0.00
   -6  -10   12     -0.65      0.00
   -5  -10   12     -3.14      0.00
   -4  -10   12      0.79      0.00
   -3  -10   12     -1.67      0.00
   -2  -10   12      5.06      0.00
   -1  -10   12      1.02      0.00
    0  -10   12      3.59      0.00
    1  -10   12      3.36      0.00
    2  -10   12     -2.84      0.00
    3  -10   12     -1.26      0.00
    4  -10   12     -0.62      0.00
    5  -10   12     -3.75      0.00
    6  -10   12     -1.29      0.00
    7  -10   12      0.60      0.00
    8  -10   12     -4.49      0.00
    9  -10   12     -0.84      0.00
   10  -10   12      3.16      0.00
  -12   -9   12      0.94      0.00
  -11   -9   12      0.08      0.00
  -10   -9   12      0.13      0.00
   -9   -9   12      0.35      0.00
   -8   -9   12     -0.77      0.00
   -7   -9   12     -1.39      0.00
   -6   -9   12      0.47      0.00
   -5   -9   12      2.08      0.00
   -4   -9   12     -0.14      0.00
   -3   -9   12      3.08      0.00
   -2   -9   12      2.86      0.00
   -1   -9   12     -3.39      0.00
    0   -9   12      4.98      0.00
    1   -9   12     -3.99      0.00
    2   -9   12      0.92      0.00
    3   -9   12     -1.09      0.00
    4   -9   12      2.03      0.00
    5   -9   12     -3.14      0.00
    6   -9   12      2.99      0.00
    7   -9   12      0.41      0.00
    8   -9   12      0.89      0.00
    9   -9   12      3.32      0.00
   10   -9   12     -3.24      0.00
   11   -9   12     -0.11      0.00
  -12   -8   12     -1.99      0.00
  -11   -8   12     -1.10      0.00
  -10   -8   12     -3.60      0.00
   -9   -8   12      1.55      0.00
   -8   -8   12     -1.86      0.00
   -7   -8   12      4.81      0.00
   -6   -8   12      0.87      0.00
   -5   -8   12      2.82      0.00
   -4   -8   12      0.24      0.00
   -3   -8   12      3.27      0.00
   -2   -8   12     -3.61      0.00
   -1   -8   12      1.26      0.00
    0   -8   12      2.39      0.00
    1   -8   12     -7.01      0.00
    2   -8   12      4.32      0.00
    3   -8   12     -1.99      0.00
    4   -8   12     -0.41      0.00
    5   -8   12      2.20      0.00
    6   -8   12      6.61      0.00
    7   -8   12     -4.22      0.00
    8   -8   12      3.16      0.00
    9   -8   12     -2.41      0.00
   10   -8   12     -0.65      0.00
   11   -8   12      0.52      0.00
   12   -8   12     -1.17      0.00
  -13   -7   12     -1.18      0.00
  -12   -7   12     -0.30      0.00
  -11   -7   12      0.90      0.00
  -10   -7   12      4.01      0.00
   -9   -7   12      2.47      0.00
   -8   -7   12      1.01      0.00
   -7   -7   12      1.07      0.00
   -6   -7   12     -1.70      0.00
   -5   -7   12     -1.84      0.00
   -4   -7   12      1.01      0.00
   -3   -7   12     -2.26      0.00
   -2   -7   12     -3.84      0.00
   -1   -7   12      4.57      0.00
    0   -7   12    -12.18      0.00
    1   -7   12      5.77      0.00
    2   -7   12     -1.04      0.00
    3   -7   12      1.61      0.00
    4   -7   12      3.47      0.00
    5   -7   12      5.08      0.00
    6   -7   12     -7.59      0.00
    7   -7   12      3.35      0.00
    8   -7   12     -0.88      0.00
    9   -7   12     -4.38      0.00
   10   -7   12      1.45      0.00
   11   -7   12     -3.94      0.00
   12   -7   12     -0.48      0.00
  -13   -6   12      1.51      0.00
  -12   -6   12      1.02      0.00
  -11   -6   12      0.43      0.00
  -10   -6   12      1.01      0.00
   -9   -6   12     -5.65      0.00
   -8   -6   12      2.79      0.00
   -7   -6   12     -3.73      0.00
   -6   -6   12     -0.81      0.00
   -5   -6   12      3.08      0.00
   -4   -6   12     -0.24      0.00
   -3   -6   12     -0.24      0.00
   -2   -6   12      4.68      0.00
   -1   -6   12      0.40      0.00
    0   -6   12      1.62      0.00
    1   -6   12     11.40      0.00
    2   -6   12     -3.99      0.00
    3   -6   12      5.97      0.00
    4   -6   12     -3.23      0.00
    5   -6   12     -3.22      0.00
    6   -6   12     -1.81      0.00
    7   -6   12      2.16      0.00
    8   -6   12     -3.13      0.00
    9   -6   12      6.02      0.00
   10   -6   12      1.68      0.00
   11   -6   12      3.90      0.00
   12   -6   12      2.28      0.00
   13   -6   12      0.02      0.00
  -14   -5   12      2.49      0.00
  -13   -5   12     -1.32      0.00
  -12   -5   12      2.59      0.00
  -11   -5   12      0.22      0.00
  -10   -5   12     -1.89      0.00
   -9   -5   12      0.74      0.00
   -8   -5   12     -1.37      0.00
   -7   -5   12     -4.09      0.00
   -6   -5   12      3.26      0.00
   -5   -5   12     -1.46      0.00
   -4   -5   12     -3.60      0.00
   -3   -5   12      1.14      0.00
   -2   -5   12      1.47      0.00
   -1   -5   12     -4.10      0.00
    0   -5   12      7.63      0.00
    1   -5   12     -6.39      0.00
    2   -5   12     -4.85      0.00
    3   -5   12     -1.72      0.00
    4   -5   12     -6.07      0.00
    5   -5   12     -1.72      0.00
    6   -5   12      1.06      0.00
    7   -5   12     -1.56      0.00
    8   -5   12     -1.43      0.00
    9   -5   12      1.25      0.00
   10   -5   12     -0.33      0.00
   11   -5   12      1.86      0.00
   12   -5   12      3.47      0.00
   13   -5   12      1.23      0.00
  -14   -4   12     -3.80      0.00
  -13   -4   12      0.69      0.00
  -12   -4   12     -3.41      0.00
  -11   -4   12     -1.81      0.00
  -10   -4   12     -1.75      0.00
   -9   -4   12      2.44      0.00
   -8   -4   12     -0.51      0.00
   -7   -4   12      5.28      0.00
   -6   -4   12      4.76      0.00
   -5   -4   12     -3.68      0.00
   -4   -4   12      4.59      0.00
   -3   -4   12      3.57      0.00
   -2   -4   12     -4.10      0.00
   -1   -4   12     -1.97      0.00
    0   -4   12     -1.82      0.00
    1   -4   12    -12.56      0.00
    2   -4   12      4.48      0.00
    3   -4   12     -3.73      0.00
    4   -4   12     -0.43      0.00
    5   -4   12      3.51      0.00
    6   -4   12      1.37      0.00
    7   -4   12     -1.99      0.00
    8   -4   12      6.71      0.00
    9   -4   12     -1.08      0.00
   10   -4   12     -1.38      0.00
   11   -4   12     -1.50      0.00
   12   -4   12     -4.06      0.00
   13   -4   12     -3.44      0.00
   14   -4   12      2.39      0.00
  -14   -3   12     -0.59      0.00
  -13   -3   12      1.79      0.00
  -12   -3   12      0.97      0.00
  -11   -3   12      2.41      0.00
  -10   -3   12      2.37      0.00
   -9   -3   12      2.55      0.00
   -8   -3   12      0.52      0.00
   -7   -3   12      2.09      0.00
   -6   -3   12     -7.14      0.00
   -5   -3   12     -1.65      0.00
   -4   -3   12      3.21      0.00
   -3   -3   12     -9.51      0.00
   -2   -3   12     -0.79      0.00
   -1   -3   12      2.09      0.00
    0   -3   12     -2.41      0.00
    1   -3   12      3.28      0.00
    2   -3   12      8.69      0.00
    3   -3   12     -3.61      0.00
    4   -3   12     11.62      0.00
    5   -3   12     -0.38      0.00
    6   -3   12      1.26      0.00
    7   -3   12      3.10      0.00
    8   -3   12     -1.05      0.00
    9   -3   12     -3.21      0.00
   10   -3   12      2.47      0.00
   11   -3   12      1.70      0.00
   12   -3   12     -1.70      0.00
   13   -3   12      5.65      0.00
   14   -3   12     -4.32      0.00
  -14   -2   12      1.14      0.00
  -13   -2   12      0.61      0.00
  -12   -2   12     -3.08      0.00
  -11   -2   12     -0.56      0.00
  -10   -2   12      0.10      0.00
   -9   -2   12     -5.38      0.00
   -8   -2   12     -1.26      0.00
   -7   -2   12     -3.04      0.00
   -6   -2   12     -2.12      0.00
   -5   -2   12      7.13      0.00
   -4   -2   12     -3.78      0.00
   -3   -2   12     -2.35      0.00
   -2   -2   12      7.51      0.00
   -1   -2   12     -0.06      0.00
    0   -2   12      0.02      0.00
    1   -2   12     13.10      0.00
    2   -2   12     -1.95      0.00
    3   -2   12      5.34      0.00
    4   -2   12     -0.20      0.00
    5   -2   12     -4.40      0.00
    6   -2   12      0.31      0.00
    7   -2   12     -2.08      0.00
    8   -2   12     -1.43      0.00
    9   -2   12     -0.50      0.00
   10   -2   12     -0.11      0.00
   11   -2   12     -8.48      0.00
   12   -2   12     -0.25      0.00
   13   -2   12     -5.73      0.00
   14   -2   12     -3.47      0.00
  -14   -1   12      1.02      0.00
  -13   -1   12     -4.13      0.00
  -12   -1   12      2.20      0.00
  -11   -1   12     -0.18      0.00
  -10   -1   12     -4.02      0.00
   -9   -1   12      1.00      0.00
   -8   -1   12      0.51      0.00
   -7   -1   12     -1.08      0.00
   -6   -1   12      4.83      0.00
   -5   -1   12      0.42      0.00
   -4   -1   12     -5.69      0.00
   -3   -1   12     14.12      0.00
   -2   -1   12     -3.09      0.00
   -1   -1   12      0.30      0.00
    0   -1   12      3.12      0.00
    1   -1   12     -3.37      0.00
    2   -1   12    -12.41      0.00
    3   -1   12      0.27      0.00
    4   -1   12     -9.35      0.00
    5   -1   12      0.46      0.00
    6   -1   12     -0.75      0.00
    7   -1   12      3.19      0.00
    8   -1   12     -4.37      0.00
    9   -1   12      5.97      0.00
   10   -1   12     -6.03      0.00
   11   -1   12      6.34      0.00
   12   -1   12      1.11      0.00
   13   -1   12      3.69      0.00
   14   -1   12      1.94      0.00
  -15    0   12      2.08      0.00
  -14    0   12      1.78      0.00
  -13    0   12      1.06      0.00
  -12    0   12      3.74      0.00
  -11    0   12     -0.84      0.00
  -10    0   12      3.31      0.00
   -9    0   12      4.02      0.00
   -8    0   12      0.42      0.00
   -7    0   12      2.39      0.00
   -6    0   12      0.94      0.00
   -5    0   12     -4.89      0.00
   -4    0   12      4.72      0.00
   -3    0   12     -3.74      0.00
   -2    0   12     -7.62      0.00
   -1    0   12     -0.12      0.00
    0    0   12     -0.70      0.00
    1    0   12     -9.55      0.00
    2    0   12      3.91      0.00
    3    0   12      2.32      0.00
    4    0   12     -2.11      0.00
    5    0   12      5.03      0.00
    6    0   12      0.09      0.00
    7    0   12     -5.53      0.00
    8    0   12      3.14      0.00
    9    0   12     -1.44      0.00
   10    0   12     -0.88      0.00
   11    0   12      4.10      0.00
   12    0   12     -0.91      0.00
   13    0   12     -3.40      0.00
   14    0   12      2.93      0.00
  -15    1   12     -0.61      0.00
  -14    1   12     -2.79      0.00
  -13    1   12      0.78      0.00
  -12    1   12     -2.77      0.00
  -11    1   12     -0.52      0.00
  -10    1   12      1.43      0.00
   -9    1   12     -0.75      0.00
   -8    1   12      0.12      0.00
   -7    1   12      0.38      0.00
   -6    1   12     -2.64      0.00
   -5    1   12     -4.26      0.00
   -4    1   12      0.00      0.00
   -3    1   12     -9.75      0.00
   -2    1   12      1.50      0.00
   -1    1   12      1.58      0.00
    0    1   12     -7.21      0.00
    1    1   12     -0.07      0.00
    2    1   12      8.85      0.00
    3    1   12     -7.98      0.00
    4    1   12      9.35      0.00
    5    1   12      1.83      0.00
    6    1   12      0.32      0.00
    7    1   12      2.88      0.00
    8    1   12      3.33      0.00
    9    1   12     -7.29      0.00
   10    1   12      4.80      0.00
   11    1   12     -5.08      0.00
   12    1   12     -2.21      0.00
   13    1   12      2.04      0.00
   14    1   12      0.29      0.00
   15    1   12     -2.23      0.00
  -14    2   12     -2.65      0.00
  -13    2   12      0.60      0.00
  -12    2   12     -2.50      0.00
  -11    2   12      0.32      0.00
  -10    2   12     -0.38      0.00
   -9    2   12     -5.18      0.00
   -8    2   12     -3.55      0.00
   -7    2   12     -3.46      0.00
   -6    2   12     -6.73      0.00
   -5    2   12      3.71      0.00
   -4    2   12     -0.67      0.00
   -3    2   12      3.52      0.00
   -2    2   12      6.76      0.00
   -1    2   12     -0.79      0.00
    0    2   12      2.14      0.00
    1    2   12     12.68      0.00
    2    2   12     -4.37      0.00
    3    2   12      4.46      0.00
    4    2   12      2.51      0.00
    5    2   12     -8.17      0.00
    6    2   12     -5.02      0.00
    7    2   12     -1.30      0.00
    8    2   12     -5.63      0.00
    9    2   12     -0.22      0.00
   10    2   12      3.53      0.00
   11    2   12     -3.74      0.00
   12    2   12      5.01      0.00
   13    2   12      3.49      0.00
   14    2   12     -2.38      0.00
   15    2   12      8.66      0.00
  -14    3   12      4.26      0.00
  -13    3   12     -1.08      0.00
  -12    3   12     -0.16      0.00
  -11    3   12      2.02      0.00
  -10    3   12     -3.62      0.00
   -9    3   12      1.53      0.00
   -8    3   12      4.27      0.00
   -7    3   12      1.09      0.00
   -6    3   12      9.23      0.00
   -5    3   12      7.11      0.00
   -4    3   12      2.18      0.00
   -3    3   12      6.90      0.00
   -2    3   12      1.39      0.00
   -1    3   12     -1.94      0.00
    0    3   12      8.98      0.00
    1    3   12     -3.34      0.00
    2    3   12     -3.02      0.00
    3    3   12      2.85      0.00
    4    3   12     -9.17      0.00
    5    3   12     -2.22      0.00
    6    3   12      5.72      0.00
    7    3   12      0.79      0.00
    8    3   12      1.48      0.00
    9    3   12      7.23      0.00
   10    3   12     -0.36      0.00
   11    3   12      1.40      0.00
   12    3   12      3.95      0.00
   13    3   12     -4.74      0.00
   14    3   12      1.78      0.00
   15    3   12     -3.69      0.00
  -14    4   12     -1.31      0.00
  -13    4   12      0.72      0.00
  -12    4   12      5.64      0.00
  -11    4   12      0.43      0.00
  -10    4   12      1.71      0.00
   -9    4   12      3.89      0.00
   -8    4   12      1.15      0.00
   -7    4   12      1.72      0.00
   -6    4   12      1.38      0.00
   -5    4   12     -4.28      0.00
   -4    4   12     -2.05      0.00
   -3    4   12     -0.95      0.00
   -2    4   12     -5.75      0.00
   -1    4   12      2.54      0.00
    0    4   12     -2.39      0.00
    1    4   12     -8.58      0.00
    2    4   12      0.08      0.00
    3    4   12     -2.96      0.00
    4    4   12     -3.90      0.00
    5    4   12      7.73      0.00
    6    4   12     -1.67      0.00
    7    4   12     -0.57      0.00
    8    4   12      2.77      0.00
    9    4   12      1.61      0.00
   10    4   12     -5.64      0.00
   11    4   12      6.53      0.00
   12    4   12     -5.34      0.00
   13    4   12      0.66      0.00
   14    4   12     -0.17      0.00
  -14    5   12      3.78      0.00
  -13    5   12      2.22      0.00
  -12    5   12     -2.26      0.00
  -11    5   12     -2.75      0.00
  -10    5   12      3.09      0.00
   -9    5   12     -1.39      0.00
   -8    5   12     -2.64      0.00
   -7    5   12     -1.72      0.00
   -6    5   12     -4.64      0.00
   -5    5   12     -5.60      0.00
   -4    5   12     -0.71      0.00
   -3    5   12     -6.22      0.00
   -2    5   12     -2.13      0.00
   -1    5   12      0.11      0.00
    0    5   12     -8.48      0.00
    1    5   12      1.82      0.00
    2    5   12      2.54      0.00
    3    5   12     -3.05      0.00
    4    5   12      8.63      0.00
    5    5   12      3.92      0.00
    6    5   12     -1.17      0.00
    7    5   12      3.16      0.00
    8    5   12     -3.52      0.00
    9    5   12     -5.01      0.00
   10    5   12     -1.77      0.00
   11    5   12     -1.04      0.00
   12    5   12     -2.85      0.00
   13    5   12      2.33      0.00
   14    5   12      1.59      0.00
  -13    6   12     -2.92      0.00
  -12    6   12     -1.02      0.00
  -11    6   12     -0.02      0.00
  -10    6   12     -1.87      0.00
   -9    6   12     -3.63      0.00
   -8    6   12     -2.35      0.00
   -7    6   12     -0.89      0.00
   -6    6   12     -2.17      0.00
   -5    6   12      3.28      0.00
   -4    6   12      3.64      0.00
   -3    6   12      1.04      0.00
   -2    6   12      8.72      0.00
   -1    6   12     -1.89      0.00
    0    6   12      4.18      0.00
    1    6   12      7.30      0.00
    2    6   12      1.03      0.00
    3    6   12      6.06      0.00
    4    6   12      4.62      0.00
    5    6   12     -7.29      0.00
    6    6   12      0.43      0.00
    7    6   12     -3.55      0.00
    8    6   12      0.38      0.00
    9    6   12     -0.02      0.00
   10    6   12      6.89      0.00
   11    6   12     -0.82      0.00
   12    6   12      5.97      0.00
   13    6   12     -0.87      0.00
   14    6   12     -1.97      0.00
  -13    7   12     -1.55      0.00
  -12    7   12     -0.91      0.00
  -11    7   12      1.69      0.00
  -10    7   12     -2.35      0.00
   -9    7   12      0.98      0.00
   -8    7   12      3.58      0.00
   -7    7   12      2.13      0.00
   -6    7   12      5.63      0.00
   -5    7   12      6.10      0.00
   -4    7   12     -1.02      0.00
   -3    7   12      6.92      0.00
   -2    7   12     -2.03      0.00
   -1    7   12     -2.03      0.00
    0    7   12      6.92      0.00
    1    7   12     -4.75      0.00
    2    7   12     -1.66      0.00
    3    7   12     -2.88      0.00
    4    7   12     -7.63      0.00
    5    7   12     -5.11      0.00
    6    7   12      1.56      0.00
    7    7   12     -0.15      0.00
    8    7   12      4.76      0.00
    9    7   12      3.91      0.00
   10    7   12     -0.35      0.00
   11    7   12     -2.63      0.00
   12    7   12     -8.94      0.00
   13    7   12     -1.80      0.00
   14    7   12     -4.67      0.00
  -13    8   12      2.20      0.00
  -12    8   12      1.99      0.00
  -11    8   12     -1.46      0.00
  -10    8   12     -0.93      0.00
   -9    8   12      5.43      0.00
   -8    8   12     -1.53      0.00
   -7    8   12      3.60      0.00
   -6    8   12     -0.18      0.00
   -5    8   12     -2.50      0.00
   -4    8   12     -0.19      0.00
   -3    8   12     -5.15      0.00
   -2    8   12     -6.91      0.00
   -1    8   12      2.40      0.00
    0    8   12     -5.10      0.00
    1    8   12     -2.54      0.00
    2    8   12      0.31      0.00
    3    8   12      0.31      0.00
    4    8   12     -3.03      0.00
    5    8   12      8.03      0.00
    6    8   12      2.65      0.00
    7    8   12      3.00      0.00
    8    8   12      1.08      0.00
    9    8   12     -2.87      0.00
   10    8   12      0.92      0.00
   11    8   12     -1.40      0.00
   12    8   12     11.44      0.00
   13    8   12      1.37      0.00
  -12    9   12     -1.84      0.00
  -11    9   12     -1.22      0.00
  -10    9   12      5.48      0.00
   -9    9   12     -2.51      0.00
   -8    9   12      2.47      0.00
   -7    9   12     -0.86      0.00
   -6    9   12     -3.37      0.00
   -5    9   12     -4.42      0.00
   -4    9   12     -5.72      0.00
   -3    9   12     -2.84      0.00
   -2    9   12      0.55      0.00
   -1    9   12      5.11      0.00
    0    9   12     -5.46      0.00
    1    9   12      4.61      0.00
    2    9   12      0.85      0.00
    3    9   12     -0.71      0.00
    4    9   12      5.72      0.00
    5    9   12      5.81      0.00
    6    9   12     -4.03      0.00
    7    9   12      1.20      0.00
    8    9   12     -3.83      0.00
    9    9   12     -0.35      0.00
   10    9   12     -3.74      0.00
   11    9   12      2.51      0.00
   12    9   12     -6.97      0.00
   13    9   12     -1.51      0.00
  -11   10   12      3.51      0.00
  -10   10   12     -0.22      0.00
   -9   10   12     -2.52      0.00
   -8   10   12     -1.25      0.00
   -7   10   12     -5.32      0.00
   -6   10   12     -0.97      0.00
   -5   10   12      1.16      0.00
   -4   10   12      5.84      0.00
   -3   10   12      4.56      0.00
   -2   10   12      7.86      0.00
   -1   10   12     -5.90      0.00
    0   10   12      5.13      0.00
    1   10   12      1.79      0.00
    2   10   12     -2.27      0.00
    3   10   12     -0.28      0.00
    4   10   12      2.13      0.00
    5   10   12    -11.82      0.00
    6   10   12     -1.71      0.00
    7   10   12     -4.37      0.00
    8   10   12     -6.88      0.00
    9   10   12      0.88      0.00
   10   10   12     -4.49      0.00
   11   10   12     -1.37      0.00
   12   10   12      0.44      0.00
  -11   11   12     -1.21      0.00
  -10   11   12     -4.24      0.00
   -9   11   12     -0.03      0.00
   -8   11   12      0.77      0.00
   -7   11   12     -0.39      0.00
   -6   11   12      2.48      0.00
   -5   11   12      3.23      0.00
   -4   11   12     -1.88      0.00
   -3   11   12      1.67      0.00
   -2   11   12     -4.46      0.00
   -1   11   12     -0.22      0.00
    0   11   12      1.96      0.00
    1   11   12     -5.66      0.00
    2   11   12     -2.00      0.00
    3   11   12      0.26      0.00
    4   11   12     -7.12      0.00
    5   11   12      1.81      0.00
    6   11   12      4.07      0.00
    7   11   12      3.94      0.00
    8   11   12     10.59      0.00
    9   11   12      2.27      0.00
   10   11   12      5.27      0.00
   11   11   12      4.39      0.00
   12   11   12     -0.88      0.00
  -10   12   12      1.25      0.00
   -9   12   12      1.81      0.00
   -8   12   12     -1.95      0.00
   -7   12   12      0.53      0.00
   -6   12   12      2.68      0.00
   -5   12   12     -5.46      0.00
   -4   12   12      1.88      0.00
   -3   12   12     -4.15      0.00
   -2   12   12     -1.86      0.00
   -1   12   12      1.75      0.00
    0   12   12     -1.26      0.00
    1   12   12     -0.81      0.00
    2   12   12      5.52      0.00
    3   12   12      4.77      0.00
    4   12   12      5.24      0.00
    5   12   12     12.09      0.00
    6   12   12      1.30      0.00
    7   12   12     -1.71      0.00
    8   12   12     -6.29      0.00
    9   12   12     -6.10      0.00
   10   12   12     -0.75      0.00
   11   12   12     -5.50      0.00
   -9   13   12      1.18      0.00
   -8   13   12     -1.03      0.00
   -7   13   12      4.08      0.00
   -6   13   12     -4.27      0.00
   -5   13   12     -0.84      0.00
   -4   13   12     -1.42      0.00
   -3   13   12     -2.12      0.00
   -2   13   12      2.20      0.00
   -1   13   12      2.09      0.00
    0   13   12     -1.86      0.00
    1   13   12      3.79      0.00
    2   13   12      1.03      0.00
    3   13   12     -5.42      0.00
    4   13   12     -1.65      0.00
    5   13   12    -10.14      0.00
    6   13   12    -10.00      0.00
    7   13   12     -4.46      0.00
    8   13   12      0.51      0.00
    9   13   12      0.77      0.00
   10   13   12      1.74      0.00
   -7   14   12     -1.46      0.00
   -6   14   12     -0.73      0.00
   -5   14   12      6.16      0.00
   -4   14   12      4.40      0.00
   -3   14   12      1.23      0.00
   -2   14   12      2.82      0.00
   -1   14   12     -6.50      0.00
    0   14   12     -5.07      0.00
    1   14   12      1.37      0.00
    2   14   12     -6.57      0.00
    3   14   12     -2.55      0.00
    4   14   12      1.07      0.00
    5   14   12     -8.77      0.00
    6   14   12      5.98      0.00
    7   14   12      3.53      0.00
    8   14   12      1.81      0.00
    9   14   12      3.98      0.00
   -6   15   12      1.22      0.00
   -5   15   12      0.71      0.00
   -4   15   12     -7.97      0.00
   -3   15   12      4.00      0.00
   -2   15   12     -5.38      0.00
   -1   15   12      1.80      0.00
    0   15   12      7.29      0.00
    1   15   12     -2.37      0.00
    2   15   12     -0.81      0.00
    3   15   12      5.42      0.00
    4   15   12     -3.61      0.00
    5   15   12     10.49      0.00
    6   15   12      5.37      0.00
    7   15   12      0.41      0.00
   -4   16   12      1.01      0.00
   -3   16   12     -1.54      0.00
   -2   16   12     -0.39      0.00
   -1   16   12      2.32      0.00
    0   16   12      3.07      0.00
    1   16   12     -1.65      0.00
    2   16   12      8.29      0.00
    3   16   12     -1.85      0.00
    4   16   12      3.89      0.00
    5   16   12      1.50      0.00
   -4  -14   13      0.24      0.00
   -3  -14   13      0.38      0.00
   -2  -14   13      1.63      0.00
   -1  -14   13      2.49      0.00
    0  -14   13      1.31      0.00
    1  -14   13     -1.43      0.00
    2  -14   13     -0.22      0.00
   -6  -13   13     -0.20      0.00
   -5  -13   13     -3.38      0.00
   -4  -13   13      1.08      0.00
   -3  -13   13     -0.90      0.00
   -2  -13   13     -1.67      0.00
   -1  -13   13     -1.29      0.00
    0  -13   13     -3.63      0.00
    1  -13   13      3.96      0.00
    2  -13   13     -3.39      0.00
    3  -13   13      4.63      0.00
    4  -13   13     -0.22      0.00
    5  -13   13      3.87      0.00
   -8  -12   13      4.62      0.00
   -7  -12   13      6.72      0.00
   -6  -12   13      0.49      0.00
   -5  -12   13      4.48      0.00
   -4  -12   13      6.23      0.00
   -3  -12   13     -1.05      0.00
   -2  -12   13      6.20      0.00
   -1  -12   13     -3.47      0.00
    0  -12   13      4.50      0.00
    1  -12   13     -7.27      0.00
    2  -12   13      2.65      0.00
    3  -12   13     -1.69      0.00
    4  -12   13      0.78      0.00
    5  -12   13     -2.64      0.00
    6  -12   13      0.72      0.00
    7  -12   13     -2.87      0.00
   -9  -11   13      1.52      0.00
   -8  -11   13     -1.83      0.00
   -7  -11   13     -4.47      0.00
   -6  -11   13      0.20      0.00
   -5  -11   13      2.92      0.00
   -4  -11   13     -7.07      0.00
   -3  -11   13      0.27      0.00
   -2  -11   13     -4.92      0.00
   -1  -11   13     -1.12      0.00
    0  -11   13     -0.35      0.00
    1  -11   13      1.86      0.00
    2  -11   13      3.04      0.00
    3  -11   13     -2.61      0.00
    4  -11   13      1.73      0.00
    5  -11   13      2.06      0.00
    6  -11   13     -1.01      0.00
    7  -11   13      1.49      0.00
    8  -11   13      0.97      0.00
  -10  -10   13      0.56      0.00
   -9  -10   13     -2.73      0.00
   -8  -10   13     -3.95      0.00
   -7  -10   13     -1.18      0.00
   -6  -10   13     -2.05      0.00
   -5  -10   13     -5.08      0.00
   -4  -10   13     -3.16      0.00
   -3  -10   13      0.95      0.00
   -2  -10   13     -3.75      0.00
   -1  -10   13      3.47      0.00
    0  -10   13     -1.57      0.00
    1  -10   13      1.04      0.00
    2  -10   13     -2.45      0.00
    3  -10   13      3.59      0.00
    4  -10   13     -0.94      0.00
    5  -10   13     -2.23      0.00
    6  -10   13      1.12      0.00
    7  -10   13     -2.42      0.00
    8  -10   13     -0.46      0.00
    9  -10   13     -0.51      0.00
  -11   -9   13     -2.29      0.00
  -10   -9   13     -0.33      0.00
   -9   -9   13     -2.27      0.00
   -8   -9   13      1.42      0.00
   -7   -9   13      2.27      0.00
   -6   -9   13      1.72      0.00
   -5   -9   13     -0.04      0.00
   -4   -9   13      4.96      0.00
   -3   -9   13      1.24      0.00
   -2   -9   13      2.84      0.00
   -1   -9   13      3.09      0.00
    0   -9   13     -3.68      0.00
    1   -9   13      1.98      0.00
    2   -9   13     -3.43      0.00
    3   -9   13     -1.03      0.00
    4   -9   13     -4.24      0.00
    5   -9   13      1.41      0.00
    6   -9   13     -4.72      0.00
    7   -9   13      1.66      0.00
    8   -9   13     -0.01      0.00
    9   -9   13      3.88      0.00
   10   -9   13      0.98      0.00
  -12   -8   13      1.03      0.00
  -11   -8   13      2.69      0.00
  -10   -8   13      2.22      0.00
   -9   -8   13      1.54      0.00
   -8   -8   13      3.63      0.00
   -7   -8   13      1.32      0.00
   -6   -8   13     -2.09      0.00
   -5   -8   13      2.74      0.00
   -3   -8   13     -2.13      0.00
   -2   -8   13      1.29      0.00
   -1   -8   13     -4.59      0.00
    0   -8   13      1.16      0.00
    1   -8   13     -0.30      0.00
    2   -8   13      1.79      0.00
    3   -8   13     -0.08      0.00
    4   -8   13      2.41      0.00
    5   -8   13     -1.32      0.00
    6   -8   13      2.85      0.00
    7   -8   13      2.50      0.00
    8   -8   13      0.11      0.00
    9   -8   13     -0.74      0.00
   10   -8   13     -5.49      0.00
   11   -8   13     -1.37      0.00
  -12   -7   13     -2.88      0.00
  -11   -7   13      0.84      0.00
  -10   -7   13     -2.94      0.00
   -9   -7   13      1.47      0.00
   -8   -7   13      0.58      0.00
   -7   -7   13     -4.31      0.00
   -6   -7   13      1.73      0.00
   -5   -7   13     -2.71      0.00
   -4   -7   13     -1.71      0.00
   -3   -7   13     -3.58      0.00
   -2   -7   13      0.71      0.00
   -1   -7   13     -2.40      0.00
    0   -7   13      5.76      0.00
    1   -7   13      0.30      0.00
    2   -7   13     -0.15      0.00
    3   -7   13     -0.15      0.00
    4   -7   13      1.63      0.00
    5   -7   13     -0.10      0.00
    6   -7   13      3.12      0.00
    7   -7   13     -2.97      0.00
    8   -7   13     -1.54      0.00
    9   -7   13     -4.25      0.00
   10   -7   13      3.67      0.00
   11   -7   13      0.87      0.00
   12   -7   13      5.01      0.00
  -13   -6   13     -1.82      0.00
  -12   -6   13     -1.31      0.00
  -11   -6   13      0.77      0.00
  -10   -6   13      0.05      0.00
   -9   -6   13      0.06      0.00
   -8   -6   13     -3.97      0.00
   -7   -6   13     -1.43      0.00
   -6   -6   13     -0.03      0.00
   -5   -6   13     -0.18      0.00
   -4   -6   13     -1.69      0.00
   -3   -6   13      6.37      0.00
   -2   -6   13     -0.81      0.00
   -1   -6   13      4.36      0.00
    0   -6   13      0.77      0.00
    1   -6   13     -6.44      0.00
    2   -6   13      5.26      0.00
    3   -6   13     -0.93      0.00
    4   -6   13      1.33      0.00
    5   -6   13     -1.03      0.00
    6   -6   13      0.63      0.00
    7   -6   13     -5.02      0.00
    8   -6   13      2.40      0.00
    9   -6   13      0.82      0.00
   10   -6   13     -3.27      0.00
   11   -6   13      0.76      0.00
   12   -6   13     -7.77      0.00
  -13   -5   13     -3.97      0.00
  -12   -5   13      2.51      0.00
  -11   -5   13     -2.37      0.00
  -10   -5   13     -1.13      0.00
   -9   -5   13      0.47      0.00
   -8   -5   13     -1.43      0.00
   -7   -5   13      6.35      0.00
   -6   -5   13      2.50      0.00
   -5   -5   13      1.29      0.00
   -4   -5   13      6.34      0.00
   -3   -5   13      0.50      0.00
   -2   -5   13     -2.14      0.00
   -1   -5   13      1.69      0.00
    0   -5   13     -7.36      0.00
    1   -5   13      6.25      0.00
    2   -5   13     -2.62      0.00
    3   -5   13     -0.58      0.00
    4   -5   13     -2.59      0.00
    5   -5   13      1.92      0.00
    6   -5   13     -4.34      0.00
    7   -5   13      5.30      0.00
    8   -5   13      1.80      0.00
    9   -5   13      0.56      0.00
   10   -5   13      5.67      0.00
   11   -5   13     -1.04      0.00
   12   -5   13      4.04      0.00
   13   -5   13      2.06      0.00
  -13   -4   13      3.70      0.00
  -12   -4   13      2.72      0.00
  -11   -4   13     -0.28      0.00
  -10   -4   13      2.82      0.00
   -9   -4   13     -2.52      0.00
   -8   -4   13      2.89      0.00
   -7   -4   13     -2.06      0.00
   -6   -4   13     -3.98      0.00
   -5   -4   13     -0.24      0.00
   -4   -4   13     -2.44      0.00
   -3   -4   13     -6.08      0.00
   -2   -4   13      1.33      0.00
   -1   -4   13     -1.21      0.00
    0   -4   13      0.20      0.00
    1   -4   13      2.13      0.00
    2   -4   13     -6.64      0.00
    3   -4   13      2.41      0.00
    4   -4   13     -0.89      0.00
    5   -4   13      2.82      0.00
    6   -4   13     -0.46      0.00
    7   -4   13      4.56      0.00
    8   -4   13     -5.35      0.00
    9   -4   13      3.28      0.00
   10   -4   13     -3.14      0.00
   11   -4   13      2.01      0.00
   12   -4   13     -1.18      0.00
   13   -4   13      1.36      0.00
  -14   -3   13      0.32      0.00
  -13   -3   13     -2.84      0.00
  -12   -3   13     -2.74      0.00
  -11   -3   13      0.14      0.00
  -10   -3   13      0.47      0.00
   -9   -3   13      2.23      0.00
   -8   -3   13      1.05      0.00
   -7   -3   13     -0.02      0.00
   -6   -3   13      0.16      0.00
   -5   -3   13      0.49      0.00
   -4   -3   13     -3.18      0.00
   -3   -3   13      0.13      0.00
   -2   -3   13      4.75      0.00
   -1   -3   13     -4.97      0.00
    0   -3   13      5.26      0.00
    1   -3   13     -3.47      0.00
    2   -3   13      4.84      0.00
    3   -3   13      2.73      0.00
    4   -3   13      2.17      0.00
    5   -3   13     -2.83      0.00
    6   -3   13      0.81      0.00
    7   -3   13     -2.79      0.00
    8   -3   13     -1.48      0.00
    9   -3   13      1.00      0.00
   10   -3   13     -2.09      0.00
   11   -3   13     -1.58      0.00
   12   -3   13      3.53      0.00
   13   -3   13     -2.79      0.00
  -14   -2   13     -0.60      0.00
  -13   -2   13      4.14      0.00
  -12   -2   13      1.27      0.00
  -11   -2   13      1.90      0.00
  -10   -2   13     -0.42      0.00
   -9   -2   13     -0.73      0.00
   -8   -2   13     -0.99      0.00
   -7   -2   13     -2.36      0.00
   -6   -2   13      0.06      0.00
   -5   -2   13      0.79      0.00
   -4   -2   13      0.87      0.00
   -3   -2   13      9.63      0.00
   -2   -2   13     -3.42      0.00
   -1   -2   13      3.94      0.00
    0   -2   13      1.55      0.00
    1   -2   13     -3.77      0.00
    2   -2   13      4.16      0.00
    3   -2   13     -6.10      0.00
    4   -2   13     -1.28      0.00
    5   -2   13     -1.08      0.00
    6   -2   13      1.42      0.00
    7   -2   13     -4.78      0.00
    8   -2   13      4.72      0.00
    9   -2   13     -2.84      0.00
   10   -2   13      3.85      0.00
   11   -2   13      3.32      0.00
   12   -2   13      1.40      0.00
   13   -2   13      1.37      0.00
   14   -2   13      1.48      0.00
  -14   -1   13     -0.06      0.00
  -13   -1   13     -1.98      0.00
  -12   -1   13     -1.53      0.00
  -11   -1   13     -1.60      0.00
  -10   -1   13     -1.94      0.00
   -9   -1   13     -0.58      0.00
   -8   -1   13     -1.73      0.00
   -7   -1   13      1.97      0.00
   -6   -1   13      4.63      0.00
   -5   -1   13      0.26      0.00
   -4   -1   13      4.02      0.00
   -2   -1   13     -5.77      0.00
   -1   -1   13      3.81      0.00
    0   -1   13     -4.89      0.00
    1   -1   13      2.79      0.00
    2   -1   13     -0.09      0.00
    3   -1   13     -2.24      0.00
    4   -1   13      3.04      0.00
    5   -1   13     -2.45      0.00
    6   -1   13     -0.03      0.00
    7   -1   13      2.40      0.00
    8   -1   13      3.62      0.00
    9   -1   13     -0.56      0.00
   10   -1   13     -1.12      0.00
   11   -1   13     -2.55      0.00
   12   -1   13     -9.23      0.00
   13   -1   13      0.62      0.00
   14   -1   13    -11.14      0.00
  -14    0   13     -2.02      0.00
  -13    0   13      0.43      0.00
  -12    0   13     -2.54      0.00
  -11    0   13      0.37      0.00
  -10    0   13     -0.01      0.00
   -9    0   13     -0.12      0.00
   -8    0   13      3.18      0.00
   -7    0   13      2.03      0.00
   -6    0   13     -2.26      0.00
   -5    0   13     -0.01      0.00
   -4    0   13     -0.50      0.00
   -3    0   13     -8.05      0.00
   -2    0   13      7.16      0.00
   -1    0   13     -4.47      0.00
    0    0   13     -2.13      0.00
    1    0   13      4.89      0.00
    2    0   13     -7.53      0.00
    3    0   13      5.56      0.00
    4    0   13     -2.64      0.00
    5    0   13      3.03      0.00
    6    0   13      3.82      0.00
    7    0   13      1.40      0.00
    8    0   13     -1.05      0.00
    9    0   13     -1.68      0.00
   10    0   13      2.37      0.00
   11    0   13     -1.59      0.00
   12    0   13      6.40      0.00
   13    0   13      0.29      0.00
   14    0   13      6.90      0.00
  -14    1   13      3.19      0.00
  -13    1   13      0.34      0.00
  -12    1   13      3.58      0.00
  -11    1   13      2.02      0.00
  -10    1   13      0.63      0.00
   -9    1   13      1.70      0.00
   -8    1   13     -1.16      0.00
   -7    1   13     -3.26      0.00
   -6    1   13     -1.77      0.00
   -5    1   13     -2.02      0.00
   -4    1   13     -4.19      0.00
   -3    1   13      1.42      0.00
   -2    1   13     -0.56      0.00
   -1    1   13     -2.80      0.00
    0    1   13      3.83      0.00
    1    1   13     -1.64      0.00
    2    1   13      0.15      0.00
    3    1   13      3.85      0.00
    4    1   13     -1.49      0.00
    5    1   13      2.51      0.00
    6    1   13     -4.51      0.00
    7    1   13     -0.86      0.00
    8    1   13     -4.79      0.00
    9    1   13      1.81      0.00
   10    1   13     -1.85      0.00
   11    1   13      0.06      0.00
   12    1   13      1.04      0.00
   13    1   13     -2.26      0.00
   14    1   13     -2.52      0.00
  -14    2   13      0.56      0.00
  -13    2   13     -2.97      0.00
  -12    2   13      0.75      0.00
  -11    2   13     -3.32      0.00
  -10    2   13      1.25      0.00
   -9    2   13      0.60      0.00
   -8    2   13     -1.72      0.00
   -7    2   13      2.24      0.00
   -6    2   13      0.46      0.00
   -5    2   13     -1.08      0.00
   -4    2   13     -0.05      0.00
   -3    2   13      3.78      0.00
   -2    2   13     -1.63      0.00
   -1    2   13      2.20      0.00
    0    2   13      3.24      0.00
    1    2   13     -5.56      0.00
    2    2   13      5.16      0.00
    3    2   13     -3.69      0.00
    4    2   13     -0.67      0.00
    5    2   13      1.77      0.00
    6    2   13     -1.88      0.00
    7    2   13      0.69      0.00
    8    2   13     -0.25      0.00
    9    2   13      3.40      0.00
   10    2   13     -2.62      0.00
   11    2   13      3.99      0.00
   12    2   13     -4.80      0.00
   13    2   13     -0.87      0.00
   14    2   13     -0.02      0.00
  -14    3   13     -3.11      0.00
  -13    3   13      0.84      0.00
  -12    3   13     -0.71      0.00
  -11    3   13      1.20      0.00
  -10    3   13     -1.31      0.00
   -9    3   13     -1.25      0.00
   -8    3   13     -0.89      0.00
   -7    3   13     -0.39      0.00
   -6    3   13     -2.76      0.00
   -5    3   13      2.12      0.00
   -4    3   13      3.07      0.00
   -3    3   13      1.21      0.00
   -2    3   13     -0.87      0.00
   -1    3   13      1.46      0.00
    0    3   13     -5.98      0.00
    1    3   13     -1.76      0.00
    2    3   13      1.19      0.00
    3    3   13     -6.00      0.00
    4    3   13      5.79      0.00
    5    3   13     -5.69      0.00
    6    3   13      1.86      0.00
    7    3   13      1.77      0.00
    8    3   13      4.12      0.00
    9    3   13     -2.72      0.00
   10    3   13      1.80      0.00
   11    3   13     -6.64      0.00
   12    3   13      1.23      0.00
   13    3   13     -1.53      0.00
   14    3   13      4.78      0.00
  -14    4   13      0.27      0.00
  -13    4   13      1.86      0.00
  -12    4   13     -1.88      0.00
  -11    4   13     -1.04      0.00
  -10    4   13      2.17      0.00
   -9    4   13     -2.54      0.00
   -8    4   13      4.20      0.00
   -7    4   13     -0.23      0.00
   -6    4   13      3.36      0.00
   -5    4   13      2.98      0.00
   -4    4   13     -1.39      0.00
   -3    4   13     -3.81      0.00
   -2    4   13     -2.36      0.00
   -1    4   13     -0.99      0.00
    0    4   13     -1.06      0.00
    1    4   13      9.30      0.00
    2    4   13     -1.29      0.00
    3    4   13      4.85      0.00
    4    4   13      0.24      0.00
    5    4   13     -0.69      0.00
    6    4   13      4.37      0.00
    7    4   13     -2.25      0.00
    8    4   13     -2.39      0.00
    9    4   13     -3.62      0.00
   10    4   13     -2.71      0.00
   11    4   13     -0.28      0.00
   12    4   13      2.17      0.00
   13    4   13      4.31      0.00
   14    4   13     -1.13      0.00
  -13    5   13      0.21      0.00
  -12    5   13      0.94      0.00
  -11    5   13      2.38      0.00
  -10    5   13     -2.96      0.00
   -9    5   13      1.48      0.00
   -8    5   13     -0.11      0.00
   -7    5   13     -3.35      0.00
   -6    5   13      0.83      0.00
   -5    5   13     -4.51      0.00
   -4    5   13     -3.18      0.00
   -3    5   13      0.54      0.00
   -2    5   13      3.98      0.00
   -1    5   13      2.60      0.00
    0    5   13      5.02      0.00
    1    5   13      2.79      0.00
    2    5   13     -3.90      0.00
    3    5   13      5.49      0.00
    4    5   13     -8.31      0.00
    5    5   13      2.63      0.00
    6    5   13     -6.31      0.00
    7    5   13     -2.18      0.00
    8    5   13     -3.93      0.00
    9    5   13      0.69      0.00
   10    5   13      0.41      0.00
   11    5   13      3.42      0.00
   12    5   13      0.28      0.00
   13    5   13     -2.27      0.00
   14    5   13     -2.21      0.00
  -13    6   13     -1.40      0.00
  -12    6   13     -0.41      0.00
  -11    6   13     -1.02      0.00
  -10    6   13      0.36      0.00
   -9    6   13      3.34      0.00
   -8    6   13     -4.48      0.00
   -7    6   13      3.07      0.00
   -6    6   13     -1.52      0.00
   -5    6   13     -1.74      0.00
   -4    6   13      2.94      0.00
   -3    6   13      3.77      0.00
   -2    6   13      1.83      0.00
   -1    6   13     -1.31      0.00
    0    6   13      2.09      0.00
    1    6   13    -11.14      0.00
    2    6   13     -1.30      0.00
    3    6   13     -8.78      0.00
    4    6   13     -0.05      0.00
    5    6   13      1.03      0.00
    6    6   13     -0.94      0.00
    7    6   13     -0.24      0.00
    8    6   13      1.67      0.00
    9    6   13      3.49      0.00
   10    6   13      2.25      0.00
   11    6   13      7.87      0.00
   12    6   13      0.55      0.00
   13    6   13      5.99      0.00
  -13    7   13      0.26      0.00
  -12    7   13      2.22      0.00
  -11    7   13     -0.28      0.00
  -10    7   13      1.56      0.00
   -9    7   13     -3.63      0.00
   -8    7   13      1.60      0.00
   -7    7   13     -1.51      0.00
   -6    7   13     -1.35      0.00
   -5    7   13      1.81      0.00
   -4    7   13      3.25      0.00
   -3    7   13     -1.00      0.00
   -2    7   13     -2.57      0.00
   -1    7   13     -2.09      0.00
    0    7   13     -3.93      0.00
    1    7   13     -2.43      0.00
    2    7   13      7.21      0.00
    3    7   13      1.68      0.00
    4    7   13      8.29      0.00
    5    7   13     -1.58      0.00
    6    7   13      3.62      0.00
    7    7   13      3.45      0.00
    8    7   13      3.51      0.00
    9    7   13      3.16      0.00
   10    7   13      4.39      0.00
   11    7   13     -2.35      0.00
   12    7   13     -3.96      0.00
   13    7   13     -0.22      0.00
  -12    8   13     -1.25      0.00
  -11    8   13      0.49      0.00
  -10    8   13      0.84      0.00
   -9    8   13      0.18      0.00
   -8    8   13      0.35      0.00
   -7    8   13      1.12      0.00
   -6    8   13      0.95      0.00
   -5    8   13      3.61      0.00
   -4    8   13     -0.35      0.00
   -3    8   13     -3.55      0.00
   -2    8   13     -1.28      0.00
   -1    8   13      1.18      0.00
    0    8   13     -5.73      0.00
    1    8   13      7.65      0.00
    2    8   13     -0.89      0.00
    3    8   13      1.60      0.00
    4    8   13      1.40      0.00
    5    8   13     -0.78      0.00
    6    8   13      3.96      0.00
    7    8   13     -1.28      0.00
    8    8   13      4.44      0.00
    9    8   13     -5.47      0.00
   10    8   13     -6.14      0.00
   11    8   13    -14.39      0.00
   12    8   13      0.68      0.00
   13    8   13    -11.67      0.00
  -11    9   13     -0.76      0.00
  -10    9   13     -1.28      0.00
   -9    9   13     -2.94      0.00
   -8    9   13      1.94      0.00
   -7    9   13     -0.71      0.00
   -6    9   13      3.59      0.00
   -5    9   13     -0.34      0.00
   -4    9   13     -3.85      0.00
   -3    9   13      1.35      0.00
   -2    9   13      1.27      0.00
   -1    9   13     -1.37      0.00
    0    9   13      6.81      0.00
    1    9   13      5.14      0.00
    2    9   13     -3.85      0.00
    3    9   13      1.49      0.00
    4    9   13     -8.73      0.00
    5    9   13     -1.09      0.00
    6    9   13     -6.77      0.00
    7    9   13     -2.97      0.00
    8    9   13     -6.85      0.00
    9    9   13     -4.81      0.00
   10    9   13      2.86      0.00
   11    9   13     10.12      0.00
   12    9   13      6.03      0.00
  -11   10   13      0.83      0.00
  -10   10   13     -3.22      0.00
   -9   10   13      6.29      0.00
   -8   10   13     -0.21      0.00
   -7   10   13      2.07      0.00
   -6   10   13     -2.27      0.00
   -5   10   13     -4.71      0.00
   -4   10   13     -0.21      0.00
   -3   10   13      0.32      0.00
   -2   10   13      0.43      0.00
   -1   10   13      1.20      0.00
    0   10   13      3.29      0.00
    1   10   13     -8.58      0.00
    2   10   13     -1.35      0.00
    3   10   13     -0.96      0.00
    4   10   13      0.36      0.00
    5   10   13      3.06      0.00
    6   10   13      1.48      0.00
    7   10   13      6.75      0.00
    8   10   13     -0.10      0.00
    9   10   13     11.46      0.00
   10   10   13      1.46      0.00
   11   10   13      1.48      0.00
   12   10   13     -1.83      0.00
  -10   11   13      2.92      0.00
   -9   11   13     -0.66      0.00
   -8   11   13     -2.73      0.00
   -7   11   13      0.22      0.00
   -6   11   13     -1.01      0.00
   -5   11   13      4.48      0.00
   -4   11   13      1.99      0.00
   -3   11   13      2.62      0.00
   -2   11   13     -1.32      0.00
   -1   11   13      3.14      0.00
    0   11   13     -5.34      0.00
    1   11   13      0.88      0.00
    2   11   13      5.50      0.00
    3   11   13     -2.20      0.00
    4   11   13      4.71      0.00
    5   11   13      2.66      0.00
    6   11   13      0.64      0.00
    7   11   13     -1.37      0.00
    8   11   13      1.58      0.00
    9   11   13     -2.66      0.00
   10   11   13     -3.76      0.00
   11   11   13     -0.07      0.00
   -9   12   13     -1.43      0.00
   -8   12   13      2.13      0.00
   -7   12   13      0.33      0.00
   -6   12   13      0.29      0.00
   -5   12   13     -0.87      0.00
   -4   12   13      2.32      0.00
   -3   12   13     -1.16      0.00
   -2   12   13      1.61      0.00
   -1   12   13     -3.10      0.00
    0   12   13     -1.64      0.00
    1   12   13      2.05      0.00
    2   12   13     -4.34      0.00
    3   12   13      1.61      0.00
    4   12   13     -0.68      0.00
    5   12   13     -6.06      0.00
    6   12   13      1.19      0.00
    7   12   13     -0.56      0.00
    8   12   13      0.00      0.00
    9   12   13     -0.70      0.00
   10   12   13     -1.77      0.00
   -8   13   13     -0.75      0.00
   -7   13   13     -3.10      0.00
   -6   13   13     -0.63      0.00
   -5   13   13     -0.94      0.00
   -4   13   13     -3.47      0.00
   -3   13   13     -3.76      0.00
   -2   13   13     -0.30      0.00
   -1   13   13      0.21      0.00
    0   13   13      5.29      0.00
    1   13   13      1.64      0.00
    2   13   13      5.06      0.00
    3   13   13      1.78      0.00
    4   13   13      3.74      0.00
    5   13   13      5.07      0.00
    6   13   13      5.35      0.00
    7   13   13     -3.16      0.00
    8   13   13      1.62      0.00
    9   13   13     -5.41      0.00
   -7   14   13      1.07      0.00
   -6   14   13      0.65      0.00
   -5   14   13     -0.58      0.00
   -4   14   13     -1.51      0.00
   -3   14   13      3.43      0.00
   -2   14   13      2.73      0.00
   -1   14   13      1.95      0.00
    0   14   13     -0.64      0.00
    1   14   13      0.00      0.00
    2   14   13     -6.29      0.00
    3   14   13     -1.32      0.00
    4   14   13     -4.78      0.00
    5   14   13     -3.30      0.00
    6   14   13     -8.60      0.00
    7   14   13     -0.55      0.00
    8   14   13     -2.56      0.00
   -5   15   13     -1.43      0.00
   -4   15   13      2.63      0.00
   -3   15   13     -0.71      0.00
   -2   15   13     -6.20      0.00
   -1   15   13     -5.79      0.00
    0   15   13     -4.25      0.00
    1   15   13     -8.14      0.00
    2   15   13      2.52      0.00
    3   15   13     -0.02      0.00
    4   15   13     -4.14      0.00
    5   15   13     -0.08      0.00
    6   15   13     -0.95      0.00
   -2   16   13      3.59      0.00
   -1   16   13      2.21      0.00
    0   16   13      1.35      0.00
    1   16   13      5.08      0.00
    2   16   13      0.89      0.00
    3   16   13     -3.44      0.00
   -5  -13   14      1.47      0.00
   -4  -13   14     -3.84      0.00
   -3  -13   14      0.82      0.00
   -2  -13   14     -1.89      0.00
   -1  -13   14      0.19      0.00
    0  -13   14     -3.78      0.00
    1  -13   14      1.39      0.00
    2  -13   14     -7.89      0.00
    3  -13   14      3.40      0.00
   -7  -12   14     -0.50      0.00
   -6  -12   14     -0.61      0.00
   -5  -12   14     -1.89      0.00
   -4  -12   14     -0.37      0.00
   -3  -12   14     -1.43      0.00
   -2  -12   14      1.09      0.00
   -1  -12   14      1.03      0.00
    0  -12   14      5.92      0.00
    1  -12   14     -0.28      0.00
    2  -12   14      8.17      0.00
    3  -12   14     -0.67      0.00
    4  -12   14      0.83      0.00
    5  -12   14     -1.82      0.00
   -8  -11   14      2.26      0.00
   -7  -11   14      0.02      0.00
   -6  -11   14     -0.22      0.00
   -5  -11   14     -3.57      0.00
   -4  -11   14      1.19      0.00
   -3  -11   14      3.32      0.00
   -2  -11   14     -0.29      0.00
   -1  -11   14      1.90      0.00
    0  -11   14     -3.52      0.00
    1  -11   14     -0.05      0.00
    2  -11   14     -0.97      0.00
    3  -11   14     -1.53      0.00
    4  -11   14      0.47      0.00
    5  -11   14      0.35      0.00
    6  -11   14     -2.73      0.00
    7  -11   14      3.31      0.00
   -9  -10   14     -1.12      0.00
   -8  -10   14      0.15      0.00
   -7  -10   14      2.13      0.00
   -6  -10   14     -1.15      0.00
   -5  -10   14      6.52      0.00
   -4  -10   14      2.36      0.00
   -3  -10   14     -2.61      0.00
   -2  -10   14      3.56      0.00
   -1  -10   14     -2.23      0.00
    0  -10   14      3.10      0.00
    1  -10   14     -1.21      0.00
    2  -10   14     -1.72      0.00
    3  -10   14     -3.62      0.00
    4  -10   14      1.52      0.00
    5  -10   14     -2.49      0.00
    6  -10   14      6.23      0.00
    7  -10   14     -1.87      0.00
    8  -10   14      1.40      0.00
  -10   -9   14     -1.85      0.00
   -9   -9   14     -0.02      0.00
   -8   -9   14     -1.12      0.00
   -7   -9   14     -3.15      0.00
   -6   -9   14      1.49      0.00
   -5   -9   14     -0.06      0.00
   -4   -9   14     -2.77      0.00
   -3   -9   14      2.81      0.00
   -2   -9   14     -2.79      0.00
   -1   -9   14     -2.53      0.00
    0   -9   14     -1.98      0.00
    1   -9   14     -1.84      0.00
    2   -9   14     -0.93      0.00
    3   -9   14      6.18      0.00
    4   -9   14     -0.62      0.00
    5   -9   14      3.26      0.00
    6   -9   14     -2.57      0.00
    7   -9   14      0.61      0.00
    8   -9   14     -2.02      0.00
    9   -9   14     -2.37      0.00
  -11   -8   14     -1.22      0.00
  -10   -8   14      0.56      0.00
   -9   -8   14      1.23      0.00
   -8   -8   14      2.22      0.00
   -7   -8   14      0.89      0.00
   -6   -8   14      3.20      0.00
   -5   -8   14     -1.65      0.00
   -4   -8   14     -1.01      0.00
   -3   -8   14      1.57      0.00
   -2   -8   14     -6.69      0.00
   -1   -8   14      5.01      0.00
    0   -8   14     -4.48      0.00
    1   -8   14      2.01      0.00
    2   -8   14      1.05      0.00
    3   -8   14      0.39      0.00
    4   -8   14     -3.02      0.00
    5   -8   14      1.71      0.00
    6   -8   14     -0.84      0.00
    7   -8   14     -1.74      0.00
    8   -8   14      3.92      0.00
    9   -8   14      1.48      0.00
   10   -8   14      2.55      0.00
  -12   -7   14      1.66      0.00
  -11   -7   14      0.84      0.00
  -10   -7   14      0.66      0.00
   -9   -7   14      0.04      0.00
   -8   -7   14     -2.38      0.00
   -7   -7   14     -0.33      0.00
   -6   -7   14     -1.37      0.00
   -5   -7   14     -5.62      0.00
   -4   -7   14      4.27      0.00
   -3   -7   14     -7.13      0.00
   -2   -7   14      5.73      0.00
   -1   -7   14     -0.75      0.00
    0   -7   14      0.49      0.00
    1   -7   14      5.21      0.00
    2   -7   14     -0.77      0.00
    3   -7   14     -0.37      0.00
    4   -7   14     -1.64      0.00
    5   -7   14      0.23      0.00
    6   -7   14     -6.24      0.00
    7   -7   14      3.08      0.00
    8   -7   14     -3.12      0.00
    9   -7   14     -4.79      0.00
   10   -7   14      1.62      0.00
   11   -7   14     -3.96      0.00
  -12   -6   14     -0.02      0.00
  -11   -6   14     -2.21      0.00
  -10   -6   14      0.66      0.00
   -9   -6   14     -1.80      0.00
   -8   -6   14     -0.02      0.00
   -7   -6   14      0.74      0.00
   -6   -6   14     -4.89      0.00
   -5   -6   14      3.41      0.00
   -4   -6   14     -3.33      0.00
   -3   -6   14     -0.28      0.00
   -2   -6   14      2.94      0.00
   -1   -6   14     -3.81      0.00
    0   -6   14      6.45      0.00
    1   -6   14     -4.07      0.00
    2   -6   14     -0.76      0.00
    3   -6   14     -5.48      0.00
    4   -6   14      3.55      0.00
    5   -6   14     -5.38      0.00
    6   -6   14      4.80      0.00
    7   -6   14     -0.14      0.00
    8   -6   14     -2.83      0.00
    9   -6   14      5.90      0.00
   10   -6   14     -0.46      0.00
   11   -6   14      2.97      0.00
  -12   -5   14     -1.78      0.00
  -11   -5   14      0.47      0.00
  -10   -5   14     -2.02      0.00
   -9   -5   14      1.57      0.00
   -8   -5   14     -0.93      0.00
   -7   -5   14      0.20      0.00
   -6   -5   14      3.01      0.00
   -5   -5   14      2.93      0.00
   -4   -5   14      1.16      0.00
   -3   -5   14      6.07      0.00
   -2   -5   14      1.15      0.00
   -1   -5   14     -0.88      0.00
    0   -5   14     -0.28      0.00
    1   -5   14     -5.93      0.00
    2   -5   14     -0.44      0.00
    3   -5   14      3.09      0.00
    4   -5   14      0.09      0.00
    5   -5   14      0.13      0.00
    6   -5   14      4.46      0.00
    7   -5   14     -2.53      0.00
    8   -5   14      2.86      0.00
    9   -5   14      0.38      0.00
   10   -5   14     -3.93      0.00
   11   -5   14     -5.05      0.00
   12   -5   14     -1.57      0.00
  -13   -4   14      1.02      0.00
  -12   -4   14     -2.16      0.00
  -11   -4   14      2.91      0.00
  -10   -4   14      1.36      0.00
   -9   -4   14     -0.01      0.00
   -8   -4   14      3.44      0.00
   -7   -4   14      1.14      0.00
   -6   -4   14      0.69      0.00
   -5   -4   14     -1.79      0.00
   -4   -4   14     -1.82      0.00
   -3   -4   14     -1.96      0.00
   -2   -4   14     -8.86      0.00
   -1   -4   14      1.79      0.00
    0   -4   14     -1.86      0.00
    1   -4   14      2.04      0.00
    2   -4   14      7.70      0.00
    3   -4   14      0.80      0.00
    4   -4   14      1.27      0.00
    5   -4   14      3.82      0.00
    6   -4   14     -0.57      0.00
    7   -4   14     -1.54      0.00
    8   -4   14      4.82      0.00
    9   -4   14     -3.47      0.00
   10   -4   14     -0.45      0.00
   11   -4   14      6.16      0.00
   12   -4   14     -2.89      0.00
  -13   -3   14      0.51      0.00
  -12   -3   14      3.01      0.00
  -11   -3   14     -1.83      0.00
  -10   -3   14     -2.34      0.00
   -9   -3   14      0.20      0.00
   -8   -3   14     -3.70      0.00
   -7   -3   14     -2.58      0.00
   -6   -3   14     -3.19      0.00
   -5   -3   14     -0.93      0.00
   -4   -3   14      0.18      0.00
   -3   -3   14     -3.76      0.00
   -2   -3   14      3.04      0.00
   -1   -3   14      4.56      0.00
    0   -3   14     -5.22      0.00
    1   -3   14      7.10      0.00
    2   -3   14     -5.06      0.00
    3   -3   14     -2.09      0.00
    4   -3   14     -1.20      0.00
    5   -3   14     -0.25      0.00
    6   -3   14     -4.92      0.00
    7   -3   14      2.28      0.00
    8   -3   14     -4.96      0.00
    9   -3   14     -4.10      0.00
   10   -3   14      3.68      0.00
   11   -3   14     -4.42      0.00
   12   -3   14      1.32      0.00
   13   -3   14      0.92      0.00
  -13   -2   14     -2.74      0.00
  -12   -2   14     -0.41      0.00
  -11   -2   14     -0.29      0.00
  -10   -2   14      3.73      0.00
   -9   -2   14     -1.59      0.00
   -8   -2   14      0.47      0.00
   -7   -2   14     -0.06      0.00
   -6   -2   14      2.29      0.00
   -5   -2   14      0.40      0.00
   -4   -2   14     -0.56      0.00
   -3   -2   14      5.27      0.00
   -2   -2   14      5.33      0.00
   -1   -2   14     -1.21      0.00
    0   -2   14      4.25      0.00
    1   -2   14      1.92      0.00
    2   -2   14     -5.96      0.00
    3   -2   14      2.83      0.00
    4   -2   14     -1.23      0.00
    5   -2   14     -3.07      0.00
    6   -2   14     -0.38      0.00
    7   -2   14      1.51      0.00
    8   -2   14     -2.69      0.00
    9   -2   14      5.10      0.00
   10   -2   14     -1.34      0.00
   11   -2   14      0.74      0.00
   12   -2   14      1.56      0.00
   13   -2   14      0.63      0.00
  -13   -1   14      0.01      0.00
  -12   -1   14      2.47      0.00
  -11   -1   14     -0.48      0.00
  -10   -1   14     -1.86      0.00
   -9   -1   14      1.34      0.00
   -8   -1   14      2.00      0.00
   -7   -1   14      2.00      0.00
   -6   -1   14      1.41      0.00
   -5   -1   14      0.30      0.00
   -3   -1   14      0.54      0.00
   -2   -1   14     -2.00      0.00
   -1   -1   14     -5.52      0.00
    0   -1   14      2.26      0.00
    1   -1   14    -11.23      0.00
    2   -1   14      1.90      0.00
    3   -1   14      0.12      0.00
    4   -1   14     -1.05      0.00
    5   -1   14      1.46      0.00
    6   -1   14      5.78      0.00
    7   -1   14     -3.39      0.00
    8   -1   14      2.34      0.00
    9   -1   14      2.44      0.00
   10   -1   14      1.05      0.00
   11   -1   14      4.21      0.00
   12   -1   14      4.17      0.00
   13   -1   14     -1.23      0.00
  -13    0   14      1.26      0.00
  -12    0   14     -2.56      0.00
  -11    0   14      0.00      0.00
  -10    0   14      0.04      0.00
   -9    0   14     -0.44      0.00
   -8    0   14     -0.52      0.00
   -7    0   14     -1.11      0.00
   -6    0   14     -0.92      0.00
   -5    0   14     -0.38      0.00
   -4    0   14     -1.69      0.00
   -3    0   14     -4.11      0.00
   -2    0   14     -3.60      0.00
   -1    0   14      1.99      0.00
    0    0   14     -2.04      0.00
    1    0   14      1.59      0.00
    2    0   14      8.24      0.00
    3    0   14     -0.26      0.00
    4    0   14      1.54      0.00
    5    0   14      3.60      0.00
    6    0   14     -4.12      0.00
    7    0   14      0.35      0.00
    8    0   14      4.19      0.00
    9    0   14     -4.24      0.00
   10    0   14      0.28      0.00
   11    0   14     -4.75      0.00
   12    0   14     -4.59      0.00
   13    0   14     -4.62      0.00
  -13    1   14     -0.94      0.00
  -12    1   14     -1.42      0.00
  -11    1   14     -0.98      0.00
  -10    1   14      0.95      0.00
   -9    1   14     -0.57      0.00
   -8    1   14     -1.08      0.00
   -7    1   14      1.31      0.00
   -6    1   14     -0.88      0.00
   -5    1   14      2.11      0.00
   -4    1   14     -0.06      0.00
   -3    1   14      2.87      0.00
   -2    1   14      2.80      0.00
   -1    1   14      8.94      0.00
    0    1   14     -0.55      0.00
    1    1   14     10.00      0.00
    2    1   14     -1.38      0.00
    3    1   14     -5.26      0.00
    4    1   14      2.44      0.00
    5    1   14     -4.15      0.00
    6    1   14     -2.44      0.00
    7    1   14      4.02      0.00
    8    1   14     -2.39      0.00
    9    1   14      0.64      0.00
   10    1   14      2.38      0.00
   11    1   14     -0.14      0.00
   12    1   14      2.42      0.00
   13    1   14      6.26      0.00
  -13    2   14      2.01      0.00
  -12    2   14      2.89      0.00
  -11    2   14      2.82      0.00
  -10    2   14     -0.37      0.00
   -9    2   14     -1.21      0.00
   -8    2   14      1.90      0.00
   -7    2   14     -1.33      0.00
   -6    2   14      0.81      0.00
   -5    2   14      0.36      0.00
   -4    2   14     -0.13      0.00
   -3    2   14     -0.52      0.00
   -2    2   14      3.63      0.00
   -1    2   14    -10.40      0.00
    0    2   14     -0.57      0.00
    1    2   14     -6.55      0.00
    2    2   14     -7.88      0.00
    3    2   14      4.01      0.00
    4    2   14     -2.63      0.00
    5    2   14     -2.00      0.00
    6    2   14      3.61      0.00
    7    2   14     -0.03      0.00
    8    2   14     -2.82      0.00
    9    2   14      2.29      0.00
   10    2   14     -2.34      0.00
   11    2   14      2.76      0.00
   12    2   14     -0.32      0.00
   13    2   14     -1.29      0.00
  -13    3   14      0.64      0.00
  -12    3   14     -1.77      0.00
  -11    3   14      0.06      0.00
  -10    3   14     -1.59      0.00
   -9    3   14      3.89      0.00
   -8    3   14      0.61      0.00
   -7    3   14      0.94      0.00
   -6    3   14      0.16      0.00
   -5    3   14      0.29      0.00
   -4    3   14     -4.92      0.00
   -3    3   14      0.33      0.00
   -2    3   14     -7.34      0.00
   -1    3   14     -1.82      0.00
    0    3   14      1.96      0.00
    1    3   14     -0.82      0.00
    2    3   14     -0.62      0.00
    3    3   14      3.59      0.00
    4    3   14     -3.00      0.00
    5    3   14      5.48      0.00
    6    3   14      1.72      0.00
    7    3   14     -2.01      0.00
    8    3   14      0.59      0.00
    9    3   14      4.36      0.00
   10    3   14     -1.72      0.00
   11    3   14      1.25      0.00
   12    3   14     -0.11      0.00
   13    3   14     -3.65      0.00
  -13    4   14     -2.24      0.00
  -12    4   14      1.19      0.00
  -11    4   14     -2.42      0.00
  -10    4   14      3.12      0.00
   -9    4   14     -2.39      0.00
   -8    4   14     -1.84      0.00
   -7    4   14     -3.18      0.00
   -6    4   14      0.94      0.00
   -5    4   14     -6.44      0.00
   -4    4   14      4.52      0.00
   -3    4   14     -2.08      0.00
   -2    4   14      0.63      0.00
   -1    4   14      4.20      0.00
    0    4   14     -0.93      0.00
    1    4   14     -3.70      0.00
    2    4   14      8.99      0.00
    3    4   14     -1.85      0.00
    4    4   14      4.93      0.00
    5    4   14      1.70      0.00
    6    4   14     -0.89      0.00
    7    4   14     -1.94      0.00
    8    4   14      4.04      0.00
    9    4   14     -6.83      0.00
   10    4   14     -4.12      0.00
   11    4   14     -0.52      0.00
   12    4   14     -7.55      0.00
   13    4   14      0.87      0.00
  -13    5   14     -1.39      0.00
  -12    5   14     -1.00      0.00
  -11    5   14      0.78      0.00
  -10    5   14     -2.69      0.00
   -9    5   14     -0.13      0.00
   -8    5   14     -1.08      0.00
   -7    5   14      3.43      0.00
   -6    5   14      0.13      0.00
   -5    5   14      2.43      0.00
   -4    5   14      3.19      0.00
   -3    5   14      0.65      0.00
   -2    5   14      2.90      0.00
   -1    5   14      4.80      0.00
    0    5   14     -0.26      0.00
    1    5   14      7.14      0.00
    2    5   14      0.43      0.00
    3    5   14     -4.36      0.00
    4    5   14      1.86      0.00
    5    5   14     -5.30      0.00
    6    5   14     -2.67      0.00
    7    5   14      1.95      0.00
    8    5   14     -1.27      0.00
    9    5   14     -1.75      0.00
   10    5   14      7.45      0.00
   11    5   14     -1.85      0.00
   12    5   14      4.58      0.00
   13    5   14      5.37      0.00
  -12    6   14     -0.67      0.00
  -11    6   14     -0.07      0.00
  -10    6   14     -1.07      0.00
   -9    6   14      0.50      0.00
   -8    6   14      0.57      0.00
   -7    6   14      1.89      0.00
   -6    6   14     -2.99      0.00
   -5    6   14      3.95      0.00
   -4    6   14     -2.17      0.00
   -3    6   14     -0.98      0.00
   -2    6   14      2.81      0.00
   -1    6   14     -4.96      0.00
    0    6   14      0.26      0.00
    1    6   14      1.54      0.00
    2    6   14     -5.22      0.00
    3    6   14      0.12      0.00
    4    6   14     -2.90      0.00
    5    6   14     -4.66      0.00
    6    6   14      2.54      0.00
    7    6   14      0.47      0.00
    8    6   14     -0.32      0.00
    9    6   14      1.51      0.00
   10    6   14     -0.65      0.00
   11    6   14     -5.64      0.00
   12    6   14      0.02      0.00
   13    6   14     -5.56      0.00
  -12    7   14      0.32      0.00
  -11    7   14      0.24      0.00
  -10    7   14      2.87      0.00
   -9    7   14      1.94      0.00
   -8    7   14      3.48      0.00
   -7    7   14     -1.67      0.00
   -6    7   14      1.61      0.00
   -5    7   14      0.52      0.00
   -4    7   14     -3.98      0.00
   -3    7   14      1.34      0.00
   -2    7   14     -3.94      0.00
   -1    7   14     -1.76      0.00
    0    7   14      0.06      0.00
    1    7   14     -6.31      0.00
    2    7   14     -5.81      0.00
    3    7   14      6.20      0.00
    4    7   14     -4.45      0.00
    5    7   14      9.72      0.00
    6    7   14      1.12      0.00
    7    7   14      0.37      0.00
    8    7   14     -3.59      0.00
    9    7   14      1.40      0.00
   10    7   14     -1.93      0.00
   11    7   14      1.76      0.00
   12    7   14      7.38      0.00
   13    7   14      0.91      0.00
  -11    8   14      0.85      0.00
  -10    8   14      0.04      0.00
   -9    8   14     -1.98      0.00
   -8    8   14     -3.61      0.00
   -7    8   14     -3.09      0.00
   -6    8   14     -1.22      0.00
   -5    8   14     -5.38      0.00
   -4    8   14     -1.28      0.00
   -3    8   14      1.61      0.00
   -2    8   14     -1.00      0.00
   -1    8   14      5.87      0.00
    0    8   14     -0.96      0.00
    1    8   14      4.16      0.00
    2    8   14      9.70      0.00
    3    8   14     -3.43      0.00
    4    8   14      4.74      0.00
    5    8   14     -1.33      0.00
    6    8   14     -5.02      0.00
    7    8   14     -4.92      0.00
    8    8   14      0.13      0.00
    9    8   14      0.00      0.00
   10    8   14     -3.23      0.00
   11    8   14      9.25      0.00
   12    8   14     -3.73      0.00
  -11    9   14      0.19      0.00
  -10    9   14     -0.98      0.00
   -9    9   14     -1.59      0.00
   -8    9   14     -1.82      0.00
   -7    9   14     -0.84      0.00
   -6    9   14     -1.32      0.00
   -5    9   14     -0.33      0.00
   -4    9   14      5.09      0.00
   -3    9   14     -0.31      0.00
   -2    9   14      1.70      0.00
   -1    9   14     -4.69      0.00
    0    9   14      1.08      0.00
    1    9   14     -2.02      0.00
    2    9   14     -3.36      0.00
    3    9   14      2.10      0.00
    4    9   14      0.73      0.00
    5    9   14     -1.01      0.00
    6    9   14      0.67      0.00
    7    9   14      6.58      0.00
    8    9   14      2.41      0.00
    9    9   14     -0.14      0.00
   10    9   14      1.44      0.00
   11    9   14     -4.42      0.00
   12    9   14     -7.73      0.00
  -10   10   14     -2.33      0.00
   -9   10   14      0.45      0.00
   -8   10   14      2.52      0.00
   -7   10   14      2.45      0.00
   -6   10   14      4.04      0.00
   -5   10   14      4.67      0.00
   -4   10   14      2.04      0.00
   -3   10   14     -2.62      0.00
   -2   10   14      0.58      0.00
   -1   10   14      1.33      0.00
    0   10   14      0.83      0.00
    1   10   14     -1.86      0.00
    2   10   14      0.86      0.00
    3   10   14     -6.13      0.00
    4   10   14     -2.23      0.00
    5   10   14     -8.65      0.00
    6   10   14      0.49      0.00
    7   10   14     -6.24      0.00
    8   10   14     -3.70      0.00
    9   10   14     -0.30      0.00
   10   10   14      3.17      0.00
   11   10   14      1.58      0.00
   -9   11   14      1.76      0.00
   -8   11   14      0.75      0.00
   -7   11   14      0.53      0.00
   -6   11   14     -0.70      0.00
   -5   11   14     -1.61      0.00
   -4   11   14     -4.11      0.00
   -3   11   14      0.23      0.00
   -2   11   14      0.45      0.00
   -1   11   14     -1.80      0.00
    0   11   14     -4.19      0.00
    1   11   14      0.99      0.00
    2   11   14     -2.07      0.00
    3   11   14      3.08      0.00
    4   11   14     -2.12      0.00
    5   11   14      8.32      0.00
    6   11   14      3.78      0.00
    7   11   14      3.41      0.00
    8   11   14      9.53      0.00
    9   11   14      0.55      0.00
   10   11   14      4.55      0.00
   -8   12   14     -1.20      0.00
   -7   12   14      2.13      0.00
   -6   12   14      0.73      0.00
   -5   12   14     -0.74      0.00
   -4   12   14      2.80      0.00
   -3   12   14      0.20      0.00
   -2   12   14      0.03      0.00
   -1   12   14      0.97      0.00
    0   12   14      4.96      0.00
    1   12   14      3.22      0.00
    2   12   14      0.22      0.00
    3   12   14      1.67      0.00
    4   12   14      4.13      0.00
    5   12   14      0.85      0.00
    6   12   14     -1.37      0.00
    7   12   14      1.26      0.00
    8   12   14     -5.83      0.00
    9   12   14      1.50      0.00
   -7   13   14     -0.60      0.00
   -6   13   14     -2.67      0.00
   -5   13   14      3.79      0.00
   -4   13   14     -0.75      0.00
   -3   13   14      1.85      0.00
   -2   13   14     -0.96      0.00
   -1   13   14     -0.38      0.00
    0   13   14     -3.33      0.00
    1   13   14     -2.57      0.00
    2   13   14      1.75      0.00
    3   13   14     -1.67      0.00
    4   13   14     -0.67      0.00
    5   13   14     -5.75      0.00
    6   13   14     -2.67      0.00
    7   13   14     -1.68      0.00
    8   13   14     -0.33      0.00
   -6   14   14     -0.29      0.00
   -5   14   14     -1.25      0.00
   -4   14   14     -6.83      0.00
   -3   14   14      1.08      0.00
   -2   14   14     -2.64      0.00
   -1   14   14      2.09      0.00
    0   14   14      4.08      0.00
    1   14   14      2.23      0.00
    2   14   14     -0.16      0.00
    3   14   14      3.76      0.00
    4   14   14      0.58      0.00
    5   14   14      6.67      0.00
    6   14   14      6.83      0.00
    7   14   14      3.34      0.00
   -4   15   14      7.05      0.00
   -3   15   14      0.11      0.00
   -2   15   14      4.46      0.00
   -1   15   14      3.31      0.00
    0   15   14      1.31      0.00
    1   15   14     -3.22      0.00
    2   15   14      2.72      0.00
    3   15   14     -3.22      0.00
    4   15   14     -0.73      0.00
    5   15   14      0.64      0.00
   -5  -12   15     -1.76      0.00
   -4  -12   15     -5.40      0.00
   -3  -12   15     -4.87      0.00
   -2  -12   15     -2.94      0.00
   -1  -12   15     -4.80      0.00
    0  -12   15     -2.54      0.00
    1  -12   15     -3.11      0.00
    2  -12   15      2.08      0.00
    3  -12   15     -0.56      0.00
    4  -12   15      5.04      0.00
   -7  -11   15     -0.88      0.00
   -6  -11   15      3.16      0.00
   -5  -11   15     -1.81      0.00
   -4  -11   15     -0.14      0.00
   -3  -11   15      6.50      0.00
   -2  -11   15      0.61      0.00
   -1  -11   15      8.41      0.00
    0  -11   15      3.19      0.00
    1  -11   15      8.53      0.00
    2  -11   15     -4.64      0.00
    3  -11   15      4.08      0.00
    4  -11   15     -7.68      0.00
    5  -11   15     -2.36      0.00
    6  -11   15     -2.39      0.00
   -8  -10   15      0.94      0.00
   -7  -10   15     -0.56      0.00
   -6  -10   15     -3.05      0.00
   -5  -10   15     -1.78      0.00
   -4  -10   15      4.88      0.00
   -3  -10   15      0.45      0.00
   -2  -10   15      2.24      0.00
   -1  -10   15     -0.73      0.00
    0  -10   15     -1.24      0.00
    1  -10   15     -3.68      0.00
    2  -10   15      1.09      0.00
    3  -10   15     -0.09      0.00
    4  -10   15     -1.57      0.00
    5  -10   15      2.14      0.00
    6  -10   15      2.59      0.00
    7  -10   15     -1.88      0.00
   -9   -9   15      2.49      0.00
   -8   -9   15      1.88      0.00
   -7   -9   15      2.20      0.00
   -6   -9   15      4.19      0.00
   -5   -9   15      2.91      0.00
   -4   -9   15      4.15      0.00
   -3   -9   15     -4.11      0.00
   -2   -9   15      0.75      0.00
   -1   -9   15     -1.21      0.00
    0   -9   15     -0.47      0.00
    1   -9   15     -1.76      0.00
    2   -9   15      1.39      0.00
    3   -9   15     -4.54      0.00
    4   -9   15      5.01      0.00
    5   -9   15      4.07      0.00
    6   -9   15     -0.38      0.00
    7   -9   15      6.67      0.00
    8   -9   15      1.16      0.00
  -10   -8   15     -0.83      0.00
   -9   -8   15     -0.53      0.00
   -8   -8   15     -1.60      0.00
   -7   -8   15     -0.37      0.00
   -6   -8   15     -0.63      0.00
   -5   -8   15      0.72      0.00
   -4   -8   15     -4.39      0.00
   -3   -8   15     -3.07      0.00
   -2   -8   15      0.23      0.00
   -1   -8   15     -3.98      0.00
    0   -8   15      0.73      0.00
    1   -8   15      1.35      0.00
    2   -8   15      2.30      0.00
    3   -8   15      0.13      0.00
    4   -8   15      6.02      0.00
    5   -8   15     -6.06      0.00
    6   -8   15      2.81      0.00
    7   -8   15     -4.89      0.00
    8   -8   15     -5.32      0.00
    9   -8   15     -4.72      0.00
  -11   -7   15      1.49      0.00
  -10   -7   15     -1.17      0.00
   -9   -7   15      1.68      0.00
   -8   -7   15     -2.22      0.00
   -7   -7   15      0.85      0.00
   -6   -7   15     -3.02      0.00
   -5   -7   15     -0.33      0.00
   -4   -7   15     -4.02      0.00
   -3   -7   15      3.89      0.00
   -2   -7   15      1.15      0.00
   -1   -7   15     -0.55      0.00
    0   -7   15      3.00      0.00
    1   -7   15     -1.36      0.00
    2   -7   15     -3.58      0.00
    3   -7   15      4.66      0.00
    4   -7   15     -5.93      0.00
    5   -7   15      0.18      0.00
    6   -7   15     -1.86      0.00
    7   -7   15     -1.18      0.00
    8   -7   15      0.31      0.00
    9   -7   15      7.18      0.00
   10   -7   15      0.67      0.00
  -11   -6   15     -3.58      0.00
  -10   -6   15      0.90      0.00
   -9   -6   15     -3.16      0.00
   -8   -6   15     -0.60      0.00
   -7   -6   15      0.72      0.00
   -6   -6   15      0.49      0.00
   -5   -6   15      0.63      0.00
   -4   -6   15      3.08      0.00
   -3   -6   15      7.25      0.00
   -2   -6   15     -4.67      0.00
   -1   -6   15      5.67      0.00
    0   -6   15     -2.97      0.00
    1   -6   15     -0.79      0.00
    2   -6   15      1.59      0.00
    3   -6   15     -1.01      0.00
    4   -6   15     -4.73      0.00
    5   -6   15      3.40      0.00
    6   -6   15     -1.66      0.00
    7   -6   15      0.42      0.00
    8   -6   15      4.36      0.00
    9   -6   15      0.55      0.00
   10   -6   15     -2.75      0.00
   11   -6   15      2.41      0.00
  -12   -5   15      0.06      0.00
  -11   -5   15     -0.78      0.00
  -10   -5   15      1.94      0.00
   -9   -5   15      0.23      0.00
   -8   -5   15      3.90      0.00
   -7   -5   15     -1.14      0.00
   -6   -5   15      1.32      0.00
   -5   -5   15     -2.18      0.00
   -4   -5   15      2.94      0.00
   -3   -5   15     -8.87      0.00
   -2   -5   15     -0.73      0.00
   -1   -5   15      0.38      0.00
    0   -5   15     -3.16      0.00
    1   -5   15      3.10      0.00
    2   -5   15     -0.56      0.00
    3   -5   15     -2.27      0.00
    4   -5   15      3.34      0.00
    5   -5   15      2.62      0.00
    6   -5   15     -2.20      0.00
    7   -5   15      4.84      0.00
    8   -5   15     -0.74      0.00
    9   -5   15     -3.83      0.00
   10   -5   15      3.27      0.00
   11   -5   15     -0.70      0.00
  -12   -4   15     -3.85      0.00
  -11   -4   15      1.65      0.00
  -10   -4   15      1.26      0.00
   -9   -4   15     -0.30      0.00
   -8   -4   15      1.79      0.00
   -7   -4   15     -0.26      0.00
   -6   -4   15     -0.83      0.00
   -5   -4   15      4.67      0.00
   -4   -4   15     -2.73      0.00
   -3   -4   15     -0.41      0.00
   -2   -4   15      5.91      0.00
   -1   -4   15     -5.63      0.00
    0   -4   15      1.48      0.00
    1   -4   15     -2.23      0.00
    2   -4   15      0.40      0.00
    3   -4   15     -2.04      0.00
    4   -4   15      5.44      0.00
    5   -4   15     -6.34      0.00
    6   -4   15      3.71      0.00
    7   -4   15     -0.96      0.00
    8   -4   15     -2.69      0.00
    9   -4   15     -1.88      0.00
   10   -4   15     -0.98      0.00
   11   -4   15     -6.33      0.00
   12   -4   15     -0.35      0.00
  -12   -3   15      2.79      0.00
  -11   -3   15      2.70      0.00
  -10   -3   15     -3.66      0.00
   -9   -3   15      0.65      0.00
   -8   -3   15     -3.93      0.00
   -7   -3   15     -2.52      0.00
   -6   -3   15      0.75      0.00
   -5   -3   15     -4.59      0.00
   -4   -3   15     -4.29      0.00
   -3   -3   15      3.84      0.00
   -2   -3   15     -3.27      0.00
   -1   -3   15      0.79      0.00
    0   -3   15      4.01      0.00
    1   -3   15      2.83      0.00
    2   -3   15     -0.59      0.00
    3   -3   15      5.95      0.00
    4   -3   15     -3.81      0.00
    5   -3   15     -0.50      0.00
    6   -3   15      2.95      0.00
    7   -3   15     -4.73      0.00
    8   -3   15     -0.05      0.00
    9   -3   15      2.75      0.00
   10   -3   15     -0.03      0.00
   11   -3   15      2.79      0.00
   12   -3   15      3.54      0.00
  -13   -2   15      3.01      0.00
  -12   -2   15     -1.87      0.00
  -11   -2   15     -3.22      0.00
  -10   -2   15     -0.84      0.00
   -9   -2   15      1.22      0.00
   -8   -2   15      0.21      0.00
   -7   -2   15      2.08      0.00
   -6   -2   15      0.78      0.00
   -5   -2   15     -1.80      0.00
   -4   -2   15      3.99      0.00
   -3   -2   15     -0.53      0.00
   -2   -2   15     -5.42      0.00
   -1   -2   15      2.89      0.00
    0   -2   15     -1.67      0.00
    1   -2   15     -4.12      0.00
    2   -2   15     -0.26      0.00
    3   -2   15     -3.03      0.00
    4   -2   15     -5.45      0.00
    5   -2   15      2.55      0.00
    6   -2   15     -3.73      0.00
    7   -2   15     -3.39      0.00
    8   -2   15      3.93      0.00
    9   -2   15     -0.55      0.00
   10   -2   15     -0.95      0.00
   11   -2   15      5.35      0.00
   12   -2   15     -3.42      0.00
  -13   -1   15     -2.05      0.00
  -12   -1   15      0.89      0.00
  -11   -1   15      2.24      0.00
  -10   -1   15      2.49      0.00
   -9   -1   15     -0.19      0.00
   -8   -1   15     -1.05      0.00
   -7   -1   15      1.64      0.00
   -6   -1   15     -1.74      0.00
   -5   -1   15      1.85      0.00
   -4   -1   15      2.66      0.00
   -3   -1   15     -4.78      0.00
   -2   -1   15      7.13      0.00
   -1   -1   15      1.07      0.00
    0   -1   15     -3.58      0.00
    1   -1   15      2.42      0.00
    2   -1   15      1.07      0.00
    3   -1   15     -0.93      0.00
    4   -1   15      3.38      0.00
    5   -1   15      3.96      0.00
    6   -1   15     -2.85      0.00
    7   -1   15      8.14      0.00
    8   -1   15     -0.50      0.00
    9   -1   15     -2.75      0.00
   10   -1   15      0.49      0.00
   11   -1   15     -6.21      0.00
   12   -1   15     -2.41      0.00
   13   -1   15     -4.87      0.00
  -13    0   15     -0.41      0.00
  -12    0   15     -0.27      0.00
  -11    0   15     -0.96      0.00
  -10    0   15     -0.25      0.00
   -9    0   15     -1.49      0.00
   -8    0   15      1.83      0.00
   -7    0   15     -0.80      0.00
   -6    0   15     -2.68      0.00
   -5    0   15      1.35      0.00
   -4    0   15     -4.04      0.00
   -3    0   15      1.29      0.00
   -2    0   15      2.08      0.00
   -1    0   15     -4.44      0.00
    0    0   15      2.52      0.00
    1    0   15      2.28      0.00
    2    0   15     -3.30      0.00
    3    0   15      2.01      0.00
    4    0   15      4.50      0.00
    5    0   15     -0.66      0.00
    6    0   15      1.29      0.00
    7    0   15      2.87      0.00
    8    0   15     -7.49      0.00
    9    0   15      3.72      0.00
   10    0   15      0.40      0.00
   11    0   15      0.46      0.00
   12    0   15      3.18      0.00
   13    0   15      3.31      0.00
  -13    1   15     -0.40      0.00
  -12    1   15      1.80      0.00
  -11    1   15     -1.24      0.00
  -10    1   15     -0.83      0.00
   -9    1   15      0.57      0.00
   -8    1   15     -0.84      0.00
   -7    1   15     -0.83      0.00
   -6    1   15      1.08      0.00
   -5    1   15      2.46      0.00
   -4    1   15     -0.80      0.00
   -3    1   15      7.25      0.00
   -2    1   15     -3.22      0.00
   -1    1   15     -0.15      0.00
    0    1   15      2.17      0.00
    1    1   15     -4.99      0.00
    2    1   15      4.55      0.00
    3    1   15      0.72      0.00
    4    1   15     -1.40      0.00
    5    1   15     -7.91      0.00
    6    1   15      2.17      0.00
    7    1   15     -7.94      0.00
    8    1   15      1.66      0.00
    9    1   15      2.52      0.00
   10    1   15     -3.96      0.00
   11    1   15      2.71      0.00
   12    1   15      0.26      0.00
   13    1   15     -1.10      0.00
  -13    2   15     -0.77      0.00
  -12    2   15     -2.20      0.00
  -11    2   15     -0.43      0.00
  -10    2   15      0.48      0.00
   -9    2   15     -0.01      0.00
   -8    2   15      1.76      0.00
   -7    2   15     -1.74      0.00
   -6    2   15      6.31      0.00
   -5    2   15     -2.74      0.00
   -4    2   15      3.91      0.00
   -3    2   15     -1.32      0.00
   -2    2   15     -2.86      0.00
   -1    2   15      6.26      0.00
    0    2   15      2.67      0.00
    1    2   15      0.29      0.00
    2    2   15      0.79      0.00
    3    2   15     -5.04      0.00
    4    2   15     -5.41      0.00
    5    2   15      3.89      0.00
    6    2   15      1.80      0.00
    7    2   15      0.66      0.00
    8    2   15      8.59      0.00
    9    2   15     -3.57      0.00
   10    2   15      2.08      0.00
   11    2   15      0.10      0.00
   12    2   15     -0.72      0.00
   13    2   15      3.18      0.00
  -13    3   15      4.37      0.00
  -12    3   15      0.50      0.00
  -11    3   15      2.46      0.00
  -10    3   15      1.08      0.00
   -9    3   15     -0.66      0.00
   -8    3   15     -0.84      0.00
   -7    3   15      1.74      0.00
   -6    3   15     -2.28      0.00
   -5    3   15     -2.00      0.00
   -4    3   15     -0.16      0.00
   -3    3   15     -4.64      0.00
   -2    3   15      0.22      0.00
   -1    3   15     -0.87      0.00
    0    3   15    -11.20      0.00
    1    3   15      4.44      0.00
    2    3   15     -3.06      0.00
    3    3   15      2.38      0.00
    4    3   15      4.52      0.00
    5    3   15      2.53      0.00
    6    3   15     -3.23      0.00
    7    3   15      2.16      0.00
    8    3   15     -5.88      0.00
    9    3   15     -4.78      0.00
   10    3   15      1.42      0.00
   11    3   15     -0.86      0.00
   12    3   15      1.40      0.00
   13    3   15     -0.37      0.00
  -12    4   15     -0.56      0.00
  -11    4   15     -0.70      0.00
  -10    4   15     -2.12      0.00
   -9    4   15     -0.27      0.00
   -8    4   15     -0.05      0.00
   -7    4   15     -0.38      0.00
   -6    4   15     -3.48      0.00
   -5    4   15     -0.52      0.00
   -4    4   15     -1.08      0.00
   -3    4   15     -3.62      0.00
   -2    4   15      5.26      0.00
   -1    4   15     -4.24      0.00
    0    4   15      6.51      0.00
    1    4   15     -0.15      0.00
    2    4   15     -2.14      0.00
    3    4   15      0.44      0.00
    4    4   15      0.51      0.00
    5    4   15     -2.16      0.00
    6    4   15     -0.64      0.00
    7    4   15     -1.32      0.00
    8    4   15     -0.45      0.00
    9    4   15      5.65      0.00
   10    4   15      5.68      0.00
   11    4   15      4.68      0.00
   12    4   15      1.97      0.00
   13    4   15     -0.54      0.00
  -12    5   15      1.72      0.00
  -11    5   15      0.86      0.00
  -10    5   15      0.15      0.00
   -9    5   15      3.64      0.00
   -8    5   15     -2.14      0.00
   -7    5   15      1.16      0.00
   -6    5   15      0.44      0.00
   -5    5   15      4.20      0.00
   -4    5   15     -1.52      0.00
   -3    5   15      8.80      0.00
   -2    5   15     -1.98      0.00
   -1    5   15     -1.22      0.00
    0    5   15      3.07      0.00
    1    5   15     -4.26      0.00
    2    5   15      2.51      0.00
    3    5   15      1.73      0.00
    4    5   15     -1.61      0.00
    5    5   15     -1.26      0.00
    6    5   15      1.71      0.00
    7    5   15      0.07      0.00
    8    5   15      1.08      0.00
    9    5   15      4.57      0.00
   10    5   15     -3.14      0.00
   11    5   15     -4.07      0.00
   12    5   15     -4.34      0.00
  -12    6   15     -0.42      0.00
  -11    6   15     -1.33      0.00
  -10    6   15      1.61      0.00
   -9    6   15     -2.06      0.00
   -8    6   15      2.17      0.00
   -7    6   15      0.94      0.00
   -6    6   15      1.94      0.00
   -5    6   15      0.33      0.00
   -4    6   15      2.68      0.00
   -3    6   15     -2.60      0.00
   -2    6   15     -3.04      0.00
   -1    6   15      3.10      0.00
    0    6   15     -3.95      0.00
    1    6   15     -1.27      0.00
    2    6   15     -0.37      0.00
    3    6   15      0.36      0.00
    4    6   15     -0.16      0.00
    5    6   15      3.03      0.00
    6    6   15      1.99      0.00
    7    6   15      2.26      0.00
    8    6   15      6.24      0.00
    9    6   15     -3.07      0.00
   10    6   15     -3.86      0.00
   11    6   15     -1.82      0.00
   12    6   15     -0.78      0.00
  -11    7   15     -1.13      0.00
  -10    7   15      0.53      0.00
   -9    7   15     -2.35      0.00
   -8    7   15      0.43      0.00
   -7    7   15     -1.34      0.00
   -6    7   15      0.15      0.00
   -5    7   15     -1.94      0.00
   -4    7   15     -0.52      0.00
   -3    7   15     -3.65      0.00
   -2    7   15      0.99      0.00
   -1    7   15     -0.63      0.00
    0    7   15     -2.06      0.00
    1    7   15      4.58      0.00
    2    7   15      3.20      0.00
    3    7   15     -2.22      0.00
    4    7   15     -1.50      0.00
    5    7   15      2.52      0.00
    6    7   15     -1.68      0.00
    7    7   15      3.06      0.00
    8    7   15     -3.94      0.00
    9    7   15     -5.19      0.00
   10    7   15     -2.23      0.00
   11    7   15     -4.53      0.00
   12    7   15     -0.14      0.00
  -11    8   15      1.92      0.00
  -10    8   15     -2.05      0.00
   -9    8   15      1.91      0.00
   -8    8   15      1.05      0.00
   -7    8   15      0.04      0.00
   -6    8   15      1.59      0.00
   -5    8   15     -0.54      0.00
   -4    8   15     -0.89      0.00
   -3    8   15     -0.31      0.00
   -2    8   15      2.15      0.00
   -1    8   15     -1.21      0.00
    0    8   15      3.73      0.00
    1    8   15      3.06      0.00
    2    8   15     -2.51      0.00
    3    8   15     -0.76      0.00
    4    8   15      5.89      0.00
    5    8   15     -4.89      0.00
    6    8   15     -0.20      0.00
    7    8   15     -4.35      0.00
    8    8   15     -6.05      0.00
    9    8   15     -2.37      0.00
   10    8   15      2.67      0.00
   11    8   15      6.59      0.00
  -10    9   15     -0.78      0.00
   -9    9   15      2.25      0.00
   -8    9   15     -2.27      0.00
   -7    9   15      1.92      0.00
   -6    9   15     -4.39      0.00
   -5    9   15     -0.83      0.00
   -4    9   15     -2.35      0.00
   -3    9   15      3.70      0.00
   -2    9   15      1.72      0.00
   -1    9   15      2.17      0.00
    0    9   15      7.04      0.00
    1    9   15     -4.41      0.00
    2    9   15     -2.10      0.00
    3    9   15      3.89      0.00
    4    9   15     -8.03      0.00
    5    9   15      2.42      0.00
    6    9   15     -4.12      0.00
    7    9   15     -0.62      0.00
    8    9   15     -2.12      0.00
    9    9   15     10.90      0.00
   10    9   15      3.58      0.00
   11    9   15      2.88      0.00
   -9   10   15     -1.88      0.00
   -8   10   15     -1.12      0.00
   -7   10   15     -4.25      0.00
   -6   10   15     -0.98      0.00
   -5   10   15      1.41      0.00
   -4   10   15      1.71      0.00
   -3   10   15      2.03      0.00
   -2   10   15     -5.24      0.00
   -1   10   15      1.49      0.00
    0   10   15    -11.56      0.00
    1   10   15     -3.77      0.00
    2   10   15      3.85      0.00
    3   10   15     -4.39      0.00
    4   10   15      9.59      0.00
    5   10   15     -1.71      0.00
    6   10   15      9.27      0.00
    7   10   15      0.71      0.00
    8   10   15     10.58      0.00
    9   10   15     -2.33      0.00
   10   10   15     -5.55      0.00
   -9   11   15     -1.76      0.00
   -8   11   15      0.36      0.00
   -7   11   15      1.92      0.00
   -6   11   15      1.87      0.00
   -5   11   15      0.09      0.00
   -4   11   15     -0.07      0.00
   -3   11   15     -3.86      0.00
   -2   11   15      1.03      0.00
   -1   11   15     -2.95      0.00
    0   11   15      1.16      0.00
    1   11   15      5.04      0.00
    2   11   15     -2.38      0.00
    3   11   15      3.73      0.00
    4   11   15     -7.73      0.00
    5   11   15     -0.28      0.00
    6   11   15     -9.10      0.00
    7   11   15     -4.58      0.00
    8   11   15     -4.15      0.00
    9   11   15     -9.99      0.00
   10   11   15      2.39      0.00
   -7   12   15     -0.28      0.00
   -6   12   15      0.83      0.00
   -5   12   15     -0.61      0.00
   -4   12   15      0.75      0.00
   -3   12   15     -0.77      0.00
   -2   12   15      1.25      0.00
   -1   12   15     -0.90      0.00
    0   12   15      2.47      0.00
    1   12   15     -0.02      0.00
    2   12   15      1.29      0.00
    3   12   15     -4.16      0.00
    4   12   15      1.75      0.00
    5   12   15     -3.18      0.00
    6   12   15      5.01      0.00
    7   12   15      3.81      0.00
    8   12   15     -0.22      0.00
    9   12   15      6.57      0.00
   -6   13   15      1.60      0.00
   -5   13   15      0.32      0.00
   -4   13   15     -1.75      0.00
   -3   13   15      2.44      0.00
   -2   13   15      1.14      0.00
   -1   13   15      1.59      0.00
    0   13   15      1.28      0.00
    1   13   15     -2.48      0.00
    2   13   15     -5.46      0.00
    3   13   15      0.02      0.00
    4   13   15     -2.05      0.00
    5   13   15      6.91      0.00
    6   13   15     -2.87      0.00
    7   13   15      2.59      0.00
   -4   14   15      4.37      0.00
   -3   14   15      0.40      0.00
   -2   14   15     -3.03      0.00
   -1   14   15     -1.90      0.00
    0   14   15     -1.51      0.00
    1   14   15     -1.50      0.00
    2   14   15      5.29      0.00
    3   14   15      5.26      0.00
    4   14   15      1.35      0.00
    5   14   15     -3.41      0.00
    6   14   15     -0.99      0.00
   -1   15   15      3.13      0.00
    0   15   15     -0.25      0.00
    1   15   15      4.52      0.00
    2   15   15      2.54      0.00
    3   15   15     -3.64      0.00
   -2  -12   16     -0.18      0.00
   -1  -12   16      1.63      0.00
    0  -12   16      0.97      0.00
    1  -12   16     -4.56      0.00
   -5  -11   16     -1.05      0.00
   -4  -11   16      0.36      0.00
   -3  -11   16     -6.53      0.00
   -2  -11   16     -3.77      0.00
   -1  -11   16     -2.73      0.00
    0  -11   16     -7.16      0.00
    1  -11   16      0.47      0.00
    2  -11   16     -1.24      0.00
    3  -11   16     -1.85      0.00
    4  -11   16      1.31      0.00
   -7  -10   16      1.29      0.00
   -6  -10   16      0.38      0.00
   -5  -10   16      2.94      0.00
   -4  -10   16     -2.22      0.00
   -3  -10   16     -0.11      0.00
   -2  -10   16      5.45      0.00
   -1  -10   16     -0.53      0.00
    0  -10   16      4.29      0.00
    1  -10   16      3.88      0.00
    2  -10   16     -1.24      0.00
    3  -10   16      1.77      0.00
    4  -10   16      1.48      0.00
    5  -10   16     -2.92      0.00
    6  -10   16     -0.98      0.00
   -8   -9   16      0.12      0.00
   -7   -9   16     -0.29      0.00
   -6   -9   16     -1.35      0.00
   -5   -9   16     -1.29      0.00
   -4   -9   16     -1.97      0.00
   -3   -9   16      5.02      0.00
   -2   -9   16     -1.34      0.00
   -1   -9   16      0.09      0.00
    0   -9   16      1.56      0.00
    1   -9   16     -0.21      0.00
    2   -9   16     -0.81      0.00
    3   -9   16      2.75      0.00
    4   -9   16     -4.55      0.00
    5   -9   16      0.07      0.00
    6   -9   16      1.39      0.00
    7   -9   16     -0.57      0.00
   -9   -8   16      0.17      0.00
   -8   -8   16     -2.04      0.00
   -7   -8   16     -0.17      0.00
   -6   -8   16     -0.16      0.00
   -5   -8   16     -2.78      0.00
   -4   -8   16      1.99      0.00
   -3   -8   16     -2.02      0.00
   -2   -8   16     -2.24      0.00
   -1   -8   16      1.94      0.00
    0   -8   16      1.88      0.00
    1   -8   16     -2.79      0.00
    2   -8   16      3.19      0.00
    3   -8   16     -2.40      0.00
    4   -8   16      1.40      0.00
    5   -8   16      2.92      0.00
    6   -8   16      0.31      0.00
    7   -8   16     -0.13      0.00
    8   -8   16      3.66      0.00
  -10   -7   16      1.39      0.00
   -9   -7   16     -2.48      0.00
   -8   -7   16      3.03      0.00
   -7   -7   16      1.89      0.00
   -6   -7   16     -0.76      0.00
   -5   -7   16      3.15      0.00
   -4   -7   16      0.17      0.00
   -3   -7   16     -1.19      0.00
   -2   -7   16      2.38      0.00
   -1   -7   16      0.84      0.00
    0   -7   16     -1.53      0.00
    1   -7   16      0.25      0.00
    2   -7   16     -0.23      0.00
    3   -7   16     -3.09      0.00
    4   -7   16      2.24      0.00
    5   -7   16     -1.10      0.00
    6   -7   16     -0.63      0.00
    7   -7   16     -0.50      0.00
    8   -7   16     -1.82      0.00
    9   -7   16     -1.64      0.00
  -10   -6   16     -0.20      0.00
   -9   -6   16      0.74      0.00
   -8   -6   16      1.02      0.00
   -7   -6   16     -2.58      0.00
   -6   -6   16      0.67      0.00
   -5   -6   16      1.05      0.00
   -4   -6   16      0.12      0.00
   -3   -6   16      1.80      0.00
   -2   -6   16      0.94      0.00
   -1   -6   16     -0.55      0.00
    0   -6   16     -2.06      0.00
    1   -6   16     -0.16      0.00
    2   -6   16     -0.72      0.00
    3   -6   16      0.61      0.00
    4   -6   16      2.33      0.00
    5   -6   16     -4.68      0.00
    6   -6   16      0.96      0.00
    7   -6   16     -0.09      0.00
    8   -6   16      0.95      0.00
    9   -6   16      0.09      0.00
   10   -6   16      0.70      0.00
  -11   -5   16      2.00      0.00
  -10   -5   16     -3.30      0.00
   -9   -5   16      1.44      0.00
   -8   -5   16     -0.55      0.00
   -7   -5   16     -1.11      0.00
   -6   -5   16      4.54      0.00
   -5   -5   16     -0.64      0.00
   -4   -5   16      0.53      0.00
   -3   -5   16      2.09      0.00
   -2   -5   16     -1.44      0.00
   -1   -5   16     -1.63      0.00
    0   -5   16     -0.85      0.00
    1   -5   16      3.41      0.00
    2   -5   16     -1.60      0.00
    3   -5   16      5.71      0.00
    4   -5   16     -2.87      0.00
    5   -5   16      4.91      0.00
    6   -5   16      1.87      0.00
    7   -5   16      0.74      0.00
    8   -5   16      0.05      0.00
    9   -5   16      0.68      0.00
   10   -5   16     -1.23      0.00
  -11   -4   16     -2.62      0.00
  -10   -4   16      0.36      0.00
   -9   -4   16      0.13      0.00
   -8   -4   16     -3.15      0.00
   -7   -4   16      2.68      0.00
   -6   -4   16     -4.31      0.00
   -5   -4   16     -1.11      0.00
   -4   -4   16     -1.22      0.00
   -3   -4   16     -1.70      0.00
   -2   -4   16     -1.80      0.00
   -1   -4   16      2.31      0.00
    0   -4   16      2.88      0.00
    1   -4   16     -0.51      0.00
    2   -4   16      0.87      0.00
    3   -4   16     -0.80      0.00
    4   -4   16     -2.93      0.00
    5   -4   16      1.43      0.00
    6   -4   16     -3.59      0.00
    7   -4   16      0.28      0.00
    8   -4   16      0.05      0.00
    9   -4   16     -0.26      0.00
   10   -4   16      2.34      0.00
   11   -4   16      3.06      0.00
  -12   -3   16      0.58      0.00
  -11   -3   16     -1.72      0.00
  -10   -3   16      4.54      0.00
   -9   -3   16      0.99      0.00
   -8   -3   16      1.57      0.00
   -7   -3   16      0.78      0.00
   -6   -3   16      3.10      0.00
   -5   -3   16     -1.18      0.00
   -4   -3   16      4.85      0.00
   -3   -3   16     -1.89      0.00
   -2   -3   16      3.36      0.00
   -1   -3   16     -1.16      0.00
    0   -3   16     -1.01      0.00
    1   -3   16     -3.28      0.00
    2   -3   16     -0.75      0.00
    3   -3   16     -4.87      0.00
    4   -3   16      0.84      0.00
    5   -3   16     -0.18      0.00
    6   -3   16     -0.95      0.00
    7   -3   16      1.27      0.00
    8   -3   16     -1.59      0.00
    9   -3   16     -0.54      0.00
   10   -3   16     -1.79      0.00
   11   -3   16     -3.64      0.00
  -12   -2   16     -0.82      0.00
  -11   -2   16      2.23      0.00
  -10   -2   16     -2.31      0.00
   -9   -2   16     -5.52      0.00
   -8   -2   16      1.23      0.00
   -7   -2   16      0.22      0.00
   -6   -2   16     -4.32      0.00
   -5   -2   16      3.08      0.00
   -4   -2   16     -4.04      0.00
   -3   -2   16     -0.80      0.00
   -2   -2   16     -0.13      0.00
   -1   -2   16     -3.13      0.00
    0   -2   16      0.18      0.00
    2   -2   16      2.50      0.00
    3   -2   16      1.11      0.00
    4   -2   16      6.04      0.00
    5   -2   16     -3.38      0.00
    6   -2   16      4.19      0.00
    7   -2   16     -0.42      0.00
    8   -2   16      0.66      0.00
    9   -2   16      1.97      0.00
   10   -2   16      2.05      0.00
   11   -2   16      1.91      0.00
   12   -2   16      1.42      0.00
  -12   -1   16      0.29      0.00
  -11   -1   16     -0.40      0.00
  -10   -1   16     -0.95      0.00
   -9   -1   16      4.86      0.00
   -8   -1   16      2.59      0.00
   -7   -1   16     -4.19      0.00
   -6   -1   16      1.71      0.00
   -5   -1   16     -0.70      0.00
   -4   -1   16     -3.77      0.00
   -3   -1   16      2.33      0.00
   -2   -1   16     -3.29      0.00
   -1   -1   16      1.97      0.00
    0   -1   16      0.02      0.00
    2   -1   16     -0.55      0.00
    3   -1   16      0.28      0.00
    4   -1   16     -4.19      0.00
    5   -1   16      0.23      0.00
    6   -1   16     -3.18      0.00
    7   -1   16     -1.50      0.00
    8   -1   16     -0.33      0.00
    9   -1   16      2.18      0.00
   10   -1   16     -0.57      0.00
   11   -1   16      0.23      0.00
   12   -1   16      1.69      0.00
  -12    0   16     -0.34      0.00
  -11    0   16      0.49      0.00
  -10    0   16      1.18      0.00
   -9    0   16     -0.52      0.00
   -8    0   16     -3.98      0.00
   -7    0   16      1.06      0.00
   -6    0   16      1.89      0.00
   -5    0   16     -2.12      0.00
   -4    0   16      1.99      0.00
   -3    0   16      1.31      0.00
   -2    0   16     -1.66      0.00
   -1    0   16      3.05      0.00
    0    0   16     -1.13      0.00
    1    0   16      2.76      0.00
    2    0   16      0.50      0.00
    3    0   16      2.56      0.00
    4    0   16     -0.76      0.00
    5    0   16     -0.14      0.00
    6    0   16      0.55      0.00
    7    0   16      0.47      0.00
    8    0   16      2.16      0.00
    9    0   16     -4.19      0.00
   10    0   16     -2.93      0.00
   11    0   16     -1.76      0.00
   12    0   16     -6.34      0.00
  -12    1   16     -2.17      0.00
  -11    1   16      0.36      0.00
  -10    1   16     -0.04      0.00
   -9    1   16     -1.10      0.00
   -8    1   16     -1.01      0.00
   -7    1   16      2.04      0.00
   -6    1   16     -2.67      0.00
   -5    1   16     -0.18      0.00
   -4    1   16      1.57      0.00
   -3    1   16     -2.60      0.00
   -2    1   16      3.95      0.00
   -1    1   16     -0.38      0.00
    0    1   16      2.11      0.00
    1    1   16     -2.54      0.00
    2    1   16     -2.53      0.00
    3    1   16     -2.35      0.00
    4    1   16      1.35      0.00
    5    1   16      2.91      0.00
    6    1   16      3.36      0.00
    7    1   16     -0.41      0.00
    8    1   16     -0.93      0.00
    9    1   16     -2.68      0.00
   10    1   16      0.25      0.00
   11    1   16      0.44      0.00
   12    1   16      0.47      0.00
  -12    2   16      2.56      0.00
  -11    2   16      1.36      0.00
  -10    2   16     -2.71      0.00
   -9    2   16      0.96      0.00
   -8    2   16      2.85      0.00
   -7    2   16     -0.70      0.00
   -6    2   16      2.21      0.00
   -5    2   16      1.32      0.00
   -4    2   16      2.50      0.00
   -3    2   16      0.51      0.00
   -2    2   16     -0.27      0.00
   -1    2   16     -5.56      0.00
    0    2   16     -4.88      0.00
    1    2   16     -1.33      0.00
    2    2   16     -0.92      0.00
    3    2   16      2.73      0.00
    4    2   16     -3.01      0.00
    5    2   16     -0.75      0.00
    6    2   16     -5.35      0.00
    7    2   16     -0.53      0.00
    8    2   16     -2.38      0.00
    9    2   16      3.82      0.00
   10    2   16      2.05      0.00
   11    2   16     -0.17      0.00
   12    2   16      2.32      0.00
  -12    3   16     -0.83      0.00
  -11    3   16     -4.33      0.00
  -10    3   16      1.67      0.00
   -9    3   16      0.17      0.00
   -8    3   16     -1.79      0.00
   -7    3   16     -0.32      0.00
   -6    3   16     -0.74      0.00
   -5    3   16     -0.74      0.00
   -4    3   16     -2.51      0.00
   -3    3   16     -1.96      0.00
   -2    3   16     -0.01      0.00
   -1    3   16      5.00      0.00
    0    3   16      5.54      0.00
    1    3   16      1.97      0.00
    2    3   16      1.31      0.00
    3    3   16     -3.35      0.00
    4    3   16      4.27      0.00
    5    3   16     -1.53      0.00
    6    3   16      4.12      0.00
    7    3   16      2.51      0.00
    8    3   16      1.62      0.00
    9    3   16      0.41      0.00
   10    3   16     -2.65      0.00
   11    3   16      0.23      0.00
   12    3   16      0.26      0.00
  -12    4   16      0.47      0.00
  -11    4   16      2.44      0.00
  -10    4   16      0.23      0.00
   -9    4   16     -0.33      0.00
   -8    4   16     -1.10      0.00
   -7    4   16      1.20      0.00
   -6    4   16     -0.90      0.00
   -5    4   16     -0.79      0.00
   -4    4   16      0.98      0.00
   -3    4   16      2.86      0.00
   -2    4   16      1.46      0.00
   -1    4   16      0.61      0.00
    0    4   16      0.35      0.00
    1    4   16      0.79      0.00
    2    4   16      4.03      0.00
    3    4   16      2.04      0.00
    4    4   16     -2.13      0.00
    5    4   16      0.43      0.00
    6    4   16     -1.56      0.00
    7    4   16     -3.48      0.00
    8    4   16     -0.63      0.00
    9    4   16     -3.18      0.00
   10    4   16     -0.09      0.00
   11    4   16      0.22      0.00
   12    4   16     -1.02      0.00
  -11    5   16     -1.15      0.00
  -10    5   16     -0.31      0.00
   -9    5   16     -0.53      0.00
   -8    5   16      1.30      0.00
   -7    5   16     -0.38      0.00
   -6    5   16     -0.97      0.00
   -5    5   16      1.85      0.00
   -4    5   16      0.20      0.00
   -3    5   16     -1.24      0.00
   -2    5   16     -0.17      0.00
   -1    5   16     -2.03      0.00
    0    5   16     -2.41      0.00
    1    5   16     -4.04      0.00
    2    5   16     -3.51      0.00
    3    5   16     -3.03      0.00
    4    5   16     -0.40      0.00
    5    5   16     -1.09      0.00
    6    5   16     -2.34      0.00
    7    5   16      0.88      0.00
    8    5   16      1.18      0.00
    9    5   16      2.11      0.00
   10    5   16      7.03      0.00
   11    5   16      0.80      0.00
   12    5   16      6.55      0.00
  -11    6   16      2.40      0.00
  -10    6   16      2.13      0.00
   -9    6   16      0.25      0.00
   -8    6   16      1.51      0.00
   -7    6   16     -0.31      0.00
   -6    6   16      0.16      0.00
   -5    6   16      3.15      0.00
   -4    6   16     -2.92      0.00
   -3    6   16      1.22      0.00
   -2    6   16     -2.02      0.00
   -1    6   16     -2.41      0.00
    0    6   16     -2.01      0.00
    1    6   16      3.86      0.00
    2    6   16     -3.22      0.00
    3    6   16      2.89      0.00
    4    6   16     -0.29      0.00
    5    6   16      2.03      0.00
    6    6   16      1.86      0.00
    7    6   16      1.84      0.00
    8    6   16     -0.19      0.00
    9    6   16      0.20      0.00
   10    6   16     -2.01      0.00
   11    6   16     -0.29      0.00
  -11    7   16     -0.87      0.00
  -10    7   16     -1.16      0.00
   -9    7   16     -0.71      0.00
   -8    7   16     -1.27      0.00
   -7    7   16     -1.72      0.00
   -6    7   16      0.42      0.00
   -5    7   16     -3.82      0.00
   -4    7   16     -3.50      0.00
   -3    7   16      0.46      0.00
   -2    7   16     -2.15      0.00
   -1    7   16      1.95      0.00
    0    7   16      3.36      0.00
    1    7   16     -3.86      0.00
    2    7   16      5.12      0.00
    3    7   16     -0.81      0.00
    4    7   16      2.05      0.00
    5    7   16     -1.57      0.00
    6    7   16     -0.89      0.00
    7    7   16     -0.91      0.00
    8    7   16     -3.53      0.00
    9    7   16      2.68      0.00
   10    7   16     -5.33      0.00
   11    7   16      1.17      0.00
  -10    8   16     -2.23      0.00
   -9    8   16      0.86      0.00
   -8    8   16     -0.66      0.00
   -7    8   16      0.28      0.00
   -6    8   16      2.98      0.00
   -5    8   16     -2.42      0.00
   -4    8   16      8.42      0.00
   -3    8   16      2.33      0.00
   -2    8   16      0.07      0.00
   -1    8   16      2.86      0.00
    0    8   16     -2.08      0.00
    1    8   16      2.40      0.00
    2    8   16     -1.23      0.00
    3    8   16      0.83      0.00
    4    8   16     -0.56      0.00
    5    8   16     -0.61      0.00
    6    8   16      4.25      0.00
    7    8   16     -0.96      0.00
    8    8   16      7.23      0.00
    9    8   16     -2.36      0.00
   10    8   16      2.42      0.00
   11    8   16     -1.37      0.00
   -9    9   16      0.04      0.00
   -8    9   16      1.26      0.00
   -7    9   16      4.20      0.00
   -6    9   16      0.26      0.00
   -5    9   16      6.32      0.00
   -4    9   16      2.60      0.00
   -3    9   16     -6.01      0.00
   -2    9   16      4.84      0.00
   -1    9   16     -1.91      0.00
    0    9   16      0.07      0.00
    1    9   16     -0.20      0.00
    2    9   16      0.14      0.00
    3    9   16     -2.72      0.00
    4    9   16     -2.16      0.00
    5    9   16      2.57      0.00
    6    9   16     -2.02      0.00
    7    9   16      3.27      0.00
    8    9   16     -1.60      0.00
    9    9   16      0.33      0.00
   10    9   16      0.32      0.00
   -9   10   16     -0.58      0.00
   -8   10   16      2.50      0.00
   -7   10   16     -2.19      0.00
   -6   10   16     -1.08      0.00
   -5   10   16     -3.53      0.00
   -4   10   16     -7.97      0.00
   -3   10   16      0.70      0.00
   -2   10   16      0.32      0.00
   -1   10   16     -0.21      0.00
    0   10   16      1.04      0.00
    1   10   16      3.68      0.00
    2   10   16     -1.74      0.00
    3   10   16      2.24      0.00
    4   10   16      3.74      0.00
    5   10   16     -1.42      0.00
    6   10   16      1.12      0.00
    7   10   16     -2.19      0.00
    8   10   16     -0.61      0.00
    9   10   16     -1.85      0.00
   -8   11   16     -2.80      0.00
   -7   11   16     -0.55      0.00
   -6   11   16     -1.91      0.00
   -5   11   16     -1.19      0.00
   -4   11   16      1.60      0.00
   -3   11   16      2.09      0.00
   -2   11   16     -2.46      0.00
   -1   11   16     -4.09      0.00
    0   11   16      3.10      0.00
    1   11   16     -4.29      0.00
    2   11   16      0.96      0.00
    3   11   16      4.22      0.00
    4   11   16     -2.73      0.00
    5   11   16      6.53      0.00
    6   11   16     -3.77      0.00
    7   11   16      3.19      0.00
    8   11   16     -4.23      0.00
    9   11   16      1.53      0.00
   -6   12   16     -1.70      0.00
   -5   12   16     -0.20      0.00
   -4   12   16     -1.95      0.00
   -3   12   16      0.06      0.00
   -2   12   16     -3.60      0.00
   -1   12   16      6.31      0.00
    0   12   16     -4.03      0.00
    1   12   16     -0.72      0.00
    2   12   16      2.65      0.00
    3   12   16     -4.93      0.00
    4   12   16      3.75      0.00
    5   12   16    -10.63      0.00
    6   12   16      1.49      0.00
    7   12   16     -6.37      0.00
   -5   13   16      1.37      0.00
   -4   13   16      1.91      0.00
   -3   13   16      1.80      0.00
   -2   13   16      3.09      0.00
   -1   13   16      0.17      0.00
    0   13   16      1.49      0.00
    1   13   16      3.30      0.00
    2   13   16      0.29      0.00
    3   13   16      0.46      0.00
    4   13   16     -5.78      0.00
    5   13   16      4.46      0.00
    6   13   16     -1.11      0.00
   -2   14   16      1.51      0.00
   -1   14   16     -1.60      0.00
    0   14   16     -3.06      0.00
    1   14   16     -2.97      0.00
    2   14   16     -6.85      0.00
    3   14   16     -4.49      0.00
    4   14   16      1.30      0.00
   -2  -11   17      2.76      0.00
   -1  -11   17      0.52      0.00
    0  -11   17     -0.11      0.00
    1  -11   17      0.27      0.00
   -5  -10   17      2.52      0.00
   -4  -10   17     -2.58      0.00
   -3  -10   17     -2.11      0.00
   -2  -10   17     -3.64      0.00
   -1  -10   17     -6.15      0.00
    0  -10   17     -1.15      0.00
    1  -10   17     -7.30      0.00
    2  -10   17      1.92      0.00
    3  -10   17     -2.96      0.00
    4  -10   17      0.88      0.00
   -7   -9   17     -1.37      0.00
   -6   -9   17     -2.00      0.00
   -5   -9   17     -4.19      0.00
   -4   -9   17     -6.01      0.00
   -3   -9   17     -1.83      0.00
   -2   -9   17     -3.37      0.00
   -1   -9   17      2.01      0.00
    0   -9   17      0.58      0.00
    1   -9   17      3.22      0.00
    2   -9   17      4.00      0.00
    3   -9   17      0.50      0.00
    4   -9   17      2.45      0.00
    5   -9   17     -2.00      0.00
    6   -9   17     -1.05      0.00
   -8   -8   17     -0.43      0.00
   -7   -8   17     -0.32      0.00
   -6   -8   17     -3.43      0.00
   -5   -8   17     -1.07      0.00
   -4   -8   17      4.48      0.00
   -3   -8   17      4.49      0.00
   -2   -8   17      3.38      0.00
   -1   -8   17      3.75      0.00
    0   -8   17     -2.30      0.00
    1   -8   17      2.28      0.00
    2   -8   17     -5.26      0.00
    3   -8   17     -0.40      0.00
    4   -8   17     -2.75      0.00
    5   -8   17     -2.20      0.00
    6   -8   17     -0.59      0.00
    7   -8   17     -0.87      0.00
   -9   -7   17     -2.76      0.00
   -8   -7   17      0.73      0.00
   -7   -7   17     -4.29      0.00
   -6   -7   17      2.72      0.00
   -5   -7   17      3.22      0.00
   -4   -7   17      0.12      0.00
   -3   -7   17      0.37      0.00
   -2   -7   17     -0.46      0.00
   -1   -7   17     -1.06      0.00
    0   -7   17      1.30      0.00
    1   -7   17      2.13      0.00
    2   -7   17     -1.61      0.00
    3   -7   17      5.27      0.00
    4   -7   17     -5.22      0.00
    5   -7   17      3.56      0.00
    6   -7   17      0.21      0.00
    7   -7   17      0.54      0.00
    8   -7   17      5.31      0.00
   -9   -6   17      4.31      0.00
   -8   -6   17      1.75      0.00
   -7   -6   17      6.45      0.00
   -6   -6   17      3.54      0.00
   -5   -6   17     -1.16      0.00
   -4   -6   17      1.33      0.00
   -3   -6   17     -3.50      0.00
   -2   -6   17     -1.51      0.00
   -1   -6   17     -0.57      0.00
    0   -6   17      2.27      0.00
    1   -6   17     -5.00      0.00
    2   -6   17      5.56      0.00
    3   -6   17     -5.76      0.00
    4   -6   17      6.44      0.00
    5   -6   17      1.64      0.00
    6   -6   17      1.31      0.00
    7   -6   17      1.57      0.00
    8   -6   17     -0.89      0.00
    9   -6   17     -5.73      0.00
  -10   -5   17      1.12      0.00
   -9   -5   17     -0.57      0.00
   -8   -5   17     -0.92      0.00
   -7   -5   17     -3.51      0.00
   -6   -5   17     -3.25      0.00
   -5   -5   17     -2.51      0.00
   -4   -5   17     -2.29      0.00
   -3   -5   17     -2.29      0.00
   -2   -5   17      3.07      0.00
   -1   -5   17     -0.41      0.00
    0   -5   17     -2.56      0.00
    1   -5   17      1.69      0.00
    2   -5   17     -1.96      0.00
    3   -5   17     -1.47      0.00
    4   -5   17     -0.56      0.00
    5   -5   17     -5.20      0.00
    6   -5   17     -1.80      0.00
    7   -5   17     -1.30      0.00
    8   -5   17     -3.48      0.00
    9   -5   17      1.06      0.00
  -10   -4   17     -1.09      0.00
   -9   -4   17     -1.66      0.00
   -8   -4   17     -1.60      0.00
   -7   -4   17      1.10      0.00
   -6   -4   17     -3.15      0.00
   -5   -4   17      2.54      0.00
   -4   -4   17     -1.14      0.00
   -3   -4   17      4.24      0.00
   -2   -4   17      0.52      0.00
   -1   -4   17     -0.44      0.00
    0   -4   17      1.84      0.00
    1   -4   17      2.72      0.00
    2   -4   17     -1.67      0.00
    3   -4   17      4.58      0.00
    4   -4   17     -0.36      0.00
    5   -4   17     -0.40      0.00
    6   -4   17      0.75      0.00
    7   -4   17     -3.33      0.00
    8   -4   17     -1.83      0.00
    9   -4   17      2.52      0.00
   10   -4   17     -2.32      0.00
  -11   -3   17     -1.66      0.00
  -10   -3   17     -3.43      0.00
   -9   -3   17     -0.01      0.00
   -8   -3   17      0.00      0.00
   -7   -3   17     -1.97      0.00
   -6   -3   17      5.41      0.00
   -5   -3   17     -0.19      0.00
   -4   -3   17      4.04      0.00
   -3   -3   17      2.48      0.00
   -2   -3   17     -1.77      0.00
   -1   -3   17      1.55      0.00
    0   -3   17      1.51      0.00
    1   -3   17     -2.98      0.00
    2   -3   17      1.07      0.00
    3   -3   17     -0.71      0.00
    4   -3   17     -3.12      0.00
    5   -3   17      3.51      0.00
    6   -3   17      1.44      0.00
    7   -3   17      3.39      0.00
    8   -3   17      6.92      0.00
    9   -3   17      4.07      0.00
   10   -3   17     -0.16      0.00
  -11   -2   17      1.18      0.00
  -10   -2   17      3.77      0.00
   -9   -2   17      2.86      0.00
   -8   -2   17      1.63      0.00
   -7   -2   17      4.31      0.00
   -6   -2   17     -0.99      0.00
   -5   -2   17      3.60      0.00
   -4   -2   17     -0.76      0.00
   -3   -2   17     -1.04      0.00
   -2   -2   17     -0.85      0.00
   -1   -2   17      0.94      0.00
    0   -2   17     -4.40      0.00
    1   -2   17     -1.75      0.00
    2   -2   17     -1.94      0.00
    3   -2   17     -1.12      0.00
    4   -2   17      1.98      0.00
    5   -2   17      3.00      0.00
    6   -2   17     -0.64      0.00
    7   -2   17      1.59      0.00
    8   -2   17     -1.82      0.00
    9   -2   17     -7.10      0.00
   10   -2   17     -1.49      0.00
   11   -2   17     -2.89      0.00
  -11   -1   17     -2.06      0.00
  -10   -1   17     -0.32      0.00
   -9   -1   17     -2.64      0.00
   -8   -1   17     -0.34      0.00
   -7   -1   17     -1.88      0.00
   -6   -1   17     -0.46      0.00
   -5   -1   17     -5.79      0.00
   -4   -1   17     -1.27      0.00
   -3   -1   17     -4.19      0.00
   -2   -1   17     -0.11      0.00
   -1   -1   17     -2.36      0.00
    0   -1   17     -0.71      0.00
    1   -1   17      3.02      0.00
    2   -1   17      4.78      0.00
    3   -1   17      0.02      0.00
    4   -1   17      4.08      0.00
    5   -1   17     -2.08      0.00
    6   -1   17     -1.67      0.00
    7   -1   17      1.83      0.00
    8   -1   17     -3.43      0.00
    9   -1   17      2.61      0.00
   10   -1   17      4.09      0.00
   11   -1   17      0.90      0.00
  -11    0   17      1.81      0.00
  -10    0   17     -0.01      0.00
   -9    0   17      0.63      0.00
   -8    0   17      0.17      0.00
   -7    0   17     -1.71      0.00
   -6    0   17     -1.24      0.00
   -5    0   17      2.27      0.00
   -4    0   17      1.42      0.00
   -3    0   17      1.44      0.00
   -2    0   17      3.37      0.00
   -1    0   17      0.64      0.00
    0    0   17      3.36      0.00
    1    0   17      0.89      0.00
    2    0   17     -4.14      0.00
    3    0   17     -0.41      0.00
    4    0   17     -2.12      0.00
    5    0   17     -5.96      0.00
    6    0   17      2.37      0.00
    7    0   17     -5.67      0.00
    8    0   17      0.67      0.00
    9    0   17      2.15      0.00
   10    0   17      0.04      0.00
   11    0   17      0.46      0.00
  -11    1   17      0.06      0.00
  -10    1   17     -0.51      0.00
   -9    1   17      0.61      0.00
   -8    1   17      0.27      0.00
   -7    1   17      0.48      0.00
   -6    1   17      2.62      0.00
   -5    1   17     -0.56      0.00
   -4    1   17     -1.30      0.00
   -3    1   17      1.33      0.00
   -2    1   17     -2.70      0.00
   -1    1   17     -1.62      0.00
    0    1   17      1.77      0.00
    1    1   17     -0.42      0.00
    2    1   17      1.85      0.00
    3    1   17      1.84      0.00
    4    1   17     -4.81      0.00
    5    1   17      1.92      0.00
    6    1   17      0.43      0.00
    7    1   17      0.56      0.00
    8    1   17      3.60      0.00
    9    1   17      0.05      0.00
   10    1   17     -3.82      0.00
   11    1   17      0.62      0.00
  -11    2   17      0.21      0.00
  -10    2   17      0.03      0.00
   -9    2   17      0.94      0.00
   -8    2   17     -1.93      0.00
   -7    2   17     -0.18      0.00
   -6    2   17     -0.15      0.00
   -5    2   17     -2.47      0.00
   -4    2   17      1.19      0.00
   -3    2   17     -3.46      0.00
   -2    2   17      0.27      0.00
   -1    2   17      2.10      0.00
    0    2   17     -1.04      0.00
    1    2   17     -3.91      0.00
    2    2   17     -0.87      0.00
    3    2   17     -1.71      0.00
    4    2   17      3.67      0.00
    5    2   17      7.44      0.00
    6    2   17     -0.88      0.00
    7    2   17      0.11      0.00
    8    2   17     -1.60      0.00
    9    2   17     -6.10      0.00
   10    2   17      1.77      0.00
   11    2   17     -0.91      0.00
  -11    3   17     -1.27      0.00
  -10    3   17      1.46      0.00
   -9    3   17     -3.60      0.00
   -8    3   17      0.27      0.00
   -7    3   17      4.18      0.00
   -6    3   17     -5.20      0.00
   -5    3   17      4.34      0.00
   -4    3   17     -1.84      0.00
   -3    3   17      1.66      0.00
   -2    3   17     -0.75      0.00
   -1    3   17     -2.14      0.00
    0    3   17     -3.99      0.00
    1    3   17      1.70      0.00
    2    3   17      3.68      0.00
    3    3   17     -1.43      0.00
    4    3   17      4.37      0.00
    5    3   17     -7.66      0.00
    6    3   17     -2.03      0.00
    7    3   17      0.93      0.00
    8    3   17      1.06      0.00
    9    3   17      3.64      0.00
   10    3   17      5.35      0.00
   11    3   17     -1.82      0.00
  -11    4   17      0.11      0.00
  -10    4   17     -2.87      0.00
   -9    4   17      3.35      0.00
   -8    4   17      1.87      0.00
   -7    4   17     -1.85      0.00
   -6    4   17      1.33      0.00
   -5    4   17      2.77      0.00
   -4    4   17     -2.14      0.00
   -3    4   17      4.10      0.00
   -2    4   17      1.66      0.00
   -1    4   17      1.82      0.00
    0    4   17      2.75      0.00
    1    4   17      1.60      0.00
    2    4   17     -5.74      0.00
    3    4   17      3.60      0.00
    4    4   17     -7.44      0.00
    5    4   17      3.15      0.00
    6    4   17      0.43      0.00
    7    4   17      3.53      0.00
    8    4   17     -1.30      0.00
    9    4   17      2.78      0.00
   10    4   17     -5.60      0.00
   11    4   17     -1.28      0.00
  -11    5   17      0.00      0.00
  -10    5   17      2.28      0.00
   -9    5   17     -1.06      0.00
   -8    5   17     -0.14      0.00
   -7    5   17     -3.15      0.00
   -6    5   17      3.26      0.00
   -5    5   17     -2.92      0.00
   -4    5   17      3.11      0.00
   -3    5   17     -0.30      0.00
   -2    5   17     -2.34      0.00
   -1    5   17      1.71      0.00
    0    5   17      0.24      0.00
    1    5   17      2.60      0.00
    2    5   17      1.00      0.00
    3    5   17      1.24      0.00
    4    5   17      2.20      0.00
    5    5   17      2.90      0.00
    6    5   17      3.90      0.00
    7    5   17      0.84      0.00
    8    5   17     -1.10      0.00
    9    5   17     -2.94      0.00
   10    5   17     -5.42      0.00
   11    5   17     -2.80      0.00
  -10    6   17     -0.26      0.00
   -9    6   17     -1.00      0.00
   -8    6   17     -1.38      0.00
   -7    6   17      0.06      0.00
   -6    6   17      1.42      0.00
   -5    6   17     -4.75      0.00
   -4    6   17     -0.26      0.00
   -3    6   17     -5.10      0.00
   -2    6   17      1.61      0.00
   -1    6   17     -1.21      0.00
    0    6   17     -1.20      0.00
    1    6   17     -2.48      0.00
    2    6   17      1.55      0.00
    3    6   17     -2.69      0.00
    4    6   17     -1.29      0.00
    5    6   17     -4.11      0.00
    6    6   17     -4.17      0.00
    7    6   17     -6.24      0.00
    8    6   17     -2.12      0.00
    9    6   17     -3.05      0.00
   10    6   17      3.68      0.00
   11    6   17      9.01      0.00
  -10    7   17     -0.55      0.00
   -9    7   17     -0.31      0.00
   -8    7   17      1.00      0.00
   -7    7   17      1.74      0.00
   -6    7   17     -2.62      0.00
   -5    7   17      0.50      0.00
   -4    7   17      1.95      0.00
   -3    7   17     -0.59      0.00
   -2    7   17      0.94      0.00
   -1    7   17     -3.15      0.00
    0    7   17      4.55      0.00
    1    7   17     -1.12      0.00
    2    7   17      2.94      0.00
    3    7   17     -2.16      0.00
    4    7   17      4.79      0.00
    5    7   17      0.59      0.00
    6    7   17     -1.24      0.00
    7    7   17     -0.25      0.00
    8    7   17     -2.48      0.00
    9    7   17      4.88      0.00
   10    7   17      2.64      0.00
   -9    8   17      1.56      0.00
   -8    8   17     -1.17      0.00
   -7    8   17     -0.91      0.00
   -6    8   17     -3.06      0.00
   -5    8   17      2.09      0.00
   -4    8   17     -3.64      0.00
   -3    8   17      3.29      0.00
   -2    8   17      0.10      0.00
   -1    8   17      4.97      0.00
    0    8   17     -4.15      0.00
    1    8   17     -2.94      0.00
    2    8   17     -5.75      0.00
    3    8   17     -0.81      0.00
    4    8   17     -4.98      0.00
    5    8   17     -2.80      0.00
    6    8   17      0.68      0.00
    7    8   17     -0.42      0.00
    8    8   17      7.59      0.00
    9    8   17      0.47      0.00
   10    8   17      4.41      0.00
   -8    9   17     -0.15      0.00
   -7    9   17      0.05      0.00
   -6    9   17      1.62      0.00
   -5    9   17      4.63      0.00
   -4    9   17      0.61      0.00
   -3    9   17      2.96      0.00
   -2    9   17     -0.94      0.00
   -1    9   17     -4.83      0.00
    0    9   17     -1.86      0.00
    1    9   17      3.61      0.00
    2    9   17      3.20      0.00
    3    9   17      3.73      0.00
    4    9   17      5.06      0.00
    5    9   17      0.21      0.00
    6    9   17      2.85      0.00
    7    9   17      4.02      0.00
    8    9   17      1.88      0.00
    9    9   17     -1.18      0.00
   -7   10   17      1.98      0.00
   -6   10   17      5.59      0.00
   -5   10   17     -1.74      0.00
   -4   10   17      2.50      0.00
   -3   10   17     -0.64      0.00
   -2   10   17     -4.75      0.00
   -1   10   17      3.00      0.00
    0   10   17      0.07      0.00
    1   10   17     -1.21      0.00
    2   10   17     -1.54      0.00
    3   10   17     -0.73      0.00
    4   10   17     -6.12      0.00
    5   10   17      3.64      0.00
    6   10   17      2.58      0.00
    7   10   17      1.09      0.00
    8   10   17     -2.05      0.00
   -6   11   17     -3.41      0.00
   -5   11   17     -3.39      0.00
   -4   11   17     -0.34      0.00
   -3   11   17     -5.30      0.00
   -2   11   17      5.61      0.00
   -1   11   17      0.33      0.00
    0   11   17      3.03      0.00
    1   11   17      2.89      0.00
    2   11   17      2.52      0.00
    3   11   17     -1.01      0.00
    4   11   17      3.25      0.00
    5   11   17      2.78      0.00
    6   11   17     -3.80      0.00
    7   11   17     -0.68      0.00
   -5   12   17      0.97      0.00
   -4   12   17     -1.23      0.00
   -3   12   17      2.05      0.00
   -2   12   17      0.03      0.00
   -1   12   17      0.12      0.00
    0   12   17     -0.46      0.00
    1   12   17      0.96      0.00
    2   12   17     -3.63      0.00
    3   12   17      1.18      0.00
    4   12   17      2.90      0.00
    5   12   17     -4.00      0.00
    6   12   17      0.26      0.00
   -3   13   17     -0.57      0.00
   -2   13   17     -0.31      0.00
   -1   13   17     -3.73      0.00
    0   13   17      0.95      0.00
    1   13   17     -5.00      0.00
    2   13   17      2.96      0.00
    3   13   17      4.23      0.00
    4   13   17     -4.07      0.00
   -2  -10   18      1.48      0.00
   -1  -10   18      0.78      0.00
    0  -10   18      3.87      0.00
    1  -10   18      0.64      0.00
   -5   -9   18      0.89      0.00
   -4   -9   18      0.96      0.00
   -3   -9   18      0.53      0.00
   -2   -9   18     -4.20      0.00
   -1   -9   18     -1.13      0.00
    0   -9   18     -4.12      0.00
    1   -9   18     -4.83      0.00
    2   -9   18     -3.09      0.00
    3   -9   18     -2.14      0.00
    4   -9   18     -1.80      0.00
   -6   -8   18     -2.14      0.00
   -5   -8   18     -4.07      0.00
   -4   -8   18     -1.56      0.00
   -3   -8   18     -5.95      0.00
   -2   -8   18     -0.54      0.00
   -1   -8   18      1.70      0.00
    0   -8   18     -1.59      0.00
    1   -8   18      2.32      0.00
    2   -8   18      3.21      0.00
    3   -8   18     -0.11      0.00
    4   -8   18      2.46      0.00
    5   -8   18     -1.30      0.00
   -7   -7   18     -2.40      0.00
   -6   -7   18      1.89      0.00
   -5   -7   18      1.38      0.00
   -4   -7   18      4.72      0.00
   -3   -7   18      3.00      0.00
   -2   -7   18      5.10      0.00
   -1   -7   18     -4.66      0.00
    0   -7   18     -0.12      0.00
    1   -7   18     -0.48      0.00
    2   -7   18     -0.99      0.00
    3   -7   18      1.02      0.00
    4   -7   18      0.32      0.00
    5   -7   18      3.02      0.00
    6   -7   18     -1.90      0.00
    7   -7   18      4.85      0.00
   -8   -6   18     -4.64      0.00
   -7   -6   18      4.71      0.00
   -6   -6   18     -1.84      0.00
   -5   -6   18      4.69      0.00
   -4   -6   18     -3.16      0.00
   -3   -6   18      0.68      0.00
   -2   -6   18     -2.81      0.00
   -1   -6   18      1.57      0.00
    0   -6   18      2.13      0.00
    1   -6   18      2.29      0.00
    2   -6   18      0.32      0.00
    3   -6   18     -0.87      0.00
    4   -6   18      0.06      0.00
    5   -6   18     -4.61      0.00
    6   -6   18      3.04      0.00
    7   -6   18      0.68      0.00
   -9   -5   18      0.39      0.00
   -8   -5   18      5.52      0.00
   -7   -5   18     -0.27      0.00
   -6   -5   18      1.08      0.00
   -5   -5   18     -3.76      0.00
   -4   -5   18     -4.06      0.00
   -3   -5   18     -0.11      0.00
   -2   -5   18     -2.09      0.00
   -1   -5   18      0.91      0.00
    0   -5   18      2.20      0.00
    1   -5   18      1.08      0.00
    2   -5   18     -2.90      0.00
    3   -5   18      5.12      0.00
    4   -5   18     -3.46      0.00
    5   -5   18      5.38      0.00
    6   -5   18     -0.65      0.00
    7   -5   18     -5.14      0.00
    8   -5   18      0.23      0.00
   -9   -4   18     -2.03      0.00
   -8   -4   18     -2.54      0.00
   -7   -4   18     -3.27      0.00
   -6   -4   18     -2.00      0.00
   -5   -4   18     -3.04      0.00
   -4   -4   18      2.87      0.00
   -3   -4   18     -1.64      0.00
   -2   -4   18     -0.01      0.00
   -1   -4   18      0.71      0.00
    0   -4   18     -0.87      0.00
    1   -4   18     -8.18      0.00
    2   -4   18      4.11      0.00
    3   -4   18     -7.39      0.00
    4   -4   18      0.20      0.00
    5   -4   18     -2.25      0.00
    6   -4   18     -2.13      0.00
    7   -4   18     -0.34      0.00
    8   -4   18      4.07      0.00
    9   -4   18     -2.70      0.00
  -10   -3   18     -0.56      0.00
   -9   -3   18      0.81      0.00
   -8   -3   18      0.52      0.00
   -7   -3   18     -0.45      0.00
   -6   -3   18      1.15      0.00
   -5   -3   18      0.02      0.00
   -4   -3   18      2.46      0.00
   -3   -3   18      0.27      0.00
   -2   -3   18      2.13      0.00
   -1   -3   18      2.53      0.00
    0   -3   18     -4.76      0.00
    1   -3   18      5.41      0.00
    2   -3   18      1.25      0.00
    3   -3   18     -1.62      0.00
    4   -3   18      4.96      0.00
    5   -3   18     -4.40      0.00
    6   -3   18     -3.41      0.00
    7   -3   18      1.06      0.00
    8   -3   18     -2.74      0.00
    9   -3   18     -0.34      0.00
  -10   -2   18     -2.59      0.00
   -9   -2   18     -0.42      0.00
   -8   -2   18     -0.90      0.00
   -7   -2   18      2.24      0.00
   -6   -2   18     -1.22      0.00
   -5   -2   18      6.71      0.00
   -4   -2   18     -2.04      0.00
   -3   -2   18      1.01      0.00
   -2   -2   18      2.37      0.00
   -1   -2   18     -3.85      0.00
    0   -2   18      2.51      0.00
    1   -2   18      6.19      0.00
    2   -2   18     -5.61      0.00
    3   -2   18      6.57      0.00
    4   -2   18     -3.38      0.00
    5   -2   18      1.65      0.00
    6   -2   18      6.80      0.00
    7   -2   18      4.55      0.00
    8   -2   18      0.68      0.00
    9   -2   18      3.40      0.00
   10   -2   18     -0.77      0.00
  -10   -1   18      2.45      0.00
   -9   -1   18      1.81      0.00
   -8   -1   18      0.06      0.00
   -7   -1   18      0.32      0.00
   -6   -1   18      3.46      0.00
   -5   -1   18     -3.26      0.00
   -4   -1   18     -0.19      0.00
   -3   -1   18      0.65      0.00
   -2   -1   18     -3.08      0.00
   -1   -1   18     -1.28      0.00
    0   -1   18      2.83      0.00
    1   -1   18     -6.80      0.00
    2   -1   18      0.65      0.00
    3   -1   18      0.87      0.00
    4   -1   18      0.62      0.00
    5   -1   18      2.98      0.00
    6   -1   18      1.19      0.00
    7   -1   18     -6.21      0.00
    8   -1   18     -0.01      0.00
    9   -1   18     -4.06      0.00
   10   -1   18     -4.14      0.00
  -10    0   18     -0.32      0.00
   -9    0   18     -0.49      0.00
   -8    0   18     -0.02      0.00
   -7    0   18      0.87      0.00
   -6    0   18     -2.26      0.00
   -5    0   18     -1.71      0.00
   -4    0   18      1.10      0.00
   -3    0   18      0.07      0.00
   -2    0   18      0.41      0.00
   -1    0   18      2.12      0.00
    0    0   18      0.45      0.00
    1    0   18     -2.73      0.00
    2    0   18      2.98      0.00
    3    0   18     -3.58      0.00
    4    0   18     -3.73      0.00
    5    0   18      0.15      0.00
    6    0   18     -2.02      0.00
    7    0   18      0.72      0.00
    8    0   18      3.41      0.00
    9    0   18     -0.32      0.00
   10    0   18      4.32      0.00
  -10    1   18      0.21      0.00
   -9    1   18     -1.87      0.00
   -8    1   18     -0.07      0.00
   -7    1   18     -0.12      0.00
   -6    1   18     -1.07      0.00
   -5    1   18      2.69      0.00
   -4    1   18      1.29      0.00
   -3    1   18     -0.67      0.00
   -2    1   18     -0.65      0.00
   -1    1   18      2.17      0.00
    0    1   18     -6.45      0.00
    1    1   18      1.38      0.00
    2    1   18     -2.03      0.00
    3    1   18     -1.42      0.00
    4    1   18      3.04      0.00
    5    1   18      2.23      0.00
    6    1   18     -4.70      0.00
    7    1   18      2.90      0.00
    8    1   18     -4.65      0.00
    9    1   18      3.40      0.00
   10    1   18      1.59      0.00
  -10    2   18     -1.11      0.00
   -9    2   18      1.84      0.00
   -8    2   18      1.39      0.00
   -7    2   18     -1.68      0.00
   -6    2   18      0.10      0.00
   -5    2   18     -1.12      0.00
   -4    2   18     -2.43      0.00
   -3    2   18     -1.67      0.00
   -2    2   18      2.71      0.00
   -1    2   18     -2.06      0.00
    0    2   18      3.63      0.00
    1    2   18      6.76      0.00
    2    2   18      2.00      0.00
    3    2   18      1.85      0.00
    4    2   18      2.48      0.00
    5    2   18     -4.06      0.00
    6    2   18      0.38      0.00
    7    2   18      3.28      0.00
    8    2   18      0.76      0.00
    9    2   18     -0.18      0.00
   10    2   18     -1.91      0.00
  -10    3   18      3.27      0.00
   -9    3   18     -1.12      0.00
   -8    3   18     -0.17      0.00
   -7    3   18     -0.42      0.00
   -6    3   18      1.07      0.00
   -5    3   18      0.71      0.00
   -4    3   18     -1.45      0.00
   -3    3   18      2.41      0.00
   -2    3   18     -2.32      0.00
   -1    3   18     -0.29      0.00
    0    3   18      0.67      0.00
    1    3   18     -2.89      0.00
    2    3   18     -2.12      0.00
    3    3   18      2.13      0.00
    4    3   18     -0.26      0.00
    5    3   18     -2.45      0.00
    6    3   18      4.80      0.00
    7    3   18     -6.02      0.00
    8    3   18     -3.28      0.00
    9    3   18     -0.59      0.00
   10    3   18     -0.57      0.00
  -10    4   18     -3.13      0.00
   -9    4   18      0.29      0.00
   -8    4   18     -0.91      0.00
   -7    4   18      0.11      0.00
   -6    4   18      2.00      0.00
   -5    4   18     -2.31      0.00
   -4    4   18      2.95      0.00
   -3    4   18     -1.17      0.00
   -2    4   18      0.47      0.00
   -1    4   18     -2.77      0.00
    0    4   18      4.82      0.00
    1    4   18     -6.08      0.00
    2    4   18      3.37      0.00
    3    4   18     -1.07      0.00
    4    4   18     -4.32      0.00
    5    4   18      3.90      0.00
    6    4   18     -1.21      0.00
    7    4   18      0.74      0.00
    8    4   18      7.72      0.00
    9    4   18      2.56      0.00
   10    4   18      1.80      0.00
  -10    5   18      1.43      0.00
   -9    5   18      0.23      0.00
   -8    5   18      1.76      0.00
   -7    5   18      2.49      0.00
   -6    5   18     -2.67      0.00
   -5    5   18      2.91      0.00
   -4    5   18     -2.42      0.00
   -3    5   18      1.98      0.00
   -2    5   18     -1.52      0.00
   -1    5   18      4.29      0.00
    0    5   18    -10.19      0.00
    1    5   18      1.66      0.00
    2    5   18     -2.61      0.00
    3    5   18     -6.06      0.00
    4    5   18      2.19      0.00
    5    5   18     -2.66      0.00
    6    5   18      1.10      0.00
    7    5   18      0.28      0.00
    8    5   18     -0.42      0.00
    9    5   18     -3.91      0.00
   10    5   18     -1.16      0.00
   -9    6   18      0.08      0.00
   -8    6   18     -0.86      0.00
   -7    6   18     -2.27      0.00
   -6    6   18      0.95      0.00
   -5    6   18     -0.78      0.00
   -4    6   18      2.23      0.00
   -3    6   18     -1.65      0.00
   -2    6   18     -0.92      0.00
   -1    6   18     -2.44      0.00
    0    6   18      5.34      0.00
    1    6   18      4.39      0.00
    2    6   18      2.58      0.00
    3    6   18      6.52      0.00
    4    6   18      6.34      0.00
    5    6   18      5.32      0.00
    6    6   18      1.04      0.00
    7    6   18      2.97      0.00
    8    6   18     -2.89      0.00
    9    6   18     -2.05      0.00
   10    6   18     -1.94      0.00
   -9    7   18     -0.44      0.00
   -8    7   18     -1.16      0.00
   -7    7   18     -0.62      0.00
   -6    7   18      1.40      0.00
   -5    7   18     -1.50      0.00
   -4    7   18     -0.08      0.00
   -3    7   18      1.36      0.00
   -2    7   18      3.45      0.00
   -1    7   18      4.82      0.00
    0    7   18      0.57      0.00
    1    7   18      0.97      0.00
    2    7   18     -4.39      0.00
    3    7   18      1.61      0.00
    4    7   18     -9.52      0.00
    5    7   18     -2.92      0.00
    6    7   18     -4.08      0.00
    7    7   18     -0.67      0.00
    8    7   18     -3.21      0.00
    9    7   18      4.58      0.00
   -8    8   18     -0.01      0.00
   -7    8   18      2.06      0.00
   -6    8   18     -1.65      0.00
   -5    8   18     -0.77      0.00
   -4    8   18      0.00      0.00
   -3    8   18     -5.16      0.00
   -2    8   18     -0.91      0.00
   -1    8   18     -1.87      0.00
    0    8   18      0.32      0.00
    1    8   18      0.11      0.00
    2    8   18      5.26      0.00
    3    8   18     -3.27      0.00
    4    8   18      3.34      0.00
    5    8   18     -1.41      0.00
    6    8   18     -0.98      0.00
    7    8   18     -4.02      0.00
    8    8   18      1.64      0.00
    9    8   18     -2.11      0.00
   -7    9   18     -0.92      0.00
   -6    9   18     -1.56      0.00
   -5    9   18      0.34      0.00
   -4    9   18     -2.03      0.00
   -3    9   18      3.42      0.00
   -2    9   18      3.25      0.00
   -1    9   18     -5.90      0.00
    0    9   18     -3.29      0.00
    1    9   18     -5.82      0.00
    2    9   18    -10.46      0.00
    3    9   18     -0.28      0.00
    4    9   18     -1.51      0.00
    5    9   18      0.41      0.00
    6    9   18      2.07      0.00
    7    9   18      2.57      0.00
    8    9   18      0.76      0.00
   -6   10   18      0.35      0.00
   -5   10   18      0.16      0.00
   -4   10   18      1.58      0.00
   -3   10   18      0.22      0.00
   -2   10   18     -6.42      0.00
   -1   10   18      3.72      0.00
    0   10   18      3.44      0.00
    1   10   18      2.60      0.00
    2   10   18     12.97      0.00
    3   10   18      1.96      0.00
    4   10   18      1.15      0.00
    5   10   18      1.15      0.00
    6   10   18     -1.52      0.00
    7   10   18     -1.01      0.00
   -5   11   18      2.74      0.00
   -4   11   18     -0.28      0.00
   -3   11   18      0.82      0.00
   -2   11   18      3.40      0.00
   -1   11   18      1.02      0.00
    0   11   18     -1.59      0.00
    1   11   18     -0.27      0.00
    2   11   18     -7.36      0.00
    3   11   18     -4.28      0.00
    4   11   18      0.78      0.00
    5   11   18     -1.94      0.00
    6   11   18      1.36      0.00
   -3   12   18      1.46      0.00
   -2   12   18     -0.42      0.00
   -1   12   18      0.56      0.00
    0   12   18     -0.77      0.00
    1   12   18      0.80      0.00
    2   12   18      1.94      0.00
    3   12   18      2.37      0.00
    4   12   18      0.51      0.00
   -4   -8   19      0.06      0.00
   -3   -8   19     -2.66      0.00
   -2   -8   19      1.93      0.00
   -1   -8   19     -4.52      0.00
    0   -8   19     -2.68      0.00
    1   -8   19     -0.08      0.00
    2   -8   19     -5.89      0.00
    3   -8   19      1.19      0.00
   -6   -7   19      2.75      0.00
   -5   -7   19     -4.08      0.00
   -4   -7   19     -5.31      0.00
   -3   -7   19      0.83      0.00
   -2   -7   19     -0.12      0.00
   -1   -7   19     -3.20      0.00
    0   -7   19      6.22      0.00
    1   -7   19     -4.74      0.00
    2   -7   19      3.79      0.00
    3   -7   19      1.07      0.00
    4   -7   19      0.45      0.00
    5   -7   19      1.17      0.00
   -7   -6   19     -1.06      0.00
   -6   -6   19     -4.91      0.00
   -5   -6   19     -0.84      0.00
   -4   -6   19      1.90      0.00
   -3   -6   19      3.16      0.00
   -2   -6   19     -6.25      0.00
   -1   -6   19      3.96      0.00
    0   -6   19     -5.61      0.00
    1   -6   19      0.57      0.00
    2   -6   19      2.74      0.00
    3   -6   19     -0.32      0.00
    4   -6   19      0.73      0.00
    5   -6   19     -0.86      0.00
    6   -6   19      1.63      0.00
   -7   -5   19     -0.77      0.00
   -6   -5   19      5.05      0.00
   -5   -5   19      1.12      0.00
   -4   -5   19      4.69      0.00
   -3   -5   19     -3.14      0.00
   -2   -5   19      3.88      0.00
   -1   -5   19      0.46      0.00
    0   -5   19     -1.12      0.00
    1   -5   19      3.23      0.00
    2   -5   19     -3.83      0.00
    3   -5   19     -1.23      0.00
    4   -5   19     -2.20      0.00
    5   -5   19      2.23      0.00
    6   -5   19     -2.90      0.00
    7   -5   19      1.58      0.00
   -8   -4   19      0.96      0.00
   -7   -4   19      3.29      0.00
   -6   -4   19     -1.97      0.00
   -5   -4   19      1.14      0.00
   -4   -4   19     -0.95      0.00
   -3   -4   19     -0.50      0.00
   -2   -4   19      3.65      0.00
   -1   -4   19     -1.00      0.00
    0   -4   19      3.96      0.00
    1   -4   19     -0.41      0.00
    2   -4   19      2.30      0.00
    3   -4   19      1.01      0.00
    4   -4   19      4.72      0.00
    5   -4   19     -1.06      0.00
    6   -4   19      2.46      0.00
    7   -4   19      1.95      0.00
    8   -4   19     -0.50      0.00
   -8   -3   19     -0.94      0.00
   -7   -3   19     -1.54      0.00
   -6   -3   19     -1.36      0.00
   -5   -3   19     -0.60      0.00
   -4   -3   19     -5.21      0.00
   -3   -3   19      0.82      0.00
   -2   -3   19     -4.49      0.00
   -1   -3   19     -1.53      0.00
    0   -3   19     -2.77      0.00
    1   -3   19      0.20      0.00
    2   -3   19     -3.92      0.00
    3   -3   19      2.46      0.00
    4   -3   19     -2.75      0.00
    5   -3   19     -0.41      0.00
    6   -3   19      0.76      0.00
    7   -3   19     -2.99      0.00
    8   -3   19     -1.84      0.00
   -9   -2   19     -0.42      0.00
   -8   -2   19      0.07      0.00
   -7   -2   19     -1.65      0.00
   -6   -2   19     -1.86      0.00
   -5   -2   19     -1.67      0.00
   -4   -2   19      0.28      0.00
   -3   -2   19     -0.22      0.00
   -2   -2   19     -0.09      0.00
   -1   -2   19     -1.42      0.00
    0   -2   19      3.46      0.00
    1   -2   19     -3.74      0.00
    2   -2   19      5.26      0.00
    3   -2   19     -1.39      0.00
    4   -2   19     -4.12      0.00
    5   -2   19     -1.30      0.00
    6   -2   19     -6.34      0.00
    7   -2   19     -2.37      0.00
    8   -2   19      0.46      0.00
    9   -2   19      1.21      0.00
   -9   -1   19     -1.50      0.00
   -8   -1   19     -0.52      0.00
   -7   -1   19     -0.24      0.00
   -6   -1   19      3.94      0.00
   -5   -1   19     -0.60      0.00
   -4   -1   19      5.26      0.00
   -3   -1   19     -0.42      0.00
   -2   -1   19      1.28      0.00
   -1   -1   19      5.86      0.00
    0   -1   19     -1.64      0.00
    1   -1   19      4.52      0.00
    2   -1   19     -0.85      0.00
    3   -1   19     -4.76      0.00
    4   -1   19      1.91      0.00
    5   -1   19      0.57      0.00
    6   -1   19      3.32      0.00
    7   -1   19      4.39      0.00
    8   -1   19      2.35      0.00
    9   -1   19     -0.94      0.00
   -9    0   19      1.61      0.00
   -8    0   19      1.25      0.00
   -7    0   19      2.02      0.00
   -6    0   19     -0.84      0.00
   -5    0   19      1.98      0.00
   -4    0   19     -3.13      0.00
   -3    0   19     -1.01      0.00
   -2    0   19      1.97      0.00
   -1    0   19     -4.30      0.00
    0    0   19      0.70      0.00
    1    0   19     -0.97      0.00
    2    0   19     -2.09      0.00
    3    0   19      4.11      0.00
    4    0   19      4.20      0.00
    5    0   19      1.24      0.00
    6    0   19      0.75      0.00
    7    0   19     -0.56      0.00
    8    0   19     -3.95      0.00
    9    0   19      0.40      0.00
   -9    1   19      0.00      0.00
   -8    1   19      0.98      0.00
   -7    1   19     -0.19      0.00
   -6    1   19     -1.99      0.00
   -5    1   19      1.44      0.00
   -4    1   19     -0.86      0.00
   -3    1   19      3.25      0.00
   -2    1   19     -1.80      0.00
   -1    1   19     -0.48      0.00
    0    1   19     -0.67      0.00
    1    1   19     -4.83      0.00
    2    1   19     -0.46      0.00
    3    1   19     -1.52      0.00
    4    1   19     -2.37      0.00
    5    1   19     -1.61      0.00
    6    1   19      3.05      0.00
    7    1   19     -1.88      0.00
    8    1   19      3.58      0.00
    9    1   19     -0.31      0.00
   -9    2   19     -0.73      0.00
   -8    2   19     -2.69      0.00
   -7    2   19     -0.61      0.00
   -6    2   19      1.59      0.00
   -5    2   19      0.84      0.00
   -4    2   19     -1.39      0.00
   -3    2   19      1.58      0.00
   -2    2   19     -3.45      0.00
   -1    2   19      0.58      0.00
    0    2   19     -2.70      0.00
    1    2   19      1.24      0.00
    2    2   19      2.73      0.00
    3    2   19     -0.18      0.00
    4    2   19      0.98      0.00
    5    2   19      0.56      0.00
    6    2   19     -4.41      0.00
    7    2   19     -0.08      0.00
    8    2   19      0.14      0.00
    9    2   19     -0.51      0.00
   -9    3   19     -0.54      0.00
   -8    3   19      1.27      0.00
   -7    3   19     -0.25      0.00
   -6    3   19     -1.64      0.00
   -5    3   19     -3.36      0.00
   -4    3   19      3.07      0.00
   -3    3   19     -0.71      0.00
   -2    3   19      2.63      0.00
   -1    3   19      7.13      0.00
    0    3   19      0.96      0.00
    1    3   19      9.30      0.00
    2    3   19     -3.87      0.00
    3    3   19      4.28      0.00
    4    3   19     -3.98      0.00
    5    3   19      1.39      0.00
    6    3   19      1.70      0.00
    7    3   19      3.50      0.00
    8    3   19     -0.92      0.00
    9    3   19      0.89      0.00
   -9    4   19      2.27      0.00
   -8    4   19      0.71      0.00
   -7    4   19     -1.11      0.00
   -6    4   19      3.35      0.00
   -5    4   19     -0.34      0.00
   -4    4   19      1.48      0.00
   -3    4   19     -4.40      0.00
   -2    4   19      1.33      0.00
   -1    4   19     -7.49      0.00
    0    4   19      2.23      0.00
    1    4   19     -5.31      0.00
    2    4   19     -0.01      0.00
    3    4   19     -1.31      0.00
    4    4   19     -1.22      0.00
    5    4   19      0.82      0.00
    6    4   19     -3.69      0.00
    7    4   19     -1.93      0.00
    8    4   19     -6.13      0.00
    9    4   19     -0.17      0.00
   -8    5   19     -0.72      0.00
   -7    5   19      0.31      0.00
   -6    5   19      0.13      0.00
   -5    5   19      0.34      0.00
   -4    5   19     -3.00      0.00
   -3    5   19     -0.89      0.00
   -2    5   19     -0.33      0.00
   -1    5   19      1.45      0.00
    0    5   19     -0.93      0.00
    1    5   19     -1.34      0.00
    2    5   19      2.68      0.00
    3    5   19     -2.69      0.00
    4    5   19      6.11      0.00
    5    5   19     -2.79      0.00
    6    5   19      3.82      0.00
    7    5   19     -1.79      0.00
    8    5   19      5.41      0.00
    9    5   19      2.96      0.00
   -8    6   19     -0.23      0.00
   -7    6   19      1.75      0.00
   -6    6   19     -1.51      0.00
   -5    6   19     -3.62      0.00
   -4    6   19      3.98      0.00
   -3    6   19      3.21      0.00
   -2    6   19      2.81      0.00
   -1    6   19     -4.30      0.00
    0    6   19      1.85      0.00
    1    6   19     -7.26      0.00
    2    6   19      1.26      0.00
    3    6   19     -4.24      0.00
    4    6   19     -0.08      0.00
    5    6   19     -0.81      0.00
    6    6   19      0.09      0.00
    7    6   19      0.73      0.00
    8    6   19      2.26      0.00
   -7    7   19      0.67      0.00
   -6    7   19     -2.42      0.00
   -5    7   19      8.65      0.00
   -4    7   19     -3.10      0.00
   -3    7   19      0.51      0.00
   -2    7   19     -6.85      0.00
   -1    7   19      5.79      0.00
    0    7   19     -3.66      0.00
    1    7   19      8.89      0.00
    2    7   19     -1.22      0.00
    3    7   19      8.49      0.00
    4    7   19     -1.59      0.00
    5    7   19      1.38      0.00
    6    7   19      0.79      0.00
    7    7   19      0.29      0.00
    8    7   19      2.59      0.00
   -7    8   19      0.02      0.00
   -6    8   19      2.30      0.00
   -5    8   19      0.89      0.00
   -4    8   19     -0.23      0.00
   -3    8   19      2.10      0.00
   -2    8   19      4.90      0.00
   -1    8   19     -1.32      0.00
    0    8   19     -0.67      0.00
    1    8   19     -0.16      0.00
    2    8   19      0.69      0.00
    3    8   19     -4.83      0.00
    4    8   19      2.66      0.00
    5    8   19      0.64      0.00
    6    8   19      2.95      0.00
    7    8   19      2.77      0.00
   -6    9   19      0.08      0.00
   -5    9   19     -7.68      0.00
   -4    9   19     -3.43      0.00
   -3    9   19     -3.85      0.00
   -2    9   19     -4.18      0.00
   -1    9   19      1.11      0.00
    0    9   19      6.79      0.00
    1    9   19      3.39      0.00
    2    9   19     -3.05      0.00
    3    9   19      6.39      0.00
    4    9   19     -8.48      0.00
    5    9   19      1.86      0.00
    6    9   19     -5.93      0.00
    7    9   19     -2.00      0.00
   -5   10   19      0.15      0.00
   -4   10   19      6.25      0.00
   -3   10   19     -0.37      0.00
   -2   10   19      4.58      0.00
   -1   10   19     -0.37      0.00
    0   10   19     -7.16      0.00
    1   10   19     -8.29      0.00
    2   10   19      2.07      0.00
    3   10   19     -9.13      0.00
    4   10   19      7.33      0.00
    5   10   19     -1.13      0.00
   -3   11   19     -0.01      0.00
   -2   11   19      0.23      0.00
   -1   11   19     -3.27      0.00
    0   11   19      6.09      0.00
    1   11   19      5.82      0.00
    2   11   19     -0.91      0.00
    3   11   19      7.32      0.00
    4   11   19     -2.22      0.00
   -3   -7   20     -1.53      0.00
   -2   -7   20     -2.33      0.00
   -1   -7   20      1.60      0.00
    0   -7   20     -0.04      0.00
    1   -7   20     -1.12      0.00
    2   -7   20      0.33      0.00
   -4   -6   20     -2.68      0.00
   -3   -6   20     -0.45      0.00
   -2   -6   20      0.03      0.00
   -1   -6   20      1.20      0.00
    0   -6   20     -5.20      0.00
    1   -6   20      1.58      0.00
    2   -6   20     -3.98      0.00
    3   -6   20      2.66      0.00
    4   -6   20      1.32      0.00
   -6   -5   20     -0.25      0.00
   -5   -5   20     -1.14      0.00
   -4   -5   20      3.39      0.00
   -3   -5   20     -0.79      0.00
   -2   -5   20      2.13      0.00
   -1   -5   20     -6.04      0.00
    0   -5   20      4.53      0.00
    1   -5   20     -2.68      0.00
    2   -5   20      3.27      0.00
    3   -5   20      0.13      0.00
    4   -5   20     -0.81      0.00
    5   -5   20     -2.33      0.00
   -6   -4   20      2.97      0.00
   -5   -4   20      3.97      0.00
   -4   -4   20     -0.11      0.00
   -3   -4   20      1.71      0.00
   -2   -4   20     -1.30      0.00
   -1   -4   20      4.19      0.00
    0   -4   20     -1.62      0.00
    1   -4   20      0.09      0.00
    2   -4   20      0.83      0.00
    3   -4   20     -1.56      0.00
    4   -4   20     -0.11      0.00
    5   -4   20      2.52      0.00
    6   -4   20      1.00      0.00
   -7   -3   20      0.73      0.00
   -6   -3   20      0.30      0.00
   -5   -3   20      0.34      0.00
   -4   -3   20      1.04      0.00
   -3   -3   20      0.92      0.00
   -2   -3   20      2.38      0.00
   -1   -3   20     -1.09      0.00
    0   -3   20     -0.12      0.00
    1   -3   20      4.27      0.00
    2   -3   20     -1.81      0.00
    3   -3   20      3.41      0.00
    4   -3   20      2.13      0.00
    5   -3   20      2.24      0.00
    6   -3   20      2.03      0.00
    7   -3   20      0.32      0.00
   -7   -2   20     -2.21      0.00
   -6   -2   20     -2.86      0.00
   -5   -2   20     -1.67      0.00
   -4   -2   20     -3.58      0.00
   -3   -2   20     -0.69      0.00
   -2   -2   20     -2.38      0.00
   -1   -2   20     -1.94      0.00
    0   -2   20      3.72      0.00
    1   -2   20     -5.20      0.00
    2   -2   20      1.98      0.00
    3   -2   20     -1.93      0.00
    4   -2   20      0.60      0.00
    5   -2   20     -1.42      0.00
    6   -2   20     -1.81      0.00
    7   -2   20     -2.53      0.00
   -8   -1   20     -0.15      0.00
   -7   -1   20     -1.63      0.00
   -6   -1   20      0.95      0.00
   -5   -1   20     -2.65      0.00
   -4   -1   20      0.77      0.00
   -3   -1   20     -1.29      0.00
   -2   -1   20     -2.68      0.00
   -1   -1   20      3.32      0.00
    0   -1   20     -3.63      0.00
    1   -1   20      0.71      0.00
    2   -1   20     -0.76      0.00
    3   -1   20     -1.36      0.00
    4   -1   20     -4.66      0.00
    5   -1   20     -4.01      0.00
    6   -1   20     -2.28      0.00
    7   -1   20     -2.39      0.00
   -8    0   20      0.01      0.00
   -7    0   20      1.45      0.00
   -6    0   20      0.25      0.00
   -5    0   20      2.30      0.00
   -4    0   20      0.39      0.00
   -3    0   20      1.93      0.00
   -2    0   20      1.69      0.00
   -1    0   20      1.77      0.00
    0    0   20     -2.06      0.00
    1    0   20      2.36      0.00
    2    0   20     -1.10      0.00
    3    0   20     -0.23      0.00
    4    0   20      1.65      0.00
    5    0   20      5.19      0.00
    6    0   20     -0.25      0.00
    7    0   20      5.91      0.00
    8    0   20     -1.16      0.00
   -8    1   20      1.13      0.00
   -7    1   20     -0.16      0.00
   -6    1   20      0.69      0.00
   -5    1   20     -1.30      0.00
   -4    1   20      0.81      0.00
   -3    1   20     -3.19      0.00
   -2    1   20      1.39      0.00
   -1    1   20     -1.92      0.00
    0    1   20      0.35      0.00
    1    1   20      4.18      0.00
    2    1   20      1.26      0.00
    3    1   20      3.80      0.00
    4    1   20      4.48      0.00
    5    1   20     -1.67      0.00
    6    1   20      0.88      0.00
    7    1   20     -2.15      0.00
    8    1   20     -0.08      0.00
   -8    2   20     -1.78      0.00
   -7    2   20     -0.71      0.00
   -6    2   20     -0.34      0.00
   -5    2   20     -0.38      0.00
   -4    2   20     -0.30      0.00
   -3    2   20      1.83      0.00
   -2    2   20      1.63      0.00
   -1    2   20     -3.58      0.00
    0    2   20      5.04      0.00
    1    2   20     -4.90      0.00
    2    2   20     -2.13      0.00
    3    2   20     -0.23      0.00
    4    2   20     -3.48      0.00
    5    2   20     -2.97      0.00
    6    2   20      1.99      0.00
    7    2   20      1.67      0.00
    8    2   20     -2.10      0.00
   -8    3   20      0.89      0.00
   -7    3   20      2.12      0.00
   -6    3   20      1.42      0.00
   -5    3   20      1.77      0.00
   -4    3   20      2.42      0.00
   -3    3   20     -1.18      0.00
   -2    3   20     -1.70      0.00
   -1    3   20     -1.25      0.00
    0    3   20     -0.46      0.00
    1    3   20     -6.33      0.00
    2    3   20      2.73      0.00
    3    3   20     -5.56      0.00
    4    3   20     -4.06      0.00
    5    3   20      0.03      0.00
    6    3   20      1.56      0.00
    7    3   20     -8.35      0.00
    8    3   20      4.94      0.00
   -7    4   20     -2.11      0.00
   -6    4   20     -2.32      0.00
   -5    4   20     -0.52      0.00
   -4    4   20     -3.28      0.00
   -3    4   20      3.14      0.00
   -2    4   20     -0.96      0.00
   -1    4   20      5.91      0.00
    0    4   20     -2.66      0.00
    1    4   20      2.58      0.00
    2    4   20      2.32      0.00
    3    4   20     -0.41      0.00
    4    4   20      7.05      0.00
    5    4   20      4.51      0.00
    6    4   20     -1.41      0.00
    7    4   20      6.62      0.00
    8    4   20      0.39      0.00
   -7    5   20      1.20      0.00
   -6    5   20     -0.66      0.00
   -5    5   20      0.13      0.00
   -4    5   20      0.77      0.00
   -3    5   20     -1.72      0.00
   -2    5   20     -0.83      0.00
   -1    5   20      0.06      0.00
    0    5   20     -2.40      0.00
    1    5   20     10.45      0.00
    2    5   20     -4.33      0.00
    3    5   20      3.94      0.00
    4    5   20     -0.58      0.00
    5    5   20     -1.57      0.00
    6    5   20     -4.16      0.00
    7    5   20     -0.23      0.00
   -7    6   20      0.43      0.00
   -6    6   20      1.26      0.00
   -5    6   20     -1.11      0.00
   -4    6   20     -0.75      0.00
   -3    6   20     -3.12      0.00
   -2    6   20      2.54      0.00
   -1    6   20      0.90      0.00
    0    6   20      4.65      0.00
    1    6   20     -3.78      0.00
    2    6   20     -2.98      0.00
    3    6   20      4.70      0.00
    4    6   20     -6.73      0.00
    5    6   20     -2.23      0.00
    6    6   20     -0.65      0.00
    7    6   20      1.46      0.00
   -6    7   20     -0.88      0.00
   -5    7   20      1.42      0.00
   -4    7   20      1.22      0.00
   -3    7   20      5.40      0.00
   -2    7   20      1.07      0.00
   -1    7   20     -4.88      0.00
    0    7   20     -5.85      0.00
    1    7   20     -4.92      0.00
    2    7   20      0.62      0.00
    3    7   20     -3.86      0.00
    4    7   20      1.48      0.00
    5    7   20      2.95      0.00
    6    7   20      5.35      0.00
   -5    8   20     -0.57      0.00
   -4    8   20      0.32      0.00
   -3    8   20     -4.31      0.00
   -2    8   20     -1.98      0.00
   -1    8   20     -2.65      0.00
    0    8   20      4.92      0.00
    1    8   20     -1.01      0.00
    2    8   20      4.15      0.00
    3    8   20     -4.50      0.00
    4    8   20      4.23      0.00
    5    8   20     -2.80      0.00
    6    8   20     -0.85      0.00
   -4    9   20      1.07      0.00
   -3    9   20      2.89      0.00
   -2    9   20     -2.12      0.00
   -1    9   20      3.76      0.00
    0    9   20      0.39      0.00
    1    9   20      1.57      0.00
    2    9   20      2.27      0.00
    3    9   20      6.51      0.00
    4    9   20     -0.80      0.00
    5    9   20      5.31      0.00
   -2   10   20      3.35      0.00
   -1   10   20      4.00      0.00
    0   10   20      0.93      0.00
    1   10   20      3.72      0.00
    2   10   20     -0.84      0.00
    3   10   20     -6.82      0.00
   -3   -5   21     -0.73      0.00
   -2   -5   21      1.95      0.00
   -1   -5   21     -2.89      0.00
    0   -5   21      0.55      0.00
    1   -5   21     -1.17      0.00
    2   -5   21      1.01      0.00
   -4   -4   21     -0.59      0.00
   -3   -4   21      4.12      0.00
   -2   -4   21     -5.15      0.00
   -1   -4   21      1.25      0.00
    0   -4   21     -3.02      0.00
    1   -4   21      4.00      0.00
    2   -4   21     -2.65      0.00
    3   -4   21      1.72      0.00
    4   -4   21     -4.52      0.00
   -5   -3   21     -1.56      0.00
   -4   -3   21      2.74      0.00
   -3   -3   21     -2.29      0.00
   -2   -3   21      3.15      0.00
   -1   -3   21     -0.82      0.00
    0   -3   21      4.60      0.00
    1   -3   21     -4.84      0.00
    2   -3   21      0.78      0.00
    3   -3   21     -1.44      0.00
    4   -3   21     -0.48      0.00
    5   -3   21      0.95      0.00
   -6   -2   21      1.91      0.00
   -5   -2   21      0.57      0.00
   -4   -2   21      0.95      0.00
   -3   -2   21      1.33      0.00
   -2   -2   21     -1.59      0.00
   -1   -2   21      3.83      0.00
    0   -2   21     -3.96      0.00
    1   -2   21      1.29      0.00
    2   -2   21      2.02      0.00
    3   -2   21     -1.29      0.00
    4   -2   21      2.57      0.00
    5   -2   21      2.75      0.00
   -6   -1   21     -2.73      0.00
   -5   -1   21     -0.12      0.00
   -4   -1   21      1.65      0.00
   -3   -1   21     -1.10      0.00
   -2   -1   21      3.87      0.00
   -1   -1   21     -2.75      0.00
    0   -1   21     -0.67      0.00
    1   -1   21      1.94      0.00
    2   -1   21     -1.01      0.00
    3   -1   21      1.89      0.00
    4   -1   21      3.07      0.00
    5   -1   21     -1.10      0.00
    6   -1   21      0.69      0.00
   -6    0   21     -2.45      0.00
   -5    0   21      1.72      0.00
   -4    0   21     -5.28      0.00
   -3    0   21     -0.05      0.00
   -2    0   21     -3.78      0.00
   -1    0   21     -3.09      0.00
    0    0   21      2.08      0.00
    1    0   21     -1.22      0.00
    2    0   21     -2.42      0.00
    3    0   21     -0.41      0.00
    4    0   21     -2.77      0.00
    5    0   21     -4.09      0.00
    6    0   21     -0.70      0.00
   -6    1   21      2.17      0.00
   -5    1   21     -1.70      0.00
   -4    1   21      1.40      0.00
   -3    1   21      0.75      0.00
   -2    1   21      0.81      0.00
   -1    1   21      3.82      0.00
    0    1   21      0.90      0.00
    1    1   21      0.13      0.00
    2    1   21      3.22      0.00
    3    1   21      0.92      0.00
    4    1   21     -1.23      0.00
    5    1   21      1.51      0.00
    6    1   21      2.47      0.00
   -6    2   21      1.73      0.00
   -5    2   21     -1.81      0.00
   -4    2   21      1.64      0.00
   -3    2   21     -0.52      0.00
   -2    2   21     -0.94      0.00
   -1    2   21      1.12      0.00
    0    2   21      0.70      0.00
    1    2   21      2.43      0.00
    2    2   21     -0.61      0.00
    3    2   21      2.84      0.00
    4    2   21     -1.76      0.00
    5    2   21      5.81      0.00
    6    2   21     -3.98      0.00
   -6    3   21     -2.02      0.00
   -5    3   21      0.93      0.00
   -4    3   21      1.57      0.00
   -3    3   21     -2.51      0.00
   -2    3   21      3.35      0.00
   -1    3   21     -0.38      0.00
    0    3   21     -4.00      0.00
    1    3   21     -1.99      0.00
    2    3   21      0.03      0.00
    3    3   21     -4.89      0.00
    4    3   21      2.73      0.00
    5    3   21     -2.33      0.00
    6    3   21     -0.72      0.00
   -6    4   21      1.35      0.00
   -5    4   21      1.29      0.00
   -4    4   21     -1.76      0.00
   -3    4   21      1.41      0.00
   -2    4   21     -1.62      0.00
   -1    4   21     -5.42      0.00
    0    4   21      0.86      0.00
    1    4   21     -2.44      0.00
    2    4   21     -2.74      0.00
    3    4   21     -2.65      0.00
    4    4   21      2.03      0.00
    5    4   21     -5.79      0.00
    6    4   21      2.19      0.00
   -5    5   21     -0.30      0.00
   -4    5   21     -1.52      0.00
   -3    5   21      1.16      0.00
   -2    5   21      0.09      0.00
   -1    5   21      0.77      0.00
    0    5   21      2.57      0.00
    1    5   21      0.17      0.00
    2    5   21      3.78      0.00
    3    5   21      5.23      0.00
    4    5   21      0.95      0.00
    5    5   21      1.51      0.00
    6    5   21      3.43      0.00
   -5    6   21      2.65      0.00
   -4    6   21      1.75      0.00
   -3    6   21      2.16      0.00
   -2    6   21     -2.91      0.00
   -1    6   21      6.09      0.00
    0    6   21      1.43      0.00
    1    6   21      4.33      0.00
    2    6   21      0.87      0.00
    3    6   21      2.36      0.00
    4    6   21     -5.99      0.00
    5    6   21      3.51      0.00
   -4    7   21     -4.23      0.00
   -3    7   21     -3.42      0.00
   -2    7   21      4.37      0.00
   -1    7   21     -0.63      0.00
    0    7   21     -2.21      0.00
    1    7   21     -1.60      0.00
    2    7   21     -3.12      0.00
    3    7   21     -7.38      0.00
    4    7   21     -0.30      0.00
   -2    8   21     -1.81      0.00
   -1    8   21     -5.39      0.00
    0    8   21     -0.47      0.00
    1    8   21     -2.53      0.00
    2    8   21     -0.63      0.00
    3    8   21      2.74      0.00
   -1   -3   22     -3.99      0.00
    0   -3   22      0.73      0.00
   -3   -2   22      2.09      0.00
   -2   -2   22     -0.35      0.00
   -1   -2   22      4.29      0.00
    0   -2   22     -3.68      0.00
    1   -2   22      3.06      0.00
    2   -2   22     -3.60      0.00
   -3   -1   22     -0.30      0.00
   -2   -1   22      3.08      0.00
   -1   -1   22     -3.04      0.00
    0   -1   22      1.99      0.00
    1   -1   22     -1.28      0.00
    2   -1   22     -0.33      0.00
    3   -1   22      2.09      0.00
   -4    0   22      2.81      0.00
   -3    0   22      2.18      0.00
   -2    0   22     -0.60      0.00
   -1    0   22     -0.87      0.00
    0    0   22      1.26      0.00
    1    0   22      0.28      0.00
    2    0   22      2.50      0.00
    3    0   22      2.28      0.00
    4    0   22     -0.66      0.00
   -4    1   22     -0.75      0.00
   -3    1   22     -4.57      0.00
   -2    1   22     -0.64      0.00
   -1    1   22     -0.68      0.00
    0    1   22      1.73      0.00
    1    1   22     -2.47      0.00
    2    1   22      1.74      0.00
    3    1   22     -6.33      0.00
    4    1   22      0.56      0.00
   -4    2   22     -2.38      0.00
   -3    2   22      3.41      0.00
   -2    2   22      0.55      0.00
   -1    2   22      2.11      0.00
    0    2   22     -0.14      0.00
    1    2   22     -1.43      0.00
    2    2   22     -0.84      0.00
    3    2   22     -0.76      0.00
    4    2   22     -0.12      0.00
   -4    3   22     -1.17      0.00
   -3    3   22      0.30      0.00
   -2    3   22     -1.86      0.00
   -1    3   22      2.04      0.00
    0    3   22     -3.94      0.00
    1    3   22      5.84      0.00
    2    3   22     -1.03      0.00
    3    3   22      3.27      0.00
    4    3   22      5.77      0.00
   -3    4   22     -0.84      0.00
   -2    4   22      0.25      0.00
   -1    4   22     -1.39      0.00
    0    4   22      0.78      0.00
    1    4   22      0.85      0.00
    2    4   22     -2.82      0.00
    3    4   22      6.05      0.00
    4    4   22     -7.31      0.00
   -3    5   22      0.28      0.00
   -2    5   22      1.02      0.00
   -1    5   22     -0.98      0.00
    0    5   22      0.66      0.00
    1    5   22     -4.20      0.00
    2    5   22      0.49      0.00
    3    5   22     -4.14      0.00
   -1    6   22     -1.81      0.00
    0    6   22     -1.08      0.00
    1    6   22     -1.56      0.00
    2    6   22      4.28      0.00
    0    1    0   -154.62      0.00
   -7    9    0      6.10      0.00
    5    9    0      2.59      0.00
   16    9    0      0.74      0.00
   15   11    0      3.17      0.00
    0   12    0     -0.90      0.00
  -10   15    0     -1.24      0.00
   -7   17    0      3.65      0.00
    6   18    0     -1.32      0.00
   -6  -18    1     -1.46      0.00
    4  -18    1      5.71      0.00
  -10  -16    1      0.64      0.00
   10  -15    1     -0.69      0.00
   11  -14    1     -1.35      0.00
   13  -12    1      2.38      0.00
  -16   -9    1      0.56      0.00
    2   -9    1     11.21      0.00
  -17   -6    1      0.57      0.00
  -17   -5    1      3.32      0.00
    7   -3    1     -8.75      0.00
    7   -2    1     19.62      0.00
   -6    2    1      4.17      0.00
   17    3    1     -2.61      0.00
   16    8    1     -3.35      0.00
  -14    9    1     -0.81      0.00
   -2    9    1     -6.43      0.00
   16    9    1     -1.36      0.00
  -14   11    1      1.11      0.00
   15   11    1      3.37      0.00
  -10   15    1      0.40      0.00
   -7   17    1     -0.94      0.00
   -8  -17    2      2.69      0.00
   11  -14    2      0.09      0.00
   12  -13    2     -2.51      0.00
  -14  -12    2      1.47      0.00
   -2   -9    2      2.31      0.00
   15   -9    2      3.78      0.00
   -1   -8    2      8.49      0.00
   16   -7    2      2.49      0.00
  -17   -6    2     -4.78      0.00
   17   -4    2      3.94      0.00
   16    4    2     -0.92      0.00
   17    5    2     -4.73      0.00
   17    6    2     -3.36      0.00
    5    8    2     -7.16      0.00
    3    9    2     -0.21      0.00
    5    9    2      7.20      0.00
   15    9    2     -0.66      0.00
   16    9    2     -1.90      0.00
   15   10    2     -1.27      0.00
  -14   11    2      0.15      0.00
   15   11    2      2.35      0.00
  -10   15    2     -1.65      0.00
   -7   17    2      0.30      0.00
   -5  -18    3     -2.55      0.00
    3  -18    3      0.67      0.00
    6  -17    3     -1.74      0.00
    8  -16    3      0.34      0.00
  -11  -15    3     -1.87      0.00
  -12  -14    3      0.23      0.00
  -13  -13    3      2.48      0.00
   17   -4    3     -3.34      0.00
   17   -3    3      1.03      0.00
   17   -2    3      5.21      0.00
  -11   -1    3    -13.43      0.00
   17    3    3     -0.20      0.00
  -17    4    3     -1.25      0.00
   17    5    3      0.09      0.00
   17    6    3      2.05      0.00
  -16    7    3     -0.47      0.00
   16    7    3      1.69      0.00
   16    8    3      1.80      0.00
   -2    9    3     14.01      0.00
   15    9    3      8.89      0.00
   16    9    3     -0.25      0.00
   15   10    3     -1.17      0.00
  -10   15    3     -0.75      0.00
   -7   17    3     -0.71      0.00
   -4  -18    4      2.53      0.00
    2  -18    4      0.32      0.00
   -7  -17    4     -2.51      0.00
   -9  -16    4      1.46      0.00
  -15  -10    4      2.19      0.00
   14  -10    4     -0.23      0.00
  -16   -8    4      2.48      0.00
  -16   -7    4     -1.30      0.00
  -17   -5    4     -0.68      0.00
   17   -3    4      3.89      0.00
   -8    1    4      2.22      0.00
   -2    1    4    -10.12      0.00
  -17    2    4     -5.44      0.00
  -17    3    4      7.24      0.00
  -17    4    4     -1.15      0.00
   17    4    4     -5.04      0.00
   17    5    4      2.29      0.00
  -16    7    4     -0.72      0.00
   15    8    4     -0.93      0.00
   16    8    4     -2.56      0.00
  -15    9    4      5.04      0.00
   15    9    4     -0.33      0.00
   15   10    4     -2.31      0.00
  -13   12    4     -2.26      0.00
  -10   15    4     -0.56      0.00
   10   16    4     -1.62      0.00
    6   18    4      2.03      0.00
   -2  -18    5      2.06      0.00
   -1  -18    5     -0.56      0.00
    0  -18    5      0.91      0.00
    5  -17    5      1.72      0.00
    7  -16    5      1.84      0.00
   10  -14    5     -5.75      0.00
   10  -12    5      1.50      0.00
   13  -11    5     -0.09      0.00
   15   -8    5      2.53      0.00
   16   -6    5      0.41      0.00
  -17   -4    5      2.79      0.00
   17   -2    5     -1.12      0.00
   -2   -1    5     30.85      0.00
   -2    2    5      5.94      0.00
   -1    2    5     30.64      0.00
  -17    3    5     -0.64      0.00
   16    5    5     -2.19      0.00
   17    5    5     -6.88      0.00
   16    6    5      3.33      0.00
   15    7    5     -3.58      0.00
   16    7    5      0.07      0.00
   15    8    5      3.93      0.00
   16    8    5      0.61      0.00
   -1    9    5      1.38      0.00
   15    9    5      2.37      0.00
   15   10    5     -6.07      0.00
   14   12    5      1.79      0.00
  -12   13    5      1.41      0.00
  -11   14    5     -3.04      0.00
   10   16    5      1.26      0.00
   -4   18    5      2.29      0.00
    6   18    5     -1.31      0.00
    4  -17    6     -0.11      0.00
   -8  -16    6     -0.42      0.00
  -11  -14    6      0.03      0.00
   11  -13    6     -3.75      0.00
  -13  -12    6     -0.08      0.00
    3  -12    6      5.57      0.00
    3  -11    6      1.89      0.00
  -15   -9    6      0.58      0.00
    0   -9    6      6.92      0.00
    1   -9    6     -2.57      0.00
    3   -9    6     -3.09      0.00
  -16   -7    6     -3.09      0.00
  -17   -3    6      1.37      0.00
   -7   -1    6     -5.24      0.00
   -2   -1    6     -0.07      0.00
   17   -1    6      3.20      0.00
  -17    0    6     -1.01      0.00
  -17    2    6     -0.24      0.00
   -1    2    6    -16.86      0.00
   17    4    6      0.41      0.00
  -16    6    6      2.86      0.00
   15    8    6     -2.39      0.00
   16    8    6     -7.24      0.00
   15    9    6      2.95      0.00
   15   10    6     -2.21      0.00
   13   13    6      5.75      0.00
   12   14    6      2.12      0.00
   11   15    6      0.12      0.00
   -8   16    6     -0.91      0.00
    8   17    6      9.55      0.00
    3  -17    7     -6.20      0.00
   10  -12    7     -2.13      0.00
   -3   -9    7     -2.02      0.00
   15   -7    7      5.08      0.00
  -16   -6    7     -0.90      0.00
   -8   -1    7     -6.25      0.00
   16    6    7     -0.16      0.00
   15    7    7     -3.34      0.00
   16    7    7      0.63      0.00
  -15    8    7      3.65      0.00
   15    8    7      5.55      0.00
   15    9    7     -8.75      0.00
   -6   17    7      3.75      0.00
   -3   18    7     -4.07      0.00
    5   18    7      5.92      0.00
   -2  -17    8      3.48      0.00
   -1  -17    8      0.59      0.00
    0  -17    8      2.02      0.00
    1  -17    8      4.13      0.00
    5  -16    8     -2.22      0.00
    7  -15    8      1.89      0.00
  -10  -14    8     -3.27      0.00
   10  -13    8     -0.64      0.00
   11  -12    8      2.40      0.00
  -13  -11    8      1.68      0.00
   12  -11    8     -2.60      0.00
    0   -9    8     -0.81      0.00
  -15   -8    8      0.97      0.00
    0   -8    8     -1.07      0.00
  -16   -5    8     -1.37      0.00
   -1   -2    8    -11.31      0.00
   -4   -1    8    -12.12      0.00
    8   -1    8     -7.13      0.00
   15    8    8      1.14      0.00
   15    9    8     -4.43      0.00
  -13   11    8     -0.27      0.00
   14   11    8      0.84      0.00
   -9   15    8      0.14      0.00
    9   16    8     -6.32      0.00
    7   17    8      7.87      0.00
   -2   18    8      1.01      0.00
    4   18    8      1.41      0.00
   -5  -16    9      1.16      0.00
    8  -14    9      2.24      0.00
  -14   -9    9      0.03      0.00
   -3   -9    9     -4.56      0.00
   13   -9    9      6.23      0.00
   -3   -8    9     -2.11      0.00
  -15   -7    9      2.12      0.00
  -16   -4    9      5.74      0.00
    2   -3    9     -7.31      0.00
    2   -2    9     -4.47      0.00
   16   -2    9      0.77      0.00
   -4   -1    9      9.16      0.00
  -16    3    9     -1.19      0.00
   16    5    9     -0.66      0.00
   15    8    9      1.97      0.00
   -9   10    9      8.79      0.00
   13   12    9     -0.87      0.00
   12   13    9     -4.89      0.00
   11   14    9      3.29      0.00
   10   15    9      0.60      0.00
   -7   16    9     -1.35      0.00
    0   18    9      5.32      0.00
    1   18    9     -0.92      0.00
    2   18    9      9.58      0.00
   -3  -16   10      1.85      0.00
    1  -16   10     -0.80      0.00
    2  -16   10      0.45      0.00
    5  -15   10      4.12      0.00
    7  -14   10      0.38      0.00
  -10  -13   10     -1.89      0.00
  -11  -12   10     -2.50      0.00
   10  -12   10     -2.24      0.00
  -12  -11   10     -0.27      0.00
   11  -11   10     -6.05      0.00
  -14   -8   10      0.10      0.00
  -15   -6   10      1.30      0.00
    9   -2   10     -1.38      0.00
  -16   -1   10     -2.41      0.00
   -1   -1   10      0.36      0.00
    9   -1   10     -1.82      0.00
  -16    0   10      0.86      0.00
  -16    1   10      2.10      0.00
   16    1   10      1.04      0.00
   16    2   10      1.93      0.00
   16    3   10     -2.27      0.00
  -15    6   10      1.73      0.00
  -14    8   10      4.60      0.00
  -12    9   10     -4.38      0.00
  -13   10   10     -0.82      0.00
   -8   15   10     -1.29      0.00
   -4   17   10     -3.31      0.00
   -5  -15   11     -0.72      0.00
    6  -14   11      1.64      0.00
    8  -13   11      2.36      0.00
  -13   -9   11     -0.88      0.00
   12   -9   11     -1.55      0.00
  -14   -7   11     -1.05      0.00
   15   -3   11      4.95      0.00
   -3   -2   11     -6.84      0.00
    2   -2   11      5.60      0.00
   -5   -1   11      1.72      0.00
   -3   -1   11     -0.66      0.00
   12   -1   11      2.37      0.00
   15    6   11     -0.35      0.00
   -9    9   11      2.27      0.00
   -7    9   11     -2.08      0.00
   14    9   11      1.89      0.00
   -9   10   11     -5.23      0.00
  -11   12   11     -0.18      0.00
   12   12   11     -1.76      0.00
  -10   13   11     -0.40      0.00
   11   13   11      0.55      0.00
   10   14   11     -1.78      0.00
    7   16   11     -1.43      0.00
    4   17   11      3.82      0.00
   -3  -15   12     -2.15      0.00
   -2  -15   12     -1.18      0.00
    1  -15   12      0.65      0.00
    5  -14   12     -0.86      0.00
    7  -13   12     -2.70      0.00
  -13   -8   12     -0.28      0.00
  -14   -6   12      1.08      0.00
  -15   -2   12     -1.22      0.00
  -15   -1   12     -1.10      0.00
   15   -1   12      4.67      0.00
   15    0   12     -4.81      0.00
  -15    2   12     -0.05      0.00
   15    4   12     -1.45      0.00
  -14    6   12     -2.88      0.00
  -12   10   12     -0.02      0.00
   -8   14   12      0.79      0.00
    8   15   12     -0.40      0.00
    6   16   12     -3.77      0.00
    0   17   12     -4.71      0.00
    1   17   12      1.92      0.00
    3  -14   13     -4.33      0.00
   -7  -13   13     -3.33      0.00
   -4   -8   13     -0.09      0.00
  -14   -4   13      0.58      0.00
   14   -3   13      6.38      0.00
   -3   -1   13     -2.79      0.00
   14    6   13      1.64      0.00
  -12    9   13     -0.19      0.00
    7   15   13      2.73      0.00
   -3   16   13     -0.22      0.00
    4   16   13      6.61      0.00
    4  -13   14      0.22      0.00
    6  -12   14     -1.06      0.00
  -10  -10   14     -0.03      0.00
    9  -10   14      2.83      0.00
   10   -9   14     -2.87      0.00
   12   -6   14      1.96      0.00
  -13   -5   14      0.43      0.00
   13   -4   14      4.57      0.00
  -14   -1   14      2.41      0.00
   -4   -1   14      4.32      0.00
  -14    0   14     -2.44      0.00
   14    0   14      1.72      0.00
  -14    1   14     -1.20      0.00
   14    1   14     -1.40      0.00
  -14    2   14      2.00      0.00
   14    2   14     -3.07      0.00
   14    3   14      1.49      0.00
   14    4   14     -0.02      0.00
  -13    6   14      2.62      0.00
  -12    8   14      0.81      0.00
  -10   11   14      2.35      0.00
   11   11   14     -5.50      0.00
   -9   12   14      0.17      0.00
   10   12   14     -7.84      0.00
    9   13   14     -1.93      0.00
    0   16   14     -7.87      0.00
    1   16   14      2.41      0.00
    2   16   14     -4.12      0.00
   -2  -13   15      0.30      0.00
   -1  -13   15      0.05      0.00
    0  -13   15      0.35      0.00
    1  -13   15      0.34      0.00
   -9  -10   15      0.04      0.00
  -10   -9   15      1.23      0.00
    9   -9   15     -0.74      0.00
  -12   -6   15      3.08      0.00
  -13   -3   15     -1.02      0.00
   13   -2   15      3.35      0.00
  -13    4   15     -3.15      0.00
   13    5   15     -1.98      0.00
  -12    7   15      0.02      0.00
   12    8   15      2.28      0.00
  -10   10   15      2.31      0.00
   11   10   15     -4.00      0.00
   -8   12   15      1.99      0.00
    8   13   15     -0.51      0.00
   -5   14   15     -0.41      0.00
   -2   15   15      2.46      0.00
    4   15   15      2.01      0.00
   -3  -12   16      2.73      0.00
    2  -12   16      2.89      0.00
   -6  -11   16     -1.13      0.00
    5  -11   16      1.70      0.00
  -11   -6   16      1.66      0.00
   11   -5   16      0.35      0.00
  -12   -4   16      2.21      0.00
    1   -2   16     -1.56      0.00
    1   -1   16      2.97      0.00
  -12    5   16     -0.82      0.00
   12    6   16     -3.13      0.00
  -10    9   16      1.93      0.00
   10   10   16      2.86      0.00
   -7   12   16     -2.25      0.00
    8   12   16     -1.36      0.00
   -3   14   16     -2.45      0.00
   -3  -11   17      1.31      0.00
    2  -11   17     -2.12      0.00
   -6  -10   17      2.48      0.00
  -10   -6   17      0.50      0.00
   10   -5   17      1.70      0.00
  -11   -4   17      0.82      0.00
   11   -3   17      3.62      0.00
   12    2   17     -0.90      0.00
   -9    9   17     -0.10      0.00
   -8   10   17      1.92      0.00
    9   10   17     -2.60      0.00
   -7   11   17      0.40      0.00
    8   11   17     -3.69      0.00
   -4   13   17      0.46      0.00
    5   13   17      1.46      0.00
    1   14   17      4.56      0.00
   -3  -10   18      3.06      0.00
    2  -10   18      1.41      0.00
   -7   -8   18     -0.91      0.00
    6   -8   18     -0.36      0.00
   -8   -7   18      1.05      0.00
    8   -6   18     -4.30      0.00
    9   -5   18      1.20      0.00
  -10   -4   18     -0.08      0.00
   10   -3   18      1.41      0.00
  -11    0   18      0.21      0.00
  -11    1   18      0.05      0.00
   11    1   18      0.28      0.00
   11    2   18     -4.36      0.00
   11    3   18      2.88      0.00
   -8    9   18      0.87      0.00
   -7   10   18     -1.50      0.00
   -4   12   18      0.54      0.00
    5   12   18      0.40      0.00
    0   13   18      1.00      0.00
    1   13   18     -1.16      0.00
    2   13   18     -1.49      0.00
   -2   -9   19      2.45      0.00
   -1   -9   19      5.47      0.00
    0   -9   19      0.00      0.00
    1   -9   19      3.96      0.00
   -5   -8   19      5.88      0.00
    4   -8   19      1.15      0.00
   -8   -5   19      0.21      0.00
   -9   -3   19     -0.97      0.00
   10    2   19      2.71      0.00
   -9    5   19     -1.49      0.00
    9    6   19     -1.05      0.00
   -8    7   19      0.47      0.00
    8    8   19     -2.37      0.00
    6   10   19      0.31      0.00
    0   12   19     -3.32      0.00
    1   12   19     -5.80      0.00
    3   -7   20     -3.66      0.00
   -5   -6   20     -0.47      0.00
   -7   -4   20      4.30      0.00
   -8   -2   20     -0.85      0.00
    8   -1   20      2.39      0.00
   -8    4   20     -0.76      0.00
    8    5   20     -4.87      0.00
    7    7   20     -3.17      0.00
   -3   10   20     -2.35      0.00
   -1   -6   21      3.04      0.00
    0   -6   21      0.23      0.00
    3   -5   21      1.83      0.00
   -5   -4   21      2.01      0.00
    6   -2   21     -0.29      0.00
   -7    0   21     -0.99      0.00
   -7    1   21     -1.10      0.00
    7    1   21     -1.89      0.00
   -7    2   21      2.27      0.00
    7    2   21      3.12      0.00
    7    3   21     -0.37      0.00
   -6    5   21     -2.32      0.00
    6    6   21     -2.74      0.00
    5    7   21     -0.80      0.00
   -3    8   21      1.42      0.00
    4    8   21      4.61      0.00
   -1    9   21      3.32      0.00
    0    9   21     -1.00      0.00
    1    9   21     -0.66      0.00
    2    9   21      1.11      0.00
   -2   -3   22     -0.92      0.00
    1   -3   22     -1.82      0.00
    2   -3   22      0.92      0.00
    3   -2   22      1.99      0.00
   -4   -1   22      0.44      0.00
    4   -1   22     -0.77      0.00
   -5    1   22     -0.32      0.00
    5    1   22     -1.36      0.00
   -5    2   22      0.98      0.00
    5    2   22     -0.48      0.00
    5    3   22      2.13      0.00
   -4    4   22      1.05      0.00
    4    5   22     -1.06      0.00
   -2    6   22     -0.14      0.00
    3    6   22     -3.01      0.00
    0    7   22      5.40      0.00
    1    7   22      3.53      0.00
    0    0    0      0.00      0.00
# SQUEEZE RESULTS (Version =  21116)
# Note: Data are Listed for all Voids in the P1 Unit Cell
# i.e. Centre of Gravity, Solvent Accessible Volume,
# Recovered number of Electrons in the Void and
# Details about the Squeezed Material
loop_
  _platon_squeeze_void_nr
  _platon_squeeze_void_average_x
  _platon_squeeze_void_average_y
  _platon_squeeze_void_average_z
  _platon_squeeze_void_volume
  _platon_squeeze_void_count_electrons
  _platon_squeeze_void_content
   1  0.000  0.500  0.500       662       147 ' '
   2  0.500  0.500  0.000       589       132 ' '
# Missing Reflections Below sin(th)/lambda = 0.25
loop_
  _platon_missing_refln_index_h
  _platon_missing_refln_index_k
  _platon_missing_refln_index_l
  _platon_missing_refln_theta
    0    1    0     1.293
    7   -2    1    10.207
   -6    2    1     8.818
   -2    1    4     5.181
   -2   -1    5     6.225
   -2    2    5     6.408
   -1    2    5     5.921
   -2   -1    6     7.189
   -1    2    6     6.872
   -1   -2    8     9.281
_platon_squeeze_void_probe_radius                  1.20
_platon_squeeze_details
)
TITL n180607a_tP -1         R = 0.10
CELL   14.8650   15.8360   19.1190     84.75     89.92     87.09
SPGR P-1
# Solvent Accessible Volume =      1252
# Electrons Found in S.A.V. =       279
# Note: Atoms in Void as Cxxx and Qxxx all others
Q101 0.655 0.748 0.481 !       8.82 eA-3
Q102 0.074 0.256 0.132 !       7.43 eA-3
Q103 0.532 0.774 0.349 !       5.14 eA-3
C104 0.345 0.246 0.186 !       4.10 eA-3
C105 0.862 0.765 0.311 !       4.05 eA-3
Q106 0.036 0.988 0.096 !       3.34 eA-3
Q107 0.388 0.078-0.002 !       3.06 eA-3
Q108 0.093 0.033 0.032 !       3.03 eA-3
C109 0.447 0.213 0.217 !       2.84 eA-3
C110 0.464 0.363 0.194 !       2.74 eA-3
Q111 0.514 0.018 0.450 !       2.66 eA-3
Q112 0.167 0.066 0.486 !       2.55 eA-3
C113 0.951 0.610 0.331 !       2.54 eA-3
Q114 0.768 0.953 0.482 !       2.53 eA-3
Q115 0.571 0.982 0.437 !       2.52 eA-3
C116 0.441 0.518 0.064 !       2.39 eA-3
C117 0.473 0.341 0.239 !       2.36 eA-3
C118 0.386 0.377 0.191 !       2.32 eA-3
Q119 0.864 0.030 0.466 !       2.29 eA-3
Q120 0.335 0.035 0.048 !       2.24 eA-3
Q121 0.460 0.062 0.032 !       2.21 eA-3
Q122 0.103 0.081 0.498 !       2.21 eA-3
Q123 0.894 0.968 0.451 !       2.19 eA-3
Q124 0.575 0.050 0.378 !       2.14 eA-3
C125 0.953 0.781 0.292 !       2.12 eA-3
Q126 0.966 0.998 0.080 !       1.99 eA-3
Q127 0.959 0.939 0.470 !       1.98 eA-3
C128 0.361 0.339 0.157 !       1.94 eA-3
C129 0.963 0.649 0.361 !       1.88 eA-3
C130 0.441 0.405 0.202 !       1.87 eA-3
Q131 0.846 0.829 0.280 !       1.77 eA-3
C132 0.925 0.563 0.492 !       1.75 eA-3
Q133 0.642 0.032 0.423 !       1.74 eA-3
Q134 0.029 0.950 0.467 !       1.74 eA-3
C135 0.315 0.333 0.172 !       1.73 eA-3
C136 0.030 0.453 0.470 !       1.72 eA-3
C137 0.985 0.806 0.212 !       1.71 eA-3
Q138 0.396 0.080 0.044 !       1.70 eA-3
C139 0.960 0.455 0.436 !       1.69 eA-3
C140 0.534 0.516 0.066 !       1.68 eA-3
C141 0.983 0.690 0.323 !       1.64 eA-3
Q142 0.523 0.065 0.013 !       1.63 eA-3
Q143 0.831 0.190 0.278 !       1.62 eA-3
C144 0.956 0.474 0.401 !       1.61 eA-3
C145 0.423 0.425 0.067 !       1.60 eA-3
Q146 0.098 0.984 0.095 !       1.57 eA-3
Q147 0.843 0.926 0.449 !       1.57 eA-3
C148 0.534 0.443 0.082 !       1.56 eA-3
Q149 0.058 0.920 0.077 !       1.55 eA-3
Q150 0.832 0.971 0.451 !       1.54 eA-3
C151 1.007 0.640 0.398 !       1.54 eA-3
C152 0.889 0.626 0.343 !       1.53 eA-3
C153 0.358 0.314 0.128 !       1.53 eA-3
C154 0.889 0.534 0.429 !       1.52 eA-3
Q155 0.708 0.955 0.469 !       1.52 eA-3
C156 0.803 0.704 0.296 !       1.51 eA-3
Q157 0.394 0.036 0.048 !       1.50 eA-3
C158 0.969 0.467 0.507 !       1.50 eA-3
Q159 0.346 0.985 0.096 !       1.49 eA-3
Q160 0.218 0.013 0.048 !       1.49 eA-3
C161 0.915 0.484 0.471 !       1.47 eA-3
Q162 0.870 0.857 0.479 !       1.46 eA-3
Q163 0.161 1.000 0.078 !       1.46 eA-3
C164 0.013 0.596 0.377 !       1.45 eA-3
Q165 0.448 0.064 0.406 !       1.44 eA-3
C166 0.487 0.376 0.095 !       1.43 eA-3
C167 0.481 0.546 0.126 !       1.43 eA-3
Q168 0.276 0.014 0.063 !       1.43 eA-3
Q169 0.217 0.031 0.093 !       1.43 eA-3
C170 0.469 0.559 0.073 !       1.42 eA-3
C171 0.580 0.475 0.045 !       1.42 eA-3
Q172 0.211 0.078 0.067 !       1.41 eA-3
C173 0.549 0.455 0.019 !       1.40 eA-3
C174 0.978 0.496 0.449 !       1.39 eA-3
Q175 0.762 0.189 0.106 !       1.39 eA-3
Q176 0.752 0.047 0.420 !       1.38 eA-3
Q177 0.686 0.220 0.316 !       1.38 eA-3
Q178 0.448 0.016 0.421 !       1.38 eA-3
Q179 0.033 0.044 0.062 !       1.38 eA-3
C180 0.972 0.681 0.249 !       1.37 eA-3
Q181 0.505 0.034 0.394 !       1.37 eA-3
C182 0.966 0.635 0.444 !       1.37 eA-3
Q183 0.575 0.129 0.435 !       1.36 eA-3
Q184 0.859 0.256 0.492 !       1.36 eA-3
C185 0.493 0.407 0.056 !       1.36 eA-3
Q186 0.143 0.093 0.155 !       1.35 eA-3
Q187 0.215 0.123 0.497 !       1.34 eA-3
C188 0.436 0.332 0.141 !       1.34 eA-3
C189 0.509 0.294 0.183 !       1.34 eA-3
C190 0.891 0.612 0.434 !       1.33 eA-3
C191 0.071 0.549 0.466 !       1.33 eA-3
C192 0.985 0.575 0.404 !       1.33 eA-3
C193 0.256 0.285 0.173 !       1.32 eA-3
C194 0.863 0.700 0.356 !       1.32 eA-3
C195 0.530 0.421 0.124 !       1.32 eA-3
Q196 0.269 0.078 0.013 !       1.31 eA-3
Q197 0.487 0.503 0.261 !       1.31 eA-3
C198 0.546 0.487 0.110 !       1.29 eA-3
Q199 0.263 0.074 0.109 !       1.29 eA-3
)
;
_shelx_fab_checksum              52051
_platon_squeeze_void_probe_radius 1.20
_olex2_submission_special_instructions 'No special instructions were received'
loop_
_space_group_symop_operation_xyz
'x, y, z'
'-x, -y, -z'
loop_
_atom_site_label
_atom_site_type_symbol
_atom_site_fract_x
_atom_site_fract_y
_atom_site_fract_z
_atom_site_U_iso_or_equiv
_atom_site_adp_type
_atom_site_occupancy
_atom_site_site_symmetry_order
_atom_site_calc_flag
_atom_site_refinement_flags_posn
_atom_site_refinement_flags_adp
_atom_site_refinement_flags_occupancy
_atom_site_disorder_assembly
_atom_site_disorder_group
Cd1 Cd 0.54575(5) 0.03688(4) 0.41920(3) 0.03018(19) Uani 1 1 d . . . . .
Cd2 Cd 0.13527(5) 0.05526(4) 0.52373(3) 0.02883(19) Uani 1 1 d . . . . .
Cd3 Cd 0.36094(5) 1.05437(4) 0.02797(4) 0.03202(19) Uani 1 1 d . . . . .
Cd4 Cd 1.06447(4) 1.01167(4) 0.07102(3) 0.02473(18) Uani 1 1 d . . . . .
O1 O 0.1420(5) 0.0715(4) 0.1570(3) 0.0412(17) Uani 1 1 d . . . . .
O2 O 0.0828(5) -0.0484(5) 0.1911(4) 0.0499(19) Uani 1 1 d . . . . .
O3 O 0.4205(4) -0.0179(4) 0.4634(3) 0.0359(16) Uani 1 1 d . . . . .
O4 O 0.2880(4) 0.0013(4) 0.5123(3) 0.0364(17) Uani 1 1 d . . . . .
O5 O 0.0689(4) -0.0269(4) 0.4513(3) 0.0331(16) Uani 1 1 d . . . . .
O6 O -0.0150(5) -0.1350(4) 0.4366(4) 0.0408(17) Uani 1 1 d . . . . .
O7 O 0.2251(4) 0.1485(4) 0.5872(3) 0.0387(17) Uani 1 1 d . . . . .
H7A H 0.268994 0.136109 0.615711 0.058 Uiso 1 1 d R . . . .
H7B H 0.239184 0.196549 0.560241 0.058 Uiso 1 1 d R . . . .
O8 O 0.4715(5) 1.1401(5) 0.0648(4) 0.056(2) Uani 1 1 d . . . . .
O9 O 0.6298(5) 0.9450(4) 0.3512(3) 0.0401(17) Uani 1 1 d . . . . .
O10 O 0.5502(5) 1.0527(4) 0.2982(3) 0.0442(19) Uani 1 1 d . . . . .
O11 O 0.9156(4) 0.9842(4) 0.0547(3) 0.0354(16) Uani 1 1 d . . . . .
O12 O 1.0098(4) 1.1495(4) 0.0361(3) 0.0342(16) Uani 1 1 d . . . . .
O13 O 0.9595(5) 1.5776(4) -0.1048(4) 0.053(2) Uani 1 1 d . . . . .
H13 H 0.944339 1.627744 -0.114937 0.079 Uiso 1 1 calc GR . . . .
O14 O 0.8258(5) 1.5743(4) -0.0536(5) 0.065(3) Uani 1 1 d . . . . .
O15 O 0.9214(4) 1.1321(4) -0.0574(3) 0.0326(16) Uani 1 1 d . . . . .
O16 O 0.7918(4) 0.9910(4) -0.0060(3) 0.0307(15) Uani 1 1 d . . . . .
O17 O 0.5615(5) 1.0294(4) 0.0468(4) 0.0434(18) Uani 1 1 d . . . . .
O18 O 0.2687(5) 1.1588(4) 0.0837(4) 0.054(2) Uani 1 1 d . . . . .
H18A H 0.301731 1.197554 0.097242 0.081 Uiso 1 1 d GR . . . .
H18B H 0.246710 1.135860 0.122270 0.081 Uiso 1 1 d GR . . . .
O19 O 0.3824(5) -0.1608(4) 0.5857(3) 0.0425(18) Uani 1 1 d . . . . .
O20 O 0.5255(5) -0.1742(4) 0.5584(4) 0.050(2) Uani 1 1 d . . . . .
O21 O 0.3454(6) -0.5882(4) 0.5365(5) 0.059(2) Uani 1 1 d . . . . .
H21 H 0.344542 -0.640146 0.540313 0.088 Uiso 1 1 calc GR . . . .
O22 O 0.4674(6) -0.6147(4) 0.6017(5) 0.069(3) Uani 1 1 d . . . . .
N1 N 0.1293(6) 0.1567(5) 0.4308(4) 0.037(2) Uani 1 1 d . . . . .
N2 N 0.1338(6) 0.2792(5) 0.3661(4) 0.040(2) Uani 1 1 d . . . . .
N3 N 0.3294(5) 0.8509(4) 0.1938(4) 0.034(2) Uani 1 1 d . . . . .
N4 N 0.3530(5) 0.9636(4) 0.1230(4) 0.0289(18) Uani 1 1 d . . . . .
C82 C 0.7816(6) 1.1893(5) 0.0539(4) 0.023(2) Uani 1 1 d . . . . .
N6 N 0.1361(5) -0.0271(4) 0.6259(4) 0.0281(18) Uani 1 1 d . . . . .
N7 N 0.1581(5) -0.1361(5) 0.7045(4) 0.035(2) Uani 1 1 d . . . . .
N8 N 0.3460(6) -0.7271(5) 0.8716(5) 0.048(2) Uani 1 1 d . . . . .
N9 N 0.3590(6) -0.8493(5) 0.9355(4) 0.041(2) Uani 1 1 d . . . . .
C81 C 0.2965(6) -0.2039(5) 0.4537(5) 0.026(2) Uani 1 1 d . . . . .
C1 C 0.4147(8) -0.5651(6) 0.5705(6) 0.042(3) Uani 1 1 d . . . . .
C2 C 0.4227(7) -0.4711(5) 0.5674(5) 0.037(3) Uani 1 1 d . . . . .
C3 C 0.3566(7) -0.4164(5) 0.5355(5) 0.034(2) Uani 1 1 d . . . . .
H3 H 0.307072 -0.438509 0.515335 0.041 Uiso 1 1 calc R . . . .
C4 C 0.3627(6) -0.3287(5) 0.5329(5) 0.030(2) Uani 1 1 d . . . . .
C5 C 0.2855(6) -0.2717(5) 0.5030(5) 0.029(2) Uani 1 1 d . . . . .
C6 C 0.2015(7) -0.2896(5) 0.5280(6) 0.038(3) Uani 1 1 d . . . . .
H6 H 0.193617 -0.336497 0.560020 0.046 Uiso 1 1 calc R . . . .
C7 C 0.1277(6) -0.2361(6) 0.5047(5) 0.035(2) Uani 1 1 d . . . . .
H7 H 0.070153 -0.248684 0.520219 0.042 Uiso 1 1 calc R . . . .
C8 C 0.1391(6) -0.1666(5) 0.4601(5) 0.026(2) Uani 1 1 d . . . . .
C9 C 0.2230(6) -0.1489(5) 0.4318(4) 0.0190(18) Uani 1 1 d . . . . .
C10 C 0.2338(6) -0.0749(5) 0.3780(4) 0.023(2) Uani 1 1 d . . . . .
C11 C 0.2895(6) -0.0102(5) 0.3901(4) 0.026(2) Uani 1 1 d . . . . .
C12 C 0.2974(6) 0.0591(5) 0.3396(5) 0.027(2) Uani 1 1 d . . . . .
H12 H 0.336919 0.101124 0.346860 0.032 Uiso 1 1 calc R . . . .
C13 C 0.2465(6) 0.0644(6) 0.2791(5) 0.031(2) Uani 1 1 d . . . . .
H13A H 0.250790 0.110903 0.246013 0.037 Uiso 1 1 calc R . . . .
C14 C 0.1890(6) 0.0012(5) 0.2672(4) 0.027(2) Uani 1 1 d . . . . .
C15 C 0.1844(6) -0.0683(5) 0.3170(4) 0.022(2) Uani 1 1 d . . . . .
H15 H 0.146774 -0.111516 0.308700 0.027 Uiso 1 1 calc R . . . .
C16 C 0.1342(7) 0.0087(6) 0.2017(5) 0.034(2) Uani 1 1 d . . . . .
C17 C 0.3336(6) -0.0085(5) 0.4598(4) 0.0213(19) Uani 1 1 d . . . . .
C18 C 0.0608(6) -0.1051(5) 0.4479(5) 0.028(2) Uani 1 1 d . . . . .
C19 C 0.1650(9) 0.2305(7) 0.4243(6) 0.057(3) Uani 1 1 d . . . . .
H19 H 0.206632 0.247805 0.455565 0.068 Uiso 1 1 calc R . . . .
C20 C 0.1593(7) 0.3611(6) 0.3426(5) 0.039(3) Uani 1 1 d . . . . .
C21 C 0.2176(8) 0.4033(7) 0.3815(6) 0.056(3) Uani 1 1 d . . . . .
H21A H 0.241636 0.377230 0.423350 0.067 Uiso 1 1 calc R . . . .
C22 C 0.2403(8) 0.4853(7) 0.3578(6) 0.058(3) Uani 1 1 d . . . . .
H22 H 0.277778 0.513650 0.385573 0.069 Uiso 1 1 calc R . . . .
C23 C 0.2098(8) 0.5259(6) 0.2952(6) 0.042(3) Uani 1 1 d . . . . .
C24 C 0.1527(10) 0.4823(7) 0.2587(6) 0.066(4) Uani 1 1 d . . . . .
H24 H 0.130190 0.507785 0.216128 0.079 Uiso 1 1 calc R . . . .
C25 C 0.1257(10) 0.4020(7) 0.2814(7) 0.070(4) Uani 1 1 d . . . . .
H25 H 0.084726 0.375773 0.254914 0.084 Uiso 1 1 calc R . . . .
C26 C 0.2374(7) 0.6107(6) 0.2702(6) 0.044(3) Uani 1 1 d . . . . .
C27 C 0.1872(7) 0.6654(6) 0.2223(5) 0.039(2) Uani 1 1 d . . . . .
H27 H 0.132858 0.648344 0.205647 0.047 Uiso 1 1 calc R . . . .
C28 C 0.2161(7) 0.7441(5) 0.1991(5) 0.036(2) Uani 1 1 d . . . . .
H28 H 0.180100 0.779973 0.168324 0.043 Uiso 1 1 calc R . . . .
C29 C 0.2961(7) 0.7703(5) 0.2203(5) 0.031(2) Uani 1 1 d . . . . .
C30 C 0.3478(8) 0.7175(7) 0.2661(7) 0.057(3) Uani 1 1 d . . . . .
H30 H 0.402975 0.734691 0.280967 0.068 Uiso 1 1 calc R . . . .
C31 C 0.3191(8) 0.6391(7) 0.2903(7) 0.064(4) Uani 1 1 d . . . . .
H31 H 0.355789 0.604024 0.321256 0.076 Uiso 1 1 calc R . . . .
C32 C 0.3091(6) 0.8952(5) 0.1316(5) 0.028(2) Uani 1 1 d . . . . .
H32 H 0.268653 0.878504 0.099051 0.034 Uiso 1 1 calc R . . . .
C33 C 0.4030(6) 0.9664(5) 0.1833(5) 0.032(2) Uani 1 1 d . . . . .
H33 H 0.440146 1.009719 0.192344 0.039 Uiso 1 1 calc R . . . .
C34 C 0.3897(7) 0.8972(6) 0.2269(5) 0.034(2) Uani 1 1 d . . . . .
H34 H 0.415942 0.883100 0.270835 0.041 Uiso 1 1 calc R . . . .
C35 C 0.5478(7) 1.1066(6) 0.0530(5) 0.036(2) Uani 1 1 d . . . . .
C36 C 0.6238(6) 1.1635(5) 0.0396(5) 0.030(2) Uani 1 1 d . . . . .
C37 C 0.7088(6) 1.1401(5) 0.0713(4) 0.027(2) Uani 1 1 d . . . . .
C38 C 0.7174(6) 1.0657(5) 0.1244(4) 0.025(2) Uani 1 1 d . . . . .
C39 C 0.7794(6) 0.9970(5) 0.1170(4) 0.025(2) Uani 1 1 d . . . . .
C40 C 0.7880(7) 0.9304(6) 0.1694(5) 0.036(3) Uani 1 1 d . . . . .
H40 H 0.830742 0.886331 0.164866 0.044 Uiso 1 1 calc R . . . .
C41 C 0.7341(7) 0.9286(6) 0.2280(5) 0.036(2) Uani 1 1 d . . . . .
H41 H 0.738353 0.882608 0.261976 0.043 Uiso 1 1 calc R . . . .
C42 C 0.6732(6) 0.9966(5) 0.2354(5) 0.029(2) Uani 1 1 d . . . . .
C43 C 0.6662(6) 1.0640(6) 0.1847(4) 0.028(2) Uani 1 1 d . . . . .
H43 H 0.625905 1.109431 0.191127 0.034 Uiso 1 1 calc R . . . .
C44 C 0.6132(7) 0.9978(6) 0.2977(5) 0.038(2) Uani 1 1 d . . . . .
C45 C 0.8329(6) 0.9906(5) 0.0513(5) 0.025(2) Uani 1 1 d . . . . .
C46 C 0.9573(6) 1.1755(6) -0.0157(5) 0.030(2) Uani 1 1 d . . . . .
C47 C 0.9380(6) 1.2706(6) -0.0271(5) 0.031(2) Uani 1 1 d . . . . .
C48 C 0.8528(6) 1.3087(5) -0.0189(4) 0.024(2) Uani 1 1 d . . . . .
C49 C 0.7745(6) 1.2588(5) 0.0037(5) 0.028(2) Uani 1 1 d . . . . .
C50 C 0.6899(7) 1.2835(6) -0.0256(5) 0.035(2) Uani 1 1 d . . . . .
H50 H 0.682728 1.330707 -0.058246 0.041 Uiso 1 1 calc R . . . .
C51 C 0.6166(6) 1.2358(6) -0.0048(5) 0.038(3) Uani 1 1 d . . . . .
H51 H 0.559838 1.254326 -0.022143 0.045 Uiso 1 1 calc R . . . .
C52 C 0.8421(6) 1.3964(5) -0.0332(5) 0.030(2) Uani 1 1 d . . . . .
H52 H 0.785955 1.422931 -0.026181 0.036 Uiso 1 1 calc R . . . .
C53 C 0.9120(7) 1.4456(5) -0.0573(5) 0.030(2) Uani 1 1 d . . . . .
C54 C 0.8934(7) 1.5393(6) -0.0712(5) 0.039(3) Uani 1 1 d . . . . .
C55 C 0.9957(7) 1.4052(6) -0.0676(5) 0.037(2) Uani 1 1 d . . . . .
H55 H 1.042786 1.436312 -0.086554 0.044 Uiso 1 1 calc R . . . .
C56 C 1.0088(7) 1.3197(6) -0.0499(5) 0.037(2) Uani 1 1 d . . . . .
H56 H 1.066145 1.294109 -0.053111 0.044 Uiso 1 1 calc R . . . .
C57 C 0.0778(9) 0.2280(7) 0.3345(7) 0.072(4) Uani 1 1 d . . . . .
H57 H 0.046929 0.241768 0.292384 0.086 Uiso 1 1 calc R . . . .
C58 C 0.0756(8) 0.1559(6) 0.3742(6) 0.053(3) Uani 1 1 d . . . . .
H58 H 0.041586 0.110563 0.364541 0.063 Uiso 1 1 calc R . . . .
C59 C 0.1789(6) -0.1010(5) 0.6399(5) 0.031(2) Uani 1 1 d . . . . .
H59 H 0.218565 -0.126052 0.609330 0.037 Uiso 1 1 calc R . . . .
C60 C 0.1878(7) -0.2190(5) 0.7332(5) 0.038(3) Uani 1 1 d . . . . .
C61 C 0.1332(7) -0.2643(6) 0.7798(5) 0.039(3) Uani 1 1 d . . . . .
H61 H 0.078763 -0.240098 0.794240 0.047 Uiso 1 1 calc R . . . .
C62 C 0.1608(8) -0.3455(6) 0.8044(6) 0.054(3) Uani 1 1 d . . . . .
H62 H 0.124970 -0.375585 0.836790 0.065 Uiso 1 1 calc R . . . .
C63 C 0.2398(8) -0.3839(6) 0.7826(6) 0.049(3) Uani 1 1 d . . . . .
C64 C 0.2937(8) -0.3355(6) 0.7380(7) 0.063(4) Uani 1 1 d . . . . .
H64 H 0.348232 -0.359307 0.723424 0.076 Uiso 1 1 calc R . . . .
C65 C 0.2686(8) -0.2517(7) 0.7142(7) 0.061(4) Uani 1 1 d . . . . .
H65 H 0.306929 -0.219052 0.685740 0.074 Uiso 1 1 calc R . . . .
C66 C 0.2682(8) -0.4725(7) 0.8064(6) 0.055(3) Uani 1 1 d . . . . .
C67 C 0.2406(8) -0.5119(7) 0.8703(6) 0.059(4) Uani 1 1 d . . . . .
H67 H 0.203527 -0.481108 0.899003 0.070 Uiso 1 1 calc R . . . .
C68 C 0.2657(10) -0.5935(7) 0.8925(6) 0.070(4) Uani 1 1 d . . . . .
H68 H 0.247855 -0.617462 0.936204 0.084 Uiso 1 1 calc R . . . .
C69 C 0.3191(8) -0.6413(6) 0.8482(6) 0.057(3) Uani 1 1 d . . . . .
C70 C 0.3462(10) -0.6056(7) 0.7866(7) 0.081(5) Uani 1 1 d . . . . .
H70 H 0.382822 -0.637040 0.757954 0.097 Uiso 1 1 calc R . . . .
C71 C 0.3206(10) -0.5227(7) 0.7647(7) 0.078(5) Uani 1 1 d . . . . .
H71 H 0.338933 -0.499707 0.720747 0.094 Uiso 1 1 calc R . . . .
C72 C 0.3166(7) -0.7737(6) 0.9285(5) 0.046(3) Uani 1 1 d . . . . .
H72 H 0.272395 -0.755211 0.958788 0.055 Uiso 1 1 calc R . . . .
C73 C 0.4156(8) -0.8505(6) 0.8794(6) 0.049(3) Uani 1 1 d . . . . .
H73 H 0.454588 -0.896123 0.870636 0.059 Uiso 1 1 calc R . . . .
C74 C 0.4075(8) -0.7783(7) 0.8390(6) 0.058(3) Uani 1 1 d . . . . .
H74 H 0.437272 -0.764666 0.797019 0.069 Uiso 1 1 calc R . . . .
C75 C 0.0983(7) -0.0801(6) 0.7323(5) 0.039(3) Uani 1 1 d . . . . .
H75 H 0.070954 -0.087076 0.776080 0.047 Uiso 1 1 calc R . . . .
C76 C 0.0867(7) -0.0139(6) 0.6850(5) 0.038(3) Uani 1 1 d . . . . .
H76 H 0.050441 0.034443 0.691020 0.046 Uiso 1 1 calc R . . . .
C77 C 0.4390(7) -0.2991(5) 0.5602(5) 0.033(2) Uani 1 1 d . . . . .
C78 C 0.5047(7) -0.3542(6) 0.5921(6) 0.044(3) Uani 1 1 d . . . . .
H78 H 0.554924 -0.332320 0.611416 0.053 Uiso 1 1 calc R . . . .
C79 C 0.4977(7) -0.4405(6) 0.5958(6) 0.046(3) Uani 1 1 d . . . . .
H79 H 0.542509 -0.477148 0.617047 0.055 Uiso 1 1 calc R . . . .
C80 C 0.4502(7) -0.2054(6) 0.5682(5) 0.036(3) Uani 1 1 d . . . . .
loop_
_atom_site_aniso_label
_atom_site_aniso_U_11
_atom_site_aniso_U_22
_atom_site_aniso_U_33
_atom_site_aniso_U_23
_atom_site_aniso_U_13
_atom_site_aniso_U_12
Cd1 0.0355(5) 0.0351(4) 0.0202(4) -0.0030(3) 0.0036(3) -0.0039(3)
Cd2 0.0289(4) 0.0264(4) 0.0292(4) 0.0065(3) -0.0065(3) 0.0020(3)
Cd3 0.0363(4) 0.0268(4) 0.0313(4) 0.0082(3) 0.0011(3) -0.0049(3)
Cd4 0.0258(4) 0.0303(4) 0.0178(3) -0.0024(3) -0.0061(3) 0.0017(3)
O1 0.037(5) 0.054(4) 0.029(4) 0.012(3) -0.011(3) 0.000(3)
O2 0.056(6) 0.064(5) 0.029(4) 0.003(4) -0.025(3) -0.011(4)
O3 0.021(4) 0.051(4) 0.035(4) 0.002(3) -0.010(3) -0.003(3)
O4 0.028(4) 0.054(4) 0.028(4) -0.012(3) -0.003(3) 0.006(3)
O5 0.033(4) 0.030(4) 0.036(4) -0.004(3) -0.011(3) 0.007(3)
O6 0.024(4) 0.038(4) 0.058(5) 0.005(3) -0.008(3) 0.004(3)
O7 0.033(4) 0.045(4) 0.038(4) 0.001(3) -0.008(3) -0.002(3)
O8 0.029(5) 0.058(5) 0.078(6) 0.014(4) 0.001(4) -0.002(3)
O9 0.058(5) 0.045(4) 0.016(4) 0.005(3) 0.005(3) -0.002(3)
O10 0.048(5) 0.059(4) 0.025(4) -0.006(3) 0.014(3) 0.009(3)
O11 0.021(4) 0.045(4) 0.039(4) 0.001(3) -0.003(3) -0.001(3)
O12 0.038(4) 0.027(3) 0.038(4) -0.008(3) -0.013(3) 0.007(3)
O13 0.073(6) 0.033(4) 0.049(5) 0.010(4) 0.011(4) -0.007(4)
O14 0.053(6) 0.030(4) 0.111(8) 0.001(4) 0.011(5) 0.000(4)
O15 0.037(4) 0.024(3) 0.038(4) -0.012(3) -0.006(3) 0.003(3)
O16 0.029(4) 0.042(4) 0.023(4) -0.003(3) 0.002(3) -0.010(3)
O17 0.041(5) 0.042(4) 0.048(5) -0.003(3) 0.004(3) -0.007(3)
O18 0.048(5) 0.050(5) 0.064(5) -0.004(4) 0.013(4) -0.007(3)
O19 0.053(5) 0.029(4) 0.042(4) 0.005(3) 0.006(3) 0.013(3)
O20 0.033(5) 0.037(4) 0.082(6) -0.021(4) 0.001(4) -0.004(3)
O21 0.067(6) 0.023(4) 0.085(6) -0.005(4) -0.024(5) -0.001(4)
O22 0.079(7) 0.036(4) 0.088(7) 0.008(4) -0.042(5) 0.010(4)
N1 0.047(6) 0.024(4) 0.037(5) 0.013(4) -0.010(4) -0.004(4)
N2 0.059(6) 0.035(5) 0.026(5) 0.010(4) -0.018(4) -0.010(4)
N3 0.039(5) 0.023(4) 0.037(5) 0.006(3) 0.001(4) 0.001(3)
N4 0.033(5) 0.024(4) 0.028(4) 0.006(3) -0.004(3) -0.005(3)
C82 0.023(5) 0.021(4) 0.024(5) 0.003(4) 0.000(4) -0.001(3)
N6 0.028(5) 0.023(4) 0.030(4) 0.014(3) -0.008(3) 0.001(3)
N7 0.039(5) 0.032(4) 0.031(5) 0.013(3) -0.001(4) 0.001(3)
N8 0.059(7) 0.030(5) 0.051(6) 0.018(4) 0.017(5) 0.004(4)
N9 0.050(6) 0.039(5) 0.034(5) 0.005(4) 0.002(4) -0.010(4)
C81 0.014(5) 0.020(4) 0.042(6) -0.004(4) -0.014(4) 0.007(3)
C1 0.046(7) 0.026(5) 0.051(7) 0.008(5) 0.000(5) 0.009(5)
C2 0.048(7) 0.026(5) 0.036(6) 0.003(4) -0.007(5) 0.010(4)
C3 0.034(6) 0.022(5) 0.045(6) 0.003(4) 0.000(5) 0.001(4)
C4 0.019(6) 0.031(5) 0.038(6) 0.003(4) -0.010(4) 0.004(4)
C5 0.025(6) 0.028(5) 0.034(5) -0.002(4) -0.005(4) 0.005(4)
C6 0.032(6) 0.020(5) 0.059(7) 0.016(4) -0.007(5) -0.001(4)
C7 0.021(6) 0.047(6) 0.033(6) 0.020(4) -0.005(4) 0.005(4)
C8 0.011(5) 0.035(5) 0.030(5) -0.001(4) -0.006(4) 0.005(4)
C9 0.020(5) 0.021(4) 0.016(4) -0.002(3) -0.002(3) -0.008(3)
C10 0.026(5) 0.026(5) 0.018(5) -0.002(4) 0.001(4) -0.003(4)
C11 0.026(6) 0.032(5) 0.020(5) -0.003(4) 0.003(4) -0.001(4)
C12 0.021(5) 0.030(5) 0.029(5) 0.001(4) -0.013(4) -0.013(4)
C13 0.023(6) 0.043(6) 0.025(5) 0.008(4) -0.006(4) 0.001(4)
C14 0.033(6) 0.031(5) 0.017(5) -0.003(4) -0.004(4) 0.000(4)
C15 0.021(5) 0.022(4) 0.024(5) -0.004(4) -0.002(4) 0.002(3)
C16 0.032(6) 0.050(6) 0.020(5) -0.004(5) -0.003(4) 0.004(5)
C17 0.019(5) 0.013(4) 0.030(5) 0.005(3) -0.008(4) 0.001(3)
C18 0.027(6) 0.027(5) 0.027(5) 0.006(4) 0.001(4) 0.002(4)
C19 0.083(10) 0.050(7) 0.036(7) 0.013(5) -0.032(6) -0.013(6)
C20 0.055(7) 0.024(5) 0.037(6) 0.010(4) -0.014(5) -0.007(4)
C21 0.075(9) 0.045(7) 0.043(7) 0.018(5) -0.019(6) -0.009(6)
C22 0.064(9) 0.052(7) 0.054(8) 0.023(6) -0.024(6) -0.025(6)
C23 0.056(8) 0.023(5) 0.046(7) 0.009(5) -0.007(5) -0.006(5)
C24 0.108(12) 0.044(7) 0.045(8) 0.013(6) -0.037(7) -0.023(7)
C25 0.103(12) 0.050(8) 0.056(9) 0.018(6) -0.051(8) -0.036(7)
C26 0.037(7) 0.041(6) 0.051(7) 0.006(5) -0.004(5) -0.002(5)
C27 0.046(7) 0.034(6) 0.035(6) 0.013(4) -0.015(5) -0.012(4)
C28 0.033(6) 0.027(5) 0.044(6) 0.011(4) -0.018(5) 0.003(4)
C29 0.042(7) 0.026(5) 0.023(5) 0.014(4) 0.006(4) -0.001(4)
C30 0.056(9) 0.044(7) 0.069(9) 0.013(6) -0.021(6) -0.022(5)
C31 0.056(9) 0.041(7) 0.087(10) 0.031(6) -0.013(7) -0.007(6)
C32 0.039(6) 0.023(5) 0.021(5) 0.006(4) -0.004(4) -0.002(4)
C33 0.033(6) 0.027(5) 0.035(6) 0.006(4) -0.006(4) -0.003(4)
C34 0.036(6) 0.037(5) 0.026(5) 0.006(4) -0.007(4) 0.006(4)
C35 0.027(6) 0.054(7) 0.026(5) 0.007(5) -0.006(4) -0.001(5)
C36 0.024(6) 0.030(5) 0.035(6) 0.002(4) 0.002(4) -0.005(4)
C37 0.036(6) 0.026(5) 0.017(5) 0.003(4) 0.000(4) 0.000(4)
C38 0.015(5) 0.041(5) 0.020(5) -0.005(4) -0.008(3) -0.005(4)
C39 0.028(6) 0.028(5) 0.019(5) 0.001(4) -0.001(4) 0.001(4)
C40 0.036(6) 0.039(5) 0.032(6) 0.003(4) -0.003(4) 0.012(4)
C41 0.051(7) 0.033(5) 0.023(5) 0.003(4) 0.001(4) -0.001(4)
C42 0.027(6) 0.035(5) 0.024(5) -0.004(4) 0.003(4) 0.002(4)
C43 0.026(6) 0.041(5) 0.018(5) -0.003(4) -0.004(4) 0.004(4)
C44 0.049(7) 0.043(6) 0.024(6) -0.007(5) 0.005(4) -0.014(5)
C45 0.027(6) 0.027(5) 0.021(5) -0.001(4) -0.001(4) -0.006(4)
C46 0.018(5) 0.037(5) 0.034(6) -0.001(4) 0.006(4) -0.002(4)
C47 0.032(6) 0.041(6) 0.019(5) -0.004(4) -0.004(4) -0.004(4)
C48 0.026(5) 0.034(5) 0.012(4) -0.003(4) -0.003(3) -0.002(4)
C49 0.027(6) 0.025(5) 0.033(5) -0.003(4) 0.003(4) -0.001(4)
C50 0.039(7) 0.025(5) 0.038(6) 0.007(4) -0.004(5) -0.002(4)
C51 0.019(6) 0.047(6) 0.043(6) 0.010(5) 0.006(4) 0.016(4)
C52 0.031(6) 0.033(5) 0.026(5) 0.000(4) -0.002(4) 0.005(4)
C53 0.041(6) 0.021(5) 0.029(5) -0.005(4) 0.001(4) -0.016(4)
C54 0.050(8) 0.029(5) 0.039(6) 0.001(4) -0.002(5) -0.009(5)
C55 0.033(6) 0.040(6) 0.037(6) 0.008(4) -0.002(4) -0.009(4)
C56 0.025(6) 0.035(5) 0.050(7) -0.002(5) -0.001(5) 0.005(4)
C57 0.094(11) 0.054(8) 0.063(9) 0.032(6) -0.065(8) -0.033(7)
C58 0.073(9) 0.026(6) 0.059(8) 0.011(5) -0.037(6) -0.023(5)
C59 0.039(6) 0.022(5) 0.028(5) 0.012(4) 0.003(4) 0.005(4)
C60 0.051(7) 0.023(5) 0.036(6) 0.013(4) -0.008(5) 0.004(4)
C61 0.051(7) 0.033(5) 0.030(6) 0.015(4) -0.003(5) 0.000(4)
C62 0.062(9) 0.037(6) 0.058(8) 0.017(5) 0.008(6) -0.001(5)
C63 0.053(8) 0.045(6) 0.042(7) 0.017(5) 0.008(5) 0.014(5)
C64 0.065(9) 0.035(6) 0.084(10) 0.021(6) 0.021(7) 0.011(6)
C65 0.040(7) 0.052(7) 0.083(9) 0.033(6) 0.016(6) 0.018(5)
C66 0.069(9) 0.047(7) 0.043(7) 0.021(5) 0.018(6) 0.014(6)
C67 0.080(10) 0.046(7) 0.046(7) 0.010(5) 0.022(6) 0.016(6)
C68 0.116(12) 0.044(7) 0.047(8) 0.009(6) 0.030(7) 0.013(7)
C69 0.069(9) 0.037(6) 0.061(8) 0.018(5) 0.016(6) 0.007(5)
C70 0.119(13) 0.056(8) 0.058(9) 0.021(6) 0.040(8) 0.039(8)
C71 0.112(12) 0.055(7) 0.057(8) 0.032(6) 0.042(8) 0.032(7)
C72 0.050(7) 0.044(6) 0.037(6) 0.027(5) 0.014(5) 0.002(5)
C73 0.059(8) 0.035(6) 0.051(7) 0.005(5) 0.018(6) 0.005(5)
C74 0.074(9) 0.045(7) 0.051(7) 0.009(5) 0.025(6) 0.004(6)
C75 0.041(7) 0.045(6) 0.031(6) -0.004(5) 0.012(5) 0.001(5)
C76 0.034(6) 0.035(5) 0.046(7) -0.002(5) 0.001(5) 0.001(4)
C77 0.033(6) 0.025(5) 0.038(6) 0.006(4) -0.001(4) 0.009(4)
C78 0.026(6) 0.035(6) 0.069(8) 0.001(5) -0.017(5) 0.005(4)
C79 0.027(6) 0.032(5) 0.075(8) 0.011(5) -0.018(5) 0.010(4)
C80 0.038(7) 0.023(5) 0.045(6) 0.010(4) -0.003(5) 0.007(4)
loop_
_atom_type_symbol
_atom_type_description
_atom_type_scat_dispersion_real
_atom_type_scat_dispersion_imag
_atom_type_scat_source
C C 0.0030 0.0020 'International Tables Vol C Tables 4.2.6.8 and 6.1.1.4'
H H 0.0000 0.0000 'International Tables Vol C Tables 4.2.6.8 and 6.1.1.4'
Cd Cd -0.8080 1.2020 'International Tables Vol C Tables 4.2.6.8 and 6.1.1.4'
N N 0.0060 0.0030 'International Tables Vol C Tables 4.2.6.8 and 6.1.1.4'
O O 0.0110 0.0060 'International Tables Vol C Tables 4.2.6.8 and 6.1.1.4'
loop_
_geom_angle_atom_site_label_1
_geom_angle_atom_site_label_2
_geom_angle_atom_site_label_3
_geom_angle
_geom_angle_site_symmetry_1
_geom_angle_site_symmetry_3
_geom_angle_publ_flag
O3 Cd1 Cd1 38.57(17) 2_656 2_656 ?
O3 Cd1 Cd1 39.85(16) . 2_656 ?
O3 Cd1 O3 78.4(3) . 2_656 ?
O3 Cd1 O4 49.8(2) 2_656 2_656 ?
O3 Cd1 O4 120.5(2) . 2_656 ?
O3 Cd1 O9 113.5(2) . 1_545 ?
O3 Cd1 O9 113.7(2) 2_656 1_545 ?
O3 Cd1 O10 165.7(2) 2_656 1_545 ?
O3 Cd1 O10 114.3(3) . 1_545 ?
O3 Cd1 O19 139.3(2) . 2_656 ?
O3 Cd1 O20 87.2(2) 2_656 2_656 ?
O3 Cd1 O20 85.6(2) . 2_656 ?
O3 Cd1 C44 122.2(3) . 1_545 ?
O3 Cd1 C44 139.7(3) 2_656 1_545 ?
O3 Cd1 C80 112.3(3) . 2_656 ?
O3 Cd1 C80 86.5(3) 2_656 2_656 ?
O4 Cd1 Cd1 84.26(14) 2_656 2_656 ?
O9 Cd1 Cd1 121.14(16) 1_545 2_656 ?
O9 Cd1 O4 72.9(2) 1_545 2_656 ?
O9 Cd1 O20 153.5(3) 1_545 2_656 ?
O9 Cd1 C44 28.9(3) 1_545 1_545 ?
O9 Cd1 C80 132.6(3) 1_545 2_656 ?
O10 Cd1 Cd1 153.6(2) 1_545 2_656 ?
O10 Cd1 O4 116.0(2) 1_545 2_656 ?
O10 Cd1 O9 56.2(2) 1_545 1_545 ?
O10 Cd1 O20 99.9(2) 1_545 2_656 ?
O10 Cd1 C44 28.1(3) 1_545 1_545 ?
O10 Cd1 C80 94.0(3) 1_545 2_656 ?
O19 Cd1 Cd1 117.39(16) 2_656 2_656 ?
O19 Cd1 O3 88.0(2) 2_656 2_656 ?
O19 Cd1 O4 73.8(2) 2_656 2_656 ?
O19 Cd1 O9 107.1(2) 2_656 1_545 ?
O19 Cd1 O10 85.9(3) 2_656 1_545 ?
O19 Cd1 O20 55.3(2) 2_656 2_656 ?
O19 Cd1 C44 92.6(3) 2_656 1_545 ?
O19 Cd1 C80 27.7(3) 2_656 2_656 ?
O20 Cd1 Cd1 85.31(19) 2_656 2_656 ?
O20 Cd1 O4 114.3(2) 2_656 2_656 ?
O20 Cd1 C44 125.4(3) 2_656 1_545 ?
O20 Cd1 C80 27.6(2) 2_656 2_656 ?
C44 Cd1 Cd1 147.0(2) 1_545 2_656 ?
C44 Cd1 O4 91.9(3) 1_545 2_656 ?
C44 Cd1 C80 111.3(3) 1_545 2_656 ?
C80 Cd1 Cd1 101.7(2) 2_656 2_656 ?
C80 Cd1 O4 93.8(3) 2_656 2_656 ?
O4 Cd2 O7 75.2(2) . . ?
O5 Cd2 O4 98.5(2) . . ?
O5 Cd2 O6 102.5(2) . 2_556 ?
O5 Cd2 O7 170.7(2) . . ?
O5 Cd2 N1 85.6(3) . . ?
O6 Cd2 O4 158.9(2) 2_556 . ?
O6 Cd2 O7 84.0(2) 2_556 . ?
N1 Cd2 O4 99.4(3) . . ?
N1 Cd2 O6 83.4(3) . 2_556 ?
N1 Cd2 O7 88.6(3) . . ?
N6 Cd2 O4 85.3(2) . . ?
N6 Cd2 O5 101.7(3) . . ?
N6 Cd2 O6 89.3(2) . 2_556 ?
N6 Cd2 O7 84.8(3) . . ?
N6 Cd2 N1 170.7(3) . . ?
O8 Cd3 O16 157.7(2) . 2_675 ?
O8 Cd3 O18 79.5(3) . . ?
O17 Cd3 O8 103.0(3) 2_675 . ?
O17 Cd3 O16 98.1(2) 2_675 2_675 ?
O17 Cd3 O18 167.9(3) 2_675 . ?
O18 Cd3 O16 78.4(2) . 2_675 ?
N4 Cd3 O8 99.5(3) . . ?
N4 Cd3 O16 83.3(3) . 2_675 ?
N4 Cd3 O17 100.5(2) . 2_675 ?
N4 Cd3 O18 90.6(2) . . ?
N4 Cd3 N9 175.5(3) . 1_574 ?
N9 Cd3 O8 81.4(3) 1_574 . ?
N9 Cd3 O16 94.2(3) 1_574 2_675 ?
N9 Cd3 O17 83.6(3) 1_574 2_675 ?
N9 Cd3 O18 85.1(3) 1_574 . ?
O1 Cd4 Cd4 162.16(16) 1_665 2_775 ?
O1 Cd4 O2 54.9(3) 1_665 1_665 ?
O1 Cd4 O11 132.0(2) 1_665 2_775 ?
O1 Cd4 O12 85.8(2) 1_665 . ?
O1 Cd4 O15 122.0(2) 1_665 2_775 ?
O1 Cd4 O16 86.3(2) 1_665 2_775 ?
O1 Cd4 C16 27.7(3) 1_665 1_665 ?
O1 Cd4 C45 110.5(3) 1_665 2_775 ?
O2 Cd4 Cd4 139.0(2) 1_665 2_775 ?
O2 Cd4 O11 155.1(2) 1_665 2_775 ?
O2 Cd4 O16 112.0(2) 1_665 2_775 ?
O2 Cd4 C16 27.4(3) 1_665 1_665 ?
O2 Cd4 C45 135.3(3) 1_665 2_775 ?
O11 Cd4 Cd4 45.54(16) . 2_775 ?
O11 Cd4 Cd4 42.87(16) 2_775 2_775 ?
O11 Cd4 O1 134.2(2) . 1_665 ?
O11 Cd4 O2 99.1(3) . 1_665 ?
O11 Cd4 O11 88.4(2) . 2_775 ?
O11 Cd4 O12 81.5(2) . . ?
O11 Cd4 O15 79.9(2) . 2_775 ?
O11 Cd4 O16 52.7(2) 2_775 2_775 ?
O11 Cd4 O16 139.2(2) . 2_775 ?
O11 Cd4 C16 150.4(3) 2_775 1_665 ?
O11 Cd4 C16 120.7(3) . 1_665 ?
O11 Cd4 C45 113.4(3) . 2_775 ?
O11 Cd4 C45 26.1(2) 2_775 2_775 ?
O12 Cd4 Cd4 76.43(15) . 2_775 ?
O12 Cd4 O2 125.3(2) . 1_665 ?
O12 Cd4 O11 79.2(2) . 2_775 ?
O12 Cd4 O16 100.1(2) . 2_775 ?
O12 Cd4 C16 108.5(3) . 1_665 ?
O12 Cd4 C45 90.5(2) . 2_775 ?
O15 Cd4 Cd4 75.65(16) 2_775 2_775 ?
O15 Cd4 O2 78.3(2) 2_775 1_665 ?
O15 Cd4 O11 79.7(2) 2_775 2_775 ?
O15 Cd4 O12 152.1(2) 2_775 . ?
O15 Cd4 O16 81.1(2) 2_775 2_775 ?
O15 Cd4 C16 98.9(3) 2_775 1_665 ?
O15 Cd4 C45 78.2(2) 2_775 2_775 ?
O16 Cd4 Cd4 94.74(15) 2_775 2_775 ?
O16 Cd4 C16 97.7(3) 2_775 1_665 ?
O16 Cd4 C45 26.7(2) 2_775 2_775 ?
C16 Cd4 Cd4 165.5(2) 1_665 2_775 ?
C16 Cd4 C45 124.4(3) 1_665 2_775 ?
C45 Cd4 Cd4 68.2(2) 2_775 2_775 ?
C16 O1 Cd4 93.8(6) . 1_445 ?
C16 O2 Cd4 89.3(6) . 1_445 ?
Cd1 O3 Cd1 101.6(3) . 2_656 ?
C17 O3 Cd1 142.2(5) . . ?
C17 O3 Cd1 105.7(5) . 2_656 ?
Cd2 O4 Cd1 145.7(2) . 2_656 ?
C17 O4 Cd1 82.5(5) . 2_656 ?
C17 O4 Cd2 130.7(6) . . ?
C18 O5 Cd2 136.7(6) . . ?
C18 O6 Cd2 113.4(5) . 2_556 ?
C35 O8 Cd3 109.1(7) . . ?
C44 O9 Cd1 88.3(5) . 1_565 ?
C44 O10 Cd1 91.1(6) . 1_565 ?
Cd4 O11 Cd4 91.6(2) . 2_775 ?
C45 O11 Cd4 163.2(6) . . ?
C45 O11 Cd4 94.3(5) . 2_775 ?
C46 O12 Cd4 128.6(6) . . ?
C46 O15 Cd4 131.5(6) . 2_775 ?
Cd3 O16 Cd4 134.7(3) 2_675 2_775 ?
C45 O16 Cd3 128.9(6) . 2_675 ?
C45 O16 Cd4 91.1(5) . 2_775 ?
C35 O17 Cd3 137.5(6) . 2_675 ?
C80 O19 Cd1 95.4(6) . 2_656 ?
C80 O20 Cd1 88.0(5) . 2_656 ?
C19 N1 Cd2 129.2(7) . . ?
C19 N1 C58 105.4(9) . . ?
C58 N1 Cd2 124.7(7) . . ?
C19 N2 C20 126.8(10) . . ?
C19 N2 C57 104.3(9) . . ?
C57 N2 C20 128.8(8) . . ?
C32 N3 C29 127.1(9) . . ?
C32 N3 C34 106.6(8) . . ?
C34 N3 C29 126.3(8) . . ?
C32 N4 Cd3 128.5(7) . . ?
C32 N4 C33 106.4(8) . . ?
C33 N4 Cd3 124.9(7) . . ?
C37 C82 C49 121.7(8) . . ?
C59 N6 Cd2 127.2(6) . . ?
C59 N6 C76 105.2(7) . . ?
C76 N6 Cd2 127.4(6) . . ?
C59 N7 C60 125.1(7) . . ?
C59 N7 C75 106.4(7) . . ?
C75 N7 C60 128.3(8) . . ?
C72 N8 C69 127.4(8) . . ?
C72 N8 C74 106.7(8) . . ?
C74 N8 C69 125.9(9) . . ?
C72 N9 Cd3 128.3(6) . 1_536 ?
C72 N9 C73 105.2(8) . . ?
C73 N9 Cd3 125.5(7) . 1_536 ?
C5 C81 C9 120.6(8) . . ?
O21 C1 C2 114.1(8) . . ?
O22 C1 O21 123.2(10) . . ?
O22 C1 C2 122.8(11) . . ?
C3 C2 C1 120.6(10) . . ?
C79 C2 C1 118.6(8) . . ?
C79 C2 C3 120.7(9) . . ?
C2 C3 C4 121.2(10) . . ?
C3 C4 C5 119.3(9) . . ?
C77 C4 C3 117.3(7) . . ?
C77 C4 C5 123.4(8) . . ?
C81 C5 C4 123.1(8) . . ?
C6 C5 C81 120.4(8) . . ?
C6 C5 C4 116.5(9) . . ?
C5 C6 C7 118.9(9) . . ?
C8 C7 C6 120.7(9) . . ?
C7 C8 C9 121.4(7) . . ?
C7 C8 C18 117.4(8) . . ?
C9 C8 C18 120.9(8) . . ?
C81 C9 C10 121.2(7) . . ?
C8 C9 C81 117.7(8) . . ?
C8 C9 C10 121.1(7) . . ?
C11 C10 C9 121.3(8) . . ?
C15 C10 C9 119.9(8) . . ?
C15 C10 C11 118.7(8) . . ?
C10 C11 C12 120.3(8) . . ?
C10 C11 C17 120.3(8) . . ?
C12 C11 C17 119.1(8) . . ?
C13 C12 C11 119.7(9) . . ?
C12 C13 C14 120.5(9) . . ?
C13 C14 C15 118.8(8) . . ?
C13 C14 C16 119.5(9) . . ?
C15 C14 C16 121.7(9) . . ?
C10 C15 C14 121.9(9) . . ?
O1 C16 Cd4 58.5(5) . 1_445 ?
O1 C16 C14 119.8(10) . . ?
O2 C16 Cd4 63.3(5) . 1_445 ?
O2 C16 O1 120.9(9) . . ?
O2 C16 C14 119.3(9) . . ?
C14 C16 Cd4 168.9(6) . 1_445 ?
O3 C17 C11 118.5(7) . . ?
O4 C17 O3 121.2(8) . . ?
O4 C17 C11 120.3(8) . . ?
O5 C18 O6 121.6(7) . . ?
O5 C18 C8 121.1(9) . . ?
O6 C18 C8 117.2(8) . . ?
N1 C19 N2 111.8(10) . . ?
C21 C20 N2 120.8(9) . . ?
C25 C20 N2 121.1(10) . . ?
C25 C20 C21 118.1(10) . . ?
C20 C21 C22 119.7(10) . . ?
C23 C22 C21 122.9(11) . . ?
C22 C23 C26 121.8(11) . . ?
C24 C23 C22 115.4(10) . . ?
C24 C23 C26 122.7(10) . . ?
C23 C24 C25 123.7(10) . . ?
C20 C25 C24 120.1(11) . . ?
C27 C26 C23 123.2(11) . . ?
C31 C26 C23 120.8(9) . . ?
C31 C26 C27 115.9(10) . . ?
C28 C27 C26 121.4(10) . . ?
C29 C28 C27 121.2(8) . . ?
C28 C29 N3 121.8(8) . . ?
C28 C29 C30 118.9(9) . . ?
C30 C29 N3 119.3(10) . . ?
C29 C30 C31 120.5(12) . . ?
C30 C31 C26 122.1(10) . . ?
N4 C32 N3 111.3(9) . . ?
C34 C33 N4 109.4(9) . . ?
C33 C34 N3 106.3(8) . . ?
O8 C35 C36 118.0(9) . . ?
O17 C35 O8 123.4(10) . . ?
O17 C35 C36 118.4(8) . . ?
C37 C36 C35 119.3(8) . . ?
C51 C36 C35 122.6(9) . . ?
C51 C36 C37 118.1(9) . . ?
C82 C37 C36 119.2(8) . . ?
C82 C37 C38 121.2(8) . . ?
C36 C37 C38 119.5(8) . . ?
C39 C38 C37 122.1(7) . . ?
C43 C38 C37 120.1(7) . . ?
C43 C38 C39 117.8(8) . . ?
C38 C39 C45 121.4(8) . . ?
C40 C39 C38 120.2(8) . . ?
C40 C39 C45 118.2(7) . . ?
C41 C40 C39 120.9(8) . . ?
C40 C41 C42 118.8(9) . . ?
C41 C42 C44 121.0(9) . . ?
C43 C42 C41 120.5(8) . . ?
C43 C42 C44 118.5(7) . . ?
C42 C43 C38 121.6(7) . . ?
O9 C44 Cd1 62.8(4) . 1_565 ?
O9 C44 C42 119.3(8) . . ?
O10 C44 Cd1 60.8(4) . 1_565 ?
O10 C44 O9 121.0(8) . . ?
O10 C44 C42 119.6(9) . . ?
C42 C44 Cd1 160.8(7) . 1_565 ?
O11 C45 Cd4 59.7(4) . 2_775 ?
O11 C45 O16 121.8(8) . . ?
O11 C45 C39 119.5(8) . . ?
O16 C45 Cd4 62.2(4) . 2_775 ?
O16 C45 C39 118.7(8) . . ?
C39 C45 Cd4 176.7(6) . 2_775 ?
O12 C46 C47 115.9(8) . . ?
O15 C46 O12 127.6(8) . . ?
O15 C46 C47 116.5(8) . . ?
C48 C47 C46 122.9(9) . . ?
C56 C47 C46 117.1(8) . . ?
C56 C47 C48 119.9(8) . . ?
C47 C48 C49 122.0(8) . . ?
C47 C48 C52 118.0(8) . . ?
C52 C48 C49 120.0(7) . . ?
C82 C49 C48 122.5(8) . . ?
C82 C49 C50 118.8(9) . . ?
C50 C49 C48 118.7(8) . . ?
C51 C50 C49 118.5(9) . . ?
C36 C51 C50 123.3(9) . . ?
C53 C52 C48 122.4(8) . . ?
C52 C53 C54 118.2(8) . . ?
C52 C53 C55 118.3(8) . . ?
C55 C53 C54 123.5(9) . . ?
O13 C54 C53 112.8(8) . . ?
O14 C54 O13 124.5(9) . . ?
O14 C54 C53 122.7(10) . . ?
C56 C55 C53 120.0(9) . . ?
C55 C56 C47 121.2(8) . . ?
C58 C57 N2 107.8(9) . . ?
C57 C58 N1 110.6(10) . . ?
N6 C59 N7 111.3(7) . . ?
C61 C60 N7 119.4(8) . . ?
C65 C60 N7 119.2(9) . . ?
C65 C60 C61 121.3(8) . . ?
C62 C61 C60 118.7(9) . . ?
C61 C62 C63 122.1(11) . . ?
C62 C63 C64 117.2(9) . . ?
C62 C63 C66 122.5(10) . . ?
C64 C63 C66 120.3(9) . . ?
C63 C64 C65 121.7(10) . . ?
C60 C65 C64 118.7(11) . . ?
C67 C66 C63 122.2(9) . . ?
C71 C66 C63 121.8(9) . . ?
C71 C66 C67 116.0(9) . . ?
C68 C67 C66 122.7(9) . . ?
C67 C68 C69 118.8(10) . . ?
C68 C69 N8 118.9(10) . . ?
C70 C69 N8 121.1(9) . . ?
C70 C69 C68 119.9(10) . . ?
C69 C70 C71 120.7(10) . . ?
C70 C71 C66 121.7(10) . . ?
N9 C72 N8 110.9(8) . . ?
C74 C73 N9 110.9(9) . . ?
C73 C74 N8 106.2(9) . . ?
C76 C75 N7 106.9(8) . . ?
C75 C76 N6 110.1(7) . . ?
C4 C77 C78 121.0(9) . . ?
C4 C77 C80 122.8(7) . . ?
C78 C77 C80 115.5(10) . . ?
C79 C78 C77 121.5(10) . . ?
C2 C79 C78 118.1(8) . . ?
O19 C80 Cd1 56.9(5) . 2_656 ?
O19 C80 C77 118.4(9) . . ?
O20 C80 Cd1 64.4(5) . 2_656 ?
O20 C80 O19 121.3(9) . . ?
O20 C80 C77 120.3(7) . . ?
C77 C80 Cd1 175.0(7) . 2_656 ?
loop_
_geom_bond_atom_site_label_1
_geom_bond_atom_site_label_2
_geom_bond_distance
_geom_bond_site_symmetry_2
_geom_bond_publ_flag
Cd1 Cd1 3.4999(14) 2_656 ?
Cd1 O3 2.227(7) . ?
Cd1 O3 2.289(6) 2_656 ?
Cd1 O4 2.811(6) 2_656 ?
Cd1 O9 2.351(6) 1_545 ?
Cd1 O10 2.306(6) 1_545 ?
Cd1 O19 2.277(7) 2_656 ?
Cd1 O20 2.443(6) 2_656 ?
Cd1 C44 2.641(9) 1_545 ?
Cd1 C80 2.706(9) 2_656 ?
Cd2 O4 2.401(6) . ?
Cd2 O5 2.247(6) . ?
Cd2 O6 2.304(6) 2_556 ?
Cd2 O7 2.443(7) . ?
Cd2 N1 2.282(8) . ?
Cd2 N6 2.247(7) . ?
Cd3 O8 2.333(8) . ?
Cd3 O16 2.464(7) 2_675 ?
Cd3 O17 2.306(6) 2_675 ?
Cd3 O18 2.416(6) . ?
Cd3 N4 2.218(7) . ?
Cd3 N9 2.226(8) 1_574 ?
Cd4 Cd4 3.3846(13) 2_775 ?
Cd4 O1 2.308(7) 1_665 ?
Cd4 O2 2.413(7) 1_665 ?
Cd4 O11 2.304(7) . ?
Cd4 O11 2.416(6) 2_775 ?
Cd4 O12 2.329(5) . ?
Cd4 O15 2.314(5) 2_775 ?
Cd4 O16 2.471(6) 2_775 ?
Cd4 C16 2.702(10) 1_665 ?
Cd4 C45 2.792(8) 2_775 ?
O1 C16 1.260(11) . ?
O2 C16 1.245(12) . ?
O3 C17 1.294(10) . ?
O4 C17 1.228(10) . ?
O5 C18 1.257(10) . ?
O6 C18 1.271(11) . ?
O8 C35 1.256(11) . ?
O9 C44 1.276(11) . ?
O10 C44 1.245(11) . ?
O11 C45 1.229(10) . ?
O12 C46 1.287(11) . ?
O13 C54 1.316(12) . ?
O14 C54 1.186(11) . ?
O15 C46 1.237(11) . ?
O16 C45 1.254(10) . ?
O17 C35 1.245(11) . ?
O19 C80 1.264(10) . ?
O20 C80 1.253(12) . ?
O21 C1 1.304(13) . ?
O22 C1 1.199(11) . ?
N1 C19 1.303(14) . ?
N1 C58 1.348(13) . ?
N2 C19 1.362(12) . ?
N2 C20 1.403(12) . ?
N2 C57 1.370(14) . ?
N3 C29 1.441(11) . ?
N3 C32 1.351(11) . ?
N3 C34 1.376(12) . ?
N4 C32 1.291(12) . ?
N4 C33 1.377(12) . ?
C82 C37 1.387(12) . ?
C82 C49 1.393(12) . ?
N6 C59 1.309(9) . ?
N6 C76 1.374(12) . ?
N7 C59 1.349(11) . ?
N7 C60 1.424(10) . ?
N7 C75 1.366(10) . ?
N8 C69 1.428(12) . ?
N8 C72 1.342(12) . ?
N8 C74 1.377(12) . ?
N9 C72 1.320(11) . ?
N9 C73 1.364(12) . ?
C81 C5 1.378(12) . ?
C81 C9 1.402(10) . ?
C1 C2 1.495(13) . ?
C2 C3 1.382(12) . ?
C2 C79 1.370(14) . ?
C3 C4 1.392(12) . ?
C4 C5 1.505(11) . ?
C4 C77 1.371(13) . ?
C5 C6 1.370(14) . ?
C6 C7 1.398(12) . ?
C7 C8 1.347(12) . ?
C8 C9 1.390(12) . ?
C8 C18 1.484(10) . ?
C9 C10 1.501(11) . ?
C10 C11 1.386(13) . ?
C10 C15 1.373(12) . ?
C11 C12 1.403(12) . ?
C11 C17 1.487(12) . ?
C12 C13 1.376(12) . ?
C13 C14 1.384(13) . ?
C14 C15 1.393(12) . ?
C14 C16 1.486(13) . ?
C20 C21 1.380(15) . ?
C20 C25 1.366(14) . ?
C21 C22 1.392(15) . ?
C22 C23 1.372(15) . ?
C23 C24 1.354(15) . ?
C23 C26 1.461(14) . ?
C24 C25 1.385(15) . ?
C26 C27 1.392(13) . ?
C26 C31 1.385(16) . ?
C27 C28 1.373(13) . ?
C28 C29 1.354(13) . ?
C29 C30 1.364(14) . ?
C30 C31 1.373(15) . ?
C33 C34 1.338(12) . ?
C35 C36 1.489(14) . ?
C36 C37 1.419(13) . ?
C36 C51 1.361(12) . ?
C37 C38 1.483(12) . ?
C38 C39 1.406(10) . ?
C38 C43 1.379(12) . ?
C39 C40 1.389(12) . ?
C39 C45 1.496(11) . ?
C40 C41 1.374(13) . ?
C41 C42 1.389(11) . ?
C42 C43 1.375(12) . ?
C42 C44 1.488(12) . ?
C46 C47 1.514(12) . ?
C47 C48 1.391(11) . ?
C47 C56 1.385(14) . ?
C48 C49 1.482(13) . ?
C48 C52 1.392(11) . ?
C49 C50 1.401(13) . ?
C50 C51 1.394(14) . ?
C52 C53 1.384(13) . ?
C53 C54 1.495(12) . ?
C53 C55 1.392(12) . ?
C55 C56 1.370(12) . ?
C57 C58 1.314(14) . ?
C60 C61 1.381(14) . ?
C60 C65 1.346(13) . ?
C61 C62 1.371(12) . ?
C62 C63 1.377(13) . ?
C63 C64 1.377(15) . ?
C63 C66 1.475(13) . ?
C64 C65 1.396(13) . ?
C66 C67 1.391(15) . ?
C66 C71 1.389(14) . ?
C67 C68 1.356(13) . ?
C68 C69 1.405(14) . ?
C69 C70 1.330(15) . ?
C70 C71 1.375(14) . ?
C73 C74 1.320(14) . ?
C75 C76 1.324(13) . ?
C77 C78 1.379(12) . ?
C77 C80 1.522(13) . ?
C78 C79 1.371(13) . ?
loop_
_geom_torsion_atom_site_label_1
_geom_torsion_atom_site_label_2
_geom_torsion_atom_site_label_3
_geom_torsion_atom_site_label_4
_geom_torsion
_geom_torsion_site_symmetry_1
_geom_torsion_site_symmetry_2
_geom_torsion_site_symmetry_3
_geom_torsion_site_symmetry_4
_geom_torsion_publ_flag
Cd1 O3 C17 O4 10.5(9) 2_656 . . . ?
Cd1 O3 C17 O4 -124.0(9) . . . . ?
Cd1 O3 C17 C11 -169.3(6) 2_656 . . . ?
Cd1 O3 C17 C11 56.2(12) . . . . ?
Cd1 O4 C17 O3 -8.3(7) 2_656 . . . ?
Cd1 O4 C17 C11 171.5(7) 2_656 . . . ?
Cd1 O9 C44 O10 -18.4(10) 1_565 . . . ?
Cd1 O9 C44 C42 158.3(8) 1_565 . . . ?
Cd1 O10 C44 O9 18.8(10) 1_565 . . . ?
Cd1 O10 C44 C42 -157.9(8) 1_565 . . . ?
Cd1 O19 C80 O20 3.1(10) 2_656 . . . ?
Cd1 O19 C80 C77 -177.8(7) 2_656 . . . ?
Cd1 O20 C80 O19 -2.9(10) 2_656 . . . ?
Cd1 O20 C80 C77 178.1(8) 2_656 . . . ?
Cd2 O4 C17 O3 162.1(5) . . . . ?
Cd2 O4 C17 C11 -18.1(11) . . . . ?
Cd2 O5 C18 O6 132.4(8) . . . . ?
Cd2 O5 C18 C8 -44.8(12) . . . . ?
Cd2 O6 C18 O5 -28.4(10) 2_556 . . . ?
Cd2 O6 C18 C8 148.9(6) 2_556 . . . ?
Cd2 N1 C19 N2 -169.4(7) . . . . ?
Cd2 N1 C58 C57 171.2(9) . . . . ?
Cd2 N6 C59 N7 -174.5(6) . . . . ?
Cd2 N6 C76 C75 173.8(7) . . . . ?
Cd3 O8 C35 O17 -22.9(11) . . . . ?
Cd3 O8 C35 C36 151.5(7) . . . . ?
Cd3 O16 C45 Cd4 156.9(6) 2_675 . . 2_775 ?
Cd3 O16 C45 O11 152.5(6) 2_675 . . . ?
Cd3 O16 C45 C39 -26.7(10) 2_675 . . . ?
Cd3 O17 C35 O8 134.4(9) 2_675 . . . ?
Cd3 O17 C35 C36 -40.0(14) 2_675 . . . ?
Cd3 N4 C32 N3 172.4(5) . . . . ?
Cd3 N4 C33 C34 -172.8(5) . . . . ?
Cd3 N9 C72 N8 167.2(8) 1_536 . . . ?
Cd3 N9 C73 C74 -169.8(8) 1_536 . . . ?
Cd4 O1 C16 O2 -10.9(9) 1_445 . . . ?
Cd4 O1 C16 C14 167.2(7) 1_445 . . . ?
Cd4 O2 C16 O1 10.4(8) 1_445 . . . ?
Cd4 O2 C16 C14 -167.7(7) 1_445 . . . ?
Cd4 O11 C45 Cd4 110(2) . . . 2_775 ?
Cd4 O11 C45 O16 114.6(19) . . . . ?
Cd4 O11 C45 O16 4.5(9) 2_775 . . . ?
Cd4 O11 C45 C39 -176.3(7) 2_775 . . . ?
Cd4 O11 C45 C39 -66(2) . . . . ?
Cd4 O12 C46 O15 2.9(14) . . . . ?
Cd4 O12 C46 C47 -176.7(5) . . . . ?
Cd4 O15 C46 O12 -5.3(14) 2_775 . . . ?
Cd4 O15 C46 C47 174.3(5) 2_775 . . . ?
Cd4 O16 C45 O11 -4.4(8) 2_775 . . . ?
Cd4 O16 C45 C39 176.4(7) 2_775 . . . ?
O8 C35 C36 C37 137.3(9) . . . . ?
O8 C35 C36 C51 -46.0(13) . . . . ?
O12 C46 C47 C48 -114.4(10) . . . . ?
O12 C46 C47 C56 68.6(11) . . . . ?
O15 C46 C47 C48 65.9(11) . . . . ?
O15 C46 C47 C56 -111.0(10) . . . . ?
O17 C35 C36 C37 -48.1(12) . . . . ?
O17 C35 C36 C51 128.6(10) . . . . ?
O21 C1 C2 C3 5.0(14) . . . . ?
O21 C1 C2 C79 -174.0(10) . . . . ?
O22 C1 C2 C3 -174.8(11) . . . . ?
O22 C1 C2 C79 6.2(16) . . . . ?
N2 C20 C21 C22 -178.6(10) . . . . ?
N2 C20 C25 C24 -179.2(11) . . . . ?
N2 C57 C58 N1 -0.9(16) . . . . ?
N3 C29 C30 C31 -177.8(10) . . . . ?
N4 C33 C34 N3 -0.9(9) . . . . ?
C82 C37 C38 C39 -58.8(12) . . . . ?
C82 C37 C38 C43 118.6(9) . . . . ?
C82 C49 C50 C51 -1.9(12) . . . . ?
N7 C60 C61 C62 176.9(10) . . . . ?
N7 C60 C65 C64 -174.7(11) . . . . ?
N7 C75 C76 N6 1.8(12) . . . . ?
N8 C69 C70 C71 -179.4(14) . . . . ?
N9 C73 C74 N8 2.4(15) . . . . ?
C81 C5 C6 C7 -2.3(15) . . . . ?
C81 C9 C10 C11 -61.7(10) . . . . ?
C81 C9 C10 C15 121.8(9) . . . . ?
C1 C2 C3 C4 179.3(8) . . . . ?
C1 C2 C79 C78 179.4(9) . . . . ?
C2 C3 C4 C5 -174.9(9) . . . . ?
C2 C3 C4 C77 3.1(13) . . . . ?
C3 C2 C79 C78 0.4(15) . . . . ?
C3 C4 C5 C81 -131.6(10) . . . . ?
C3 C4 C5 C6 49.3(12) . . . . ?
C3 C4 C77 C78 -3.2(14) . . . . ?
C3 C4 C77 C80 -173.1(8) . . . . ?
C4 C5 C6 C7 176.8(9) . . . . ?
C4 C77 C78 C79 2.0(16) . . . . ?
C4 C77 C80 O19 37.2(13) . . . . ?
C4 C77 C80 O20 -143.7(10) . . . . ?
C5 C81 C9 C8 -1.7(12) . . . . ?
C5 C81 C9 C10 -179.8(8) . . . . ?
C5 C4 C77 C78 174.8(9) . . . . ?
C5 C4 C77 C80 4.9(14) . . . . ?
C5 C6 C7 C8 -2.1(16) . . . . ?
C6 C7 C8 C9 4.6(15) . . . . ?
C6 C7 C8 C18 -169.2(9) . . . . ?
C7 C8 C9 C81 -2.7(13) . . . . ?
C7 C8 C9 C10 175.4(8) . . . . ?
C7 C8 C18 O5 131.4(10) . . . . ?
C7 C8 C18 O6 -46.0(12) . . . . ?
C8 C9 C10 C11 120.2(9) . . . . ?
C8 C9 C10 C15 -56.2(10) . . . . ?
C9 C81 C5 C4 -174.9(8) . . . . ?
C9 C81 C5 C6 4.2(13) . . . . ?
C9 C8 C18 O5 -42.5(12) . . . . ?
C9 C8 C18 O6 140.2(9) . . . . ?
C9 C10 C11 C12 -178.9(7) . . . . ?
C9 C10 C11 C17 -5.6(11) . . . . ?
C9 C10 C15 C14 176.8(7) . . . . ?
C10 C11 C12 C13 3.0(12) . . . . ?
C10 C11 C17 O3 114.6(9) . . . . ?
C10 C11 C17 O4 -65.2(10) . . . . ?
C11 C10 C15 C14 0.2(11) . . . . ?
C11 C12 C13 C14 -1.3(12) . . . . ?
C12 C11 C17 O3 -72.0(9) . . . . ?
C12 C11 C17 O4 108.2(10) . . . . ?
C12 C13 C14 C15 -0.8(12) . . . . ?
C12 C13 C14 C16 179.6(8) . . . . ?
C13 C14 C15 C10 1.4(11) . . . . ?
C13 C14 C16 Cd4 79(4) . . . 1_445 ?
C13 C14 C16 O1 1.6(12) . . . . ?
C13 C14 C16 O2 179.7(8) . . . . ?
C15 C10 C11 C12 -2.4(11) . . . . ?
C15 C10 C11 C17 170.9(7) . . . . ?
C15 C14 C16 Cd4 -100(4) . . . 1_445 ?
C15 C14 C16 O1 -178.0(7) . . . . ?
C15 C14 C16 O2 0.1(12) . . . . ?
C16 C14 C15 C10 -179.0(7) . . . . ?
C17 C11 C12 C13 -170.4(7) . . . . ?
C18 C8 C9 C81 170.9(8) . . . . ?
C18 C8 C9 C10 -11.0(12) . . . . ?
C19 N1 C58 C57 -0.6(14) . . . . ?
C19 N2 C20 C21 -4.3(17) . . . . ?
C19 N2 C20 C25 177.2(12) . . . . ?
C19 N2 C57 C58 2.0(15) . . . . ?
C20 N2 C19 N1 -178.7(9) . . . . ?
C20 N2 C57 C58 178.0(11) . . . . ?
C20 C21 C22 C23 -2.5(19) . . . . ?
C21 C20 C25 C24 2.2(19) . . . . ?
C21 C22 C23 C24 2.6(18) . . . . ?
C21 C22 C23 C26 -177.6(11) . . . . ?
C22 C23 C24 C25 -0.3(19) . . . . ?
C22 C23 C26 C27 -156.9(11) . . . . ?
C22 C23 C26 C31 27.0(17) . . . . ?
C23 C24 C25 C20 -2(2) . . . . ?
C23 C26 C27 C28 -178.8(9) . . . . ?
C23 C26 C31 C30 178.1(11) . . . . ?
C24 C23 C26 C27 22.8(17) . . . . ?
C24 C23 C26 C31 -153.3(12) . . . . ?
C25 C20 C21 C22 0.0(17) . . . . ?
C26 C23 C24 C25 179.9(12) . . . . ?
C26 C27 C28 C29 2.1(15) . . . . ?
C27 C26 C31 C30 1.8(18) . . . . ?
C27 C28 C29 N3 176.9(8) . . . . ?
C27 C28 C29 C30 -0.7(15) . . . . ?
C28 C29 C30 C31 -0.1(17) . . . . ?
C29 N3 C32 N4 -177.7(7) . . . . ?
C29 N3 C34 C33 178.8(8) . . . . ?
C29 C30 C31 C26 0(2) . . . . ?
C31 C26 C27 C28 -2.6(16) . . . . ?
C32 N3 C29 C28 -25.7(13) . . . . ?
C32 N3 C29 C30 151.9(9) . . . . ?
C32 N3 C34 C33 -0.2(9) . . . . ?
C32 N4 C33 C34 1.7(9) . . . . ?
C33 N4 C32 N3 -1.8(9) . . . . ?
C34 N3 C29 C28 155.5(8) . . . . ?
C34 N3 C29 C30 -27.0(13) . . . . ?
C34 N3 C32 N4 1.3(9) . . . . ?
C35 C36 C37 C82 174.4(7) . . . . ?
C35 C36 C37 C38 -8.1(12) . . . . ?
C35 C36 C51 C50 -170.8(9) . . . . ?
C36 C37 C38 C39 123.8(9) . . . . ?
C36 C37 C38 C43 -58.8(12) . . . . ?
C37 C82 C49 C48 -175.9(7) . . . . ?
C37 C82 C49 C50 5.3(12) . . . . ?
C37 C36 C51 C50 6.0(14) . . . . ?
C37 C38 C39 C40 177.2(9) . . . . ?
C37 C38 C39 C45 -7.0(14) . . . . ?
C37 C38 C43 C42 -179.1(9) . . . . ?
C38 C39 C40 C41 2.4(15) . . . . ?
C38 C39 C45 O11 123.7(10) . . . . ?
C38 C39 C45 O16 -57.1(12) . . . . ?
C39 C38 C43 C42 -1.6(14) . . . . ?
C39 C40 C41 C42 -2.7(16) . . . . ?
C40 C39 C45 O11 -60.4(12) . . . . ?
C40 C39 C45 O16 118.8(10) . . . . ?
C40 C41 C42 C43 0.9(15) . . . . ?
C40 C41 C42 C44 179.9(9) . . . . ?
C41 C42 C43 C38 1.3(15) . . . . ?
C41 C42 C44 Cd1 105(2) . . . 1_565 ?
C41 C42 C44 O9 14.2(15) . . . . ?
C41 C42 C44 O10 -169.1(10) . . . . ?
C43 C38 C39 C40 -0.2(14) . . . . ?
C43 C38 C39 C45 175.6(8) . . . . ?
C43 C42 C44 Cd1 -76(2) . . . 1_565 ?
C43 C42 C44 O9 -166.8(9) . . . . ?
C43 C42 C44 O10 9.9(15) . . . . ?
C44 C42 C43 C38 -177.7(9) . . . . ?
C45 C39 C40 C41 -173.5(9) . . . . ?
C46 C47 C48 C49 1.7(13) . . . . ?
C46 C47 C48 C52 -177.8(8) . . . . ?
C46 C47 C56 C55 174.1(8) . . . . ?
C47 C48 C49 C82 38.2(12) . . . . ?
C47 C48 C49 C50 -143.1(8) . . . . ?
C47 C48 C52 C53 2.4(12) . . . . ?
C48 C47 C56 C55 -3.0(14) . . . . ?
C48 C49 C50 C51 179.3(7) . . . . ?
C48 C52 C53 C54 179.9(8) . . . . ?
C48 C52 C53 C55 0.0(14) . . . . ?
C49 C82 C37 C36 -3.1(12) . . . . ?
C49 C82 C37 C38 179.5(7) . . . . ?
C49 C48 C52 C53 -177.1(9) . . . . ?
C49 C50 C51 C36 -3.9(14) . . . . ?
C51 C36 C37 C82 -2.5(12) . . . . ?
C51 C36 C37 C38 175.0(8) . . . . ?
C52 C48 C49 C82 -142.4(8) . . . . ?
C52 C48 C49 C50 36.4(11) . . . . ?
C52 C53 C54 O13 -169.3(9) . . . . ?
C52 C53 C54 O14 10.5(15) . . . . ?
C52 C53 C55 C56 -3.9(14) . . . . ?
C53 C55 C56 C47 5.5(15) . . . . ?
C54 C53 C55 C56 176.2(9) . . . . ?
C55 C53 C54 O13 10.5(14) . . . . ?
C55 C53 C54 O14 -169.7(11) . . . . ?
C56 C47 C48 C49 178.6(9) . . . . ?
C56 C47 C48 C52 -0.9(12) . . . . ?
C57 N2 C19 N1 -2.6(14) . . . . ?
C57 N2 C20 C21 -179.4(12) . . . . ?
C57 N2 C20 C25 2.0(18) . . . . ?
C58 N1 C19 N2 2.0(13) . . . . ?
C59 N6 C76 C75 -1.8(12) . . . . ?
C59 N7 C60 C61 -148.3(10) . . . . ?
C59 N7 C60 C65 31.5(16) . . . . ?
C59 N7 C75 C76 -1.1(12) . . . . ?
C60 N7 C59 N6 174.8(9) . . . . ?
C60 N7 C75 C76 -175.7(10) . . . . ?
C60 C61 C62 C63 -1.8(18) . . . . ?
C61 C60 C65 C64 5.1(19) . . . . ?
C61 C62 C63 C64 4.0(19) . . . . ?
C61 C62 C63 C66 -177.3(11) . . . . ?
C62 C63 C64 C65 -2(2) . . . . ?
C62 C63 C66 C67 -26(2) . . . . ?
C62 C63 C66 C71 150.4(14) . . . . ?
C63 C64 C65 C60 -3(2) . . . . ?
C63 C66 C67 C68 179.4(13) . . . . ?
C63 C66 C71 C70 -179.2(14) . . . . ?
C64 C63 C66 C67 152.2(14) . . . . ?
C64 C63 C66 C71 -31(2) . . . . ?
C65 C60 C61 C62 -2.9(17) . . . . ?
C66 C63 C64 C65 179.6(12) . . . . ?
C66 C67 C68 C69 -2(2) . . . . ?
C67 C66 C71 C70 -2(2) . . . . ?
C67 C68 C69 N8 179.6(12) . . . . ?
C67 C68 C69 C70 2(2) . . . . ?
C68 C69 C70 C71 -2(2) . . . . ?
C69 N8 C72 N9 -177.3(11) . . . . ?
C69 N8 C74 C73 177.2(12) . . . . ?
C69 C70 C71 C66 2(3) . . . . ?
C71 C66 C67 C68 2(2) . . . . ?
C72 N8 C69 C68 10(2) . . . . ?
C72 N8 C69 C70 -172.5(14) . . . . ?
C72 N8 C74 C73 -3.3(14) . . . . ?
C72 N9 C73 C74 -0.5(14) . . . . ?
C73 N9 C72 N8 -1.7(13) . . . . ?
C74 N8 C69 C68 -170.8(13) . . . . ?
C74 N8 C69 C70 7(2) . . . . ?
C74 N8 C72 N9 3.1(14) . . . . ?
C75 N7 C59 N6 0.0(12) . . . . ?
C75 N7 C60 C61 25.3(16) . . . . ?
C75 N7 C60 C65 -154.8(12) . . . . ?
C76 N6 C59 N7 1.0(11) . . . . ?
C77 C4 C5 C81 50.4(13) . . . . ?
C77 C4 C5 C6 -128.7(10) . . . . ?
C77 C78 C79 C2 -0.5(16) . . . . ?
C78 C77 C80 O19 -133.2(10) . . . . ?
C78 C77 C80 O20 45.8(14) . . . . ?
C79 C2 C3 C4 -1.8(15) . . . . ?
C80 C77 C78 C79 172.6(9) . . . . ?
loop_
_platon_squeeze_void_nr
_platon_squeeze_void_average_x
_platon_squeeze_void_average_y
_platon_squeeze_void_average_z
_platon_squeeze_void_volume
_platon_squeeze_void_count_electrons
_platon_squeeze_void_content
1 0.000 0.500 0.500 662 147 ' '
2 0.500 0.500 0.000 589 132 ' '
loop_
_twin_individual_id
_twin_individual_mass_fraction_refined
1 0.7801(18)
2 0.2199(18)
