#------------------------------------------------------------------------------
#$Date: 2020-09-11 05:15:54 +0300 (Fri, 11 Sep 2020) $
#$Revision: 256336 $
#$URL: file:///home/coder/svn-repositories/cod/cif/7/24/12/7241210.cif $
#------------------------------------------------------------------------------
#
# This file is available in the Crystallography Open Database (COD),
# http://www.crystallography.net/
#
# All data on this site have been placed in the public domain by the
# contributors.
#
data_7241210
loop_
_publ_author_name
'Wang, Xiuli'
'Liu, Yu'
'Lin, Hongyan'
'Xu, Na'
'Liu, Guocheng'
'Wang, Xiang'
'Chang, Zhi-Han'
'Li, Jianrong'
_publ_section_title
;
 A novel cadmium metal-organic framework-based multiresponsive fluorescent
 sensor demonstrating the outstanding sensitivities and selectivities for
 detecting NB, Fe3+ ions and Cr2O72&#x2212; anions
;
_journal_name_full               CrystEngComm
_journal_paper_doi               10.1039/D0CE01139H
_journal_year                    2020
_chemical_formula_moiety         'C38 H31 Cd1.5 N4 O8, C4 H9 N O'
_chemical_formula_sum            'C42 H40 Cd1.5 N5 O9'
_chemical_formula_weight         927.39
_space_group_crystal_system      triclinic
_space_group_IT_number           2
_space_group_name_Hall           '-P 1'
_space_group_name_H-M_alt        'P -1'
_atom_sites_solution_hydrogens   geom
_atom_sites_solution_primary     dual
_audit_creation_date             2020-01-08
_audit_creation_method
;
Olex2 1.2
(compiled 2018.05.29 svn.r3508 for OlexSys, GUI svn.r5506)
;
_audit_update_record
;
2020-03-25 deposited with the CCDC.	2020-09-09 downloaded from the CCDC.
;
_cell_angle_alpha                101.399(2)
_cell_angle_beta                 99.384(2)
_cell_angle_gamma                116.889(2)
_cell_formula_units_Z            2
_cell_length_a                   13.6803(13)
_cell_length_b                   13.8392(13)
_cell_length_c                   14.6811(15)
_cell_measurement_reflns_used    4921
_cell_measurement_temperature    296(2)
_cell_measurement_theta_max      50.000
_cell_measurement_theta_min      1.953
_cell_volume                     2326.6(4)
_computing_cell_refinement       'SAINT+ Ver. 2016.5-0 (Bruker-AXS, 2016)'
_computing_data_collection       'APEX3 Ver. 2016.5-0 (Bruker-AXS, 2016)'
_computing_data_reduction        'SAINT+ Ver. 2016.5-0 (Bruker-AXS, 2016)'
_computing_molecular_graphics    'OLEX2 (Dolomanov et al., 2009)'
_computing_publication_material  'OLEX2 (Dolomanov et al., 2009)'
_computing_structure_refinement  'XL (Sheldrick, 2015b)'
_computing_structure_solution    'XT (Sheldrick, 2015a)'
_diffrn_ambient_temperature      296.15
_diffrn_detector                 'charge-coupled device (CCD) area detector'
_diffrn_detector_area_resol_mean 7.9
_diffrn_detector_type            'Bruker APEX II'
_diffrn_measured_fraction_theta_full 1.000
_diffrn_measured_fraction_theta_max 0.991
_diffrn_measurement_device       'three-circle diffractometer'
_diffrn_measurement_device_type  'Bruker APEX II Quazar'
_diffrn_measurement_method       '0.5\% \w and 0.5\% \f scans'
_diffrn_radiation_collimation    'focusing mirrors'
_diffrn_radiation_detector       'Bruker APEX II'
_diffrn_radiation_monochromator  'mirror optics'
_diffrn_radiation_probe          x-ray
_diffrn_radiation_type           MoK\a
_diffrn_radiation_wavelength     0.71073
_diffrn_reflns_av_R_equivalents  0.0212
_diffrn_reflns_av_unetI/netI     0.0513
_diffrn_reflns_Laue_measured_fraction_full 1.000
_diffrn_reflns_Laue_measured_fraction_max 0.991
_diffrn_reflns_limit_h_max       15
_diffrn_reflns_limit_h_min       -18
_diffrn_reflns_limit_k_max       17
_diffrn_reflns_limit_k_min       -18
_diffrn_reflns_limit_l_max       19
_diffrn_reflns_limit_l_min       -13
_diffrn_reflns_number            17756
_diffrn_reflns_point_group_measured_fraction_full 1.000
_diffrn_reflns_point_group_measured_fraction_max 0.991
_diffrn_reflns_theta_full        25.242
_diffrn_reflns_theta_max         28.645
_diffrn_reflns_theta_min         1.478
_diffrn_source                   'microfocus sealed X-ray tube'
_diffrn_source_type              'Incoatec I\ms'
_exptl_absorpt_coefficient_mu    0.745
_exptl_absorpt_correction_T_max  0.86
_exptl_absorpt_correction_T_min  0.84
_exptl_absorpt_correction_type   multi-scan
_exptl_absorpt_process_details
;
SADABS-2016/2 (Krause et al., 2015) was used for absorption correction.
;
_exptl_crystal_colour            colorless
_exptl_crystal_density_diffrn    1.324
_exptl_crystal_density_method    'not measured'
_exptl_crystal_description       block
_exptl_crystal_F_000             942
_exptl_crystal_size_max          0.24
_exptl_crystal_size_mid          0.22
_exptl_crystal_size_min          0.2
_refine_diff_density_max         0.912
_refine_diff_density_min         -0.776
_refine_diff_density_rms         0.080
_refine_ls_extinction_method     none
_refine_ls_goodness_of_fit_ref   1.047
_refine_ls_hydrogen_treatment    constr
_refine_ls_matrix_type           full
_refine_ls_number_parameters     526
_refine_ls_number_reflns         11852
_refine_ls_number_restraints     252
_refine_ls_restrained_S_all      1.094
_refine_ls_R_factor_all          0.0638
_refine_ls_R_factor_gt           0.0402
_refine_ls_shift/su_max          0.003
_refine_ls_shift/su_mean         0.000
_refine_ls_structure_factor_coef Fsqd
_refine_ls_weighting_details
'w=1/[\s^2^(Fo^2^)+(0.0441P)^2^+0.3737P] where P=(Fo^2^+2Fc^2^)/3'
_refine_ls_weighting_scheme      calc
_refine_ls_wR_factor_gt          0.0905
_refine_ls_wR_factor_ref         0.1002
_reflns_Friedel_coverage         0.000
_reflns_number_gt                8500
_reflns_number_total             11852
_reflns_threshold_expression     'I > 2\s(I)'
_cod_data_source_file            d0ce01139h2.cif
_cod_data_source_block           10
_cod_original_formula_sum        'C42 H40 Cd1.50 N5 O9'
_cod_database_code               7241210
_shelx_shelxl_version_number     2016/4
_shelx_space_group_comment
;
The symmetry employed for this shelxl refinement is uniquely defined
by the following loop, which should always be used as a source of
symmetry information in preference to the above space-group names.
They are only intended as comments.
;
_shelx_estimated_absorpt_t_max   0.54
_shelx_estimated_absorpt_t_min   0.21
_olex2_refinement_description
;
1. Fixed Uiso
 At 1.2 times of:
  All C(H) groups, All N(H) groups
 At 1.5 times of:
  All C(H,H,H) groups
2. Uiso/Uaniso restraints and constraints
Uanis(C1) \\sim Ueq, Uanis(C2) \\sim Ueq, Uanis(C3) \\sim Ueq, Uanis(C4) \\sim
Ueq, Uanis(C5) \\sim Ueq, Uanis(C6) \\sim Ueq, Uanis(C7) \\sim Ueq, Uanis(C8)
\\sim Ueq, Uanis(C9) \\sim Ueq, Uanis(C10) \\sim Ueq, Uanis(C11) \\sim Ueq,
Uanis(C12) \\sim Ueq, Uanis(C13) \\sim Ueq, Uanis(C14) \\sim Ueq, Uanis(C15)
\\sim Ueq, Uanis(C16) \\sim Ueq, Uanis(C17) \\sim Ueq, Uanis(C18) \\sim Ueq,
Uanis(C19) \\sim Ueq, Uanis(C20) \\sim Ueq, Uanis(C21) \\sim Ueq, Uanis(C22)
\\sim Ueq, Uanis(C23) \\sim Ueq, Uanis(C24) \\sim Ueq, Uanis(C25) \\sim Ueq,
Uanis(C26) \\sim Ueq, Uanis(C27) \\sim Ueq, Uanis(C28) \\sim Ueq, Uanis(C29)
\\sim Ueq, Uanis(C30) \\sim Ueq, Uanis(C31) \\sim Ueq, Uanis(C32) \\sim Ueq,
Uanis(C33) \\sim Ueq, Uanis(C34) \\sim Ueq, Uanis(C35) \\sim Ueq, Uanis(C36)
\\sim Ueq, Uanis(C37) \\sim Ueq, Uanis(C38) \\sim Ueq, Uanis(C39) \\sim Ueq,
Uanis(C40) \\sim Ueq, Uanis(C41) \\sim Ueq, Uanis(C42) \\sim Ueq: with sigma of
0.01 and sigma for terminal atoms of 0.02
3.a Aromatic/amide H refined with riding coordinates:
 N4(H4), C4(H4A), C5(H5), C6(H6), C10(H10), C13(H13), C15(H15), C16(H16),
 C17(H17), C18(H18), C19(H19), C20(H20), C21(H21), C22(H22), C28(H28), C29(H29),
  C37(H37), C38(H38), C39(H39), C40(H40), C41(H41), C42(H42)
3.b Idealised Me refined as rotating group:
 C27(H27A,H27B,H27C), C32(H32A,H32B,H32C), C33(H33A,H33B,H33C), C34(H34A,H34B,
 H34C), C35(H35A,H35B,H35C), C36(H36A,H36B,H36C)
;
_shelx_res_file
;
TITL 1_a.res in P-1
 1.res created by SHELXL-2016/4 at 19:46:34 on 08-Jan-2020
REM Old TITL 1 in P-1
REM SHELXT solution in P-1
REM R1 0.119, Rweak 0.004, Alpha 0.044, Orientation as input
REM Formula found by SHELXT: C90 N8 O18 Cd3
CELL 0.71073 13.6803 13.8392 14.6811 101.399 99.384 116.889
ZERR 2 0.0013 0.0013 0.0015 0.002 0.002 0.002
LATT 1
SFAC C H Cd N O
UNIT 84 80 3 10 18
EQIV $1 -1+X,-1+Y,+Z
ISOR 0.01 0.02 C1 C2 C3 C4 C5 C6 C7 C8 C9 C10 C11 C12 C13 C14 C15 C16 C17 =
 C18 C19 C20 C21 C22 C23 C24 C25 C26 C27 C28 C29 C30 C31 C32 C33 C34 C35 C36 =
 C37 C38 C39 C40 C41 C42

L.S. 5 0 55
PLAN  5
TEMP 23
FREE Cd2 C14_$1
BOND $H
list 4
ABIN
fmap 2
acta
REM <olex2.extras>
REM <HklSrc "%.\\1.hkl">
REM </olex2.extras>

WGHT    0.044100    0.373700
FVAR       0.35029
CD1   3    0.000000    1.500000    1.000000    10.50000    0.02788    0.02621 =
         0.02544    0.00983    0.01250    0.01733
CD2   3   -0.031746    0.434194    0.740754    11.00000    0.03305    0.03692 =
         0.03006    0.01138    0.01360    0.02323
O1    5    0.084221    1.399549    0.964257    11.00000    0.05254    0.04725 =
         0.04784    0.02014    0.02543    0.03936
O5    5    0.867324    1.412128    0.849286    11.00000    0.02562    0.03969 =
         0.03397    0.01018    0.00777    0.01171
O2    5    0.105277    1.406456    0.817789    11.00000    0.05327    0.06784 =
         0.04121    0.02235    0.01850    0.04874
O3    5    0.117763    0.647292    0.949145    11.00000    0.04642    0.03792 =
         0.04963    0.02492    0.01701    0.01464
O4    5    0.066376    0.620697    0.790012    11.00000    0.05873    0.03627 =
         0.04699    0.01490    0.01104    0.02036
O7    5   -0.176152    0.454501    0.644992    11.00000    0.06466    0.07452 =
         0.04347    0.01293    0.00964    0.05469
O6    5    0.790966    1.252440    0.730413    11.00000    0.04381    0.05165 =
         0.05438    0.00710    0.02642    0.02156
O8    5    0.293671    0.362781    0.635887    11.00000    0.06693    0.07401 =
         0.05081    0.00749    0.01924    0.04841
C1    1    0.196890    1.330571    0.905507    11.00000    0.03214    0.03287 =
         0.03174    0.00847    0.00968    0.02170
N2    4    0.378259    1.153998    0.918842    11.00000    0.03044    0.03468 =
         0.06931    0.02679    0.02526    0.02220
C2    1    0.123609    1.384261    0.895528    11.00000    0.03114    0.03024 =
         0.03638    0.00945    0.01119    0.01865
N4    4    0.145228    0.222153    0.509074    11.00000    0.06780    0.08650 =
         0.04643   -0.00626    0.00800    0.06141
AFIX  43
H4    2    0.121657    0.158834    0.465258    11.00000   -1.20000
AFIX   0
N1    4   -0.010483    0.360542    0.597964    11.00000    0.06583    0.08358 =
         0.03114    0.01080    0.01410    0.06067
C3    1    0.480072    1.189989    0.891155    11.00000    0.02633    0.03386 =
         0.04562    0.01808    0.01341    0.01841
C4    1    0.258599    1.326496    0.840661    11.00000    0.04558    0.05721 =
         0.04411    0.02969    0.02268    0.03762
AFIX  43
H4A   2    0.258668    1.362055    0.793118    11.00000   -1.20000
AFIX   0
C5    1    0.597075    1.153603    0.800523    11.00000    0.03520    0.03437 =
         0.04457    0.00666    0.01535    0.01842
AFIX  43
H5    2    0.607542    1.102595    0.757339    11.00000   -1.20000
AFIX   0
C6    1    0.320206    1.270562    0.845154    11.00000    0.04360    0.05335 =
         0.05264    0.02751    0.02921    0.03547
AFIX  43
H6    2    0.361804    1.269249    0.801206    11.00000   -1.20000
AFIX   0
C7    1    0.320124    1.216766    0.914576    11.00000    0.02858    0.03307 =
         0.04881    0.01736    0.01638    0.01970
C8    1    0.681374    1.267111    0.836572    11.00000    0.02595    0.03664 =
         0.03796    0.01203    0.01107    0.01743
C9    1    0.185544    0.806448    0.893129    11.00000    0.03142    0.03256 =
         0.03715    0.01756    0.01528    0.01740
C10   1    0.063413    0.323406    0.595110    11.00000    0.05113    0.06404 =
         0.03056    0.01106    0.01382    0.04104
AFIX  43
H10   2    0.113009    0.336957    0.653637    11.00000   -1.20000
AFIX   0
C11   1    0.118087    0.681241    0.877655    11.00000    0.02804    0.03353 =
         0.04300    0.01700    0.01358    0.01531
C12   1    0.311161    1.036935    0.911156    11.00000    0.02916    0.02984 =
         0.05157    0.02296    0.01949    0.01693
C13   1    0.564432    1.303772    0.927245    11.00000    0.03305    0.03635 =
         0.04960    0.00754    0.01632    0.02009
AFIX  43
H13   2    0.553715    1.355079    0.969817    11.00000   -1.20000
AFIX   0
C14   1    0.785670    1.310042    0.802899    11.00000    0.02697    0.04415 =
         0.03755    0.01511    0.01123    0.02033

O9    5    0.061599    0.073176    0.311921    11.00000    0.10491    0.10279 =
         0.08262   -0.01452    0.01624    0.06935
C15   1    0.199340    1.278529    0.976383    11.00000    0.05112    0.05951 =
         0.04451    0.02618    0.02948    0.04047
AFIX  43
H15   2    0.159578    1.281568    1.021562    11.00000   -1.20000
AFIX   0
C16   1    0.352102    0.989921    0.971096    11.00000    0.03250    0.03885 =
         0.05558    0.01884    0.00486    0.01720
AFIX  43
H16   2    0.423125    1.035506    1.017409    11.00000   -1.20000
AFIX   0
C17   1    0.664042    1.341390    0.900490    11.00000    0.02616    0.03286 =
         0.04276    0.00659    0.00985    0.01313
AFIX  43
H17   2    0.720371    1.417831    0.925814    11.00000   -1.20000
AFIX   0
C18   1    0.288681    0.875717    0.963077    11.00000    0.04104    0.03926 =
         0.04735    0.02277    0.00783    0.02176
AFIX  43
H18   2    0.316213    0.845836    1.005390    11.00000   -1.20000
AFIX   0
C19   1    0.497154    1.114937    0.827984    11.00000    0.03140    0.02725 =
         0.05118    0.00943    0.01460    0.01237
AFIX  43
H19   2    0.441487    1.038210    0.803766    11.00000   -1.20000
AFIX   0
C20   1    0.144064    0.853486    0.834228    11.00000    0.04074    0.03982 =
         0.05213    0.01814   -0.00084    0.01654
AFIX  43
H20   2    0.073543    0.807407    0.787322    11.00000   -1.20000
AFIX   0
C21   1    0.260322    1.222139    0.980572    11.00000    0.05355    0.06293 =
         0.05278    0.03892    0.03219    0.04263
AFIX  43
H21   2    0.261114    1.187291    1.028530    11.00000   -1.20000
AFIX   0
N3    4   -0.292870    0.514505    0.590043    11.00000    0.07308    0.08583 =
         0.07615    0.03346    0.01892    0.05965
C22   1    0.205830    0.968986    0.843578    11.00000    0.04338    0.04029 =
         0.05853    0.02754    0.00662    0.02080
AFIX  43
H22   2    0.175825    0.999904    0.804208    11.00000   -1.20000
AFIX   0
C23   1    0.071361    0.266317    0.511395    11.00000    0.06805    0.09061 =
         0.03370    0.00752    0.01067    0.06233
C24   1   -0.222401    0.512906    0.661296    11.00000    0.04937    0.06270 =
         0.05635    0.02529    0.01524    0.03477
C25   1    0.253123    0.273584    0.572415    11.00000    0.06183    0.07347 =
         0.04533    0.01461    0.02071    0.04838

N5    4    0.097060   -0.010880    0.190462    11.00000    0.07062    0.10811 =
         0.08935   -0.00472    0.03054    0.03210
C26   1    0.317953    0.212244    0.559659    11.00000    0.06517    0.07911 =
         0.05655   -0.00051    0.00947    0.05320
C27   1   -0.201084    0.582251    0.761686    11.00000    0.09638    0.08870 =
         0.06089    0.01410    0.02060    0.06982
AFIX 137
H27A  2   -0.151852    0.570354    0.807047    11.00000   -1.50000
H27B  2   -0.272518    0.559599    0.776645    11.00000   -1.50000
H27C  2   -0.165167    0.661420    0.765963    11.00000   -1.50000
AFIX   0
C28   1    0.431703    0.267669    0.601996    11.00000    0.05639    0.07192 =
         0.06621    0.01564    0.01892    0.04220
AFIX  43
H28   2    0.468073    0.343621    0.639564    11.00000   -1.20000
AFIX   0
C29   1    0.495735    0.215188    0.591295    11.00000    0.05876    0.08516 =
         0.07211    0.01953    0.01901    0.04841
AFIX  43
H29   2    0.574290    0.256717    0.621023    11.00000   -1.20000
AFIX   0

C30   1    0.071419   -0.007037    0.266081    11.00000    0.06178    0.10175 =
         0.08414   -0.00817    0.00389    0.02979
C31   1    0.446961    0.104758    0.538587    11.00000    0.07468    0.10992 =
         0.07854   -0.01035   -0.00383    0.07300
C32   1    0.108493    0.089249    0.151591    11.00000    0.13983    0.10310 =
         0.12466    0.06045    0.05345    0.04712
AFIX 137
H32A  2    0.070122    0.123911    0.181773    11.00000   -1.50000
H32B  2    0.074418    0.060898    0.082562    11.00000   -1.50000
H32C  2    0.188001    0.144781    0.166430    11.00000   -1.50000
AFIX   0
C33   1    0.120528   -0.092201    0.134362    11.00000    0.12002    0.11751 =
         0.12812   -0.00447    0.05597    0.07455
AFIX 137
H33A  2    0.094175   -0.158475    0.155758    11.00000   -1.50000
H33B  2    0.201444   -0.058325    0.143218    11.00000   -1.50000
H33C  2    0.081533   -0.113742    0.066897    11.00000   -1.50000
AFIX   0

C34   1   -0.348799    0.582657    0.602090    11.00000    0.12201    0.13898 =
         0.11124    0.05526    0.03346    0.11116
AFIX 137
H34A  2   -0.294226    0.657943    0.644800    11.00000   -1.50000
H34B  2   -0.410416    0.547685    0.629302    11.00000   -1.50000
H34C  2   -0.378484    0.587096    0.540080    11.00000   -1.50000
AFIX   0
C35   1   -0.317413    0.444259    0.491309    11.00000    0.11167    0.12577 =
         0.05469    0.02361    0.00665    0.07682
AFIX 137
H35A  2   -0.248441    0.470558    0.471927    11.00000   -1.50000
H35B  2   -0.373589    0.449878    0.447586    11.00000   -1.50000
H35C  2   -0.346285    0.366329    0.489742    11.00000   -1.50000
AFIX   0

C36   1    0.052295   -0.109647    0.301483    11.00000    0.16083    0.06481 =
         0.09795    0.02607    0.01075    0.03655
AFIX 137
H36A  2    0.034222   -0.100164    0.361962    11.00000   -1.50000
H36B  2    0.120604   -0.114942    0.310507    11.00000   -1.50000
H36C  2   -0.009906   -0.178025    0.254124    11.00000   -1.50000
AFIX   0

C37   1    0.005209    0.253218    0.426308    11.00000    0.14895    0.21320 =
         0.05805   -0.00626    0.01004    0.15361
AFIX  43
H37   2    0.005620    0.212018    0.368209    11.00000   -1.20000
AFIX   0
C38   1    0.517323    0.050779    0.526876    11.00000    0.09191    0.12228 =
         0.08340   -0.00851   -0.00133    0.08709
AFIX  43
H38   2    0.594432    0.094317    0.561740    11.00000   -1.20000
AFIX   0
C39   1    0.263988    0.097212    0.513197    11.00000    0.09503    0.12746 =
         0.15996   -0.02742   -0.01469    0.08760
AFIX  43
H39   2    0.184643    0.055834    0.488529    11.00000   -1.20000
AFIX   0
C40   1    0.327527    0.041240    0.502509    11.00000    0.10698    0.12755 =
         0.17356   -0.04205   -0.01714    0.09310
AFIX  43
H40   2    0.290587   -0.036834    0.471898    11.00000   -1.20000
AFIX   0
C41   1   -0.064009    0.302345    0.426515    11.00000    0.18031    0.25489 =
         0.06381   -0.00439    0.00370    0.18909
AFIX  43
H41   2   -0.103234    0.302742    0.368678    11.00000   -1.20000
AFIX   0
C42   1   -0.073185    0.349914    0.513240    11.00000    0.13415    0.18619 =
         0.06535    0.00048    0.00716    0.14150
AFIX  43
H42   2   -0.125174    0.375825    0.513059    11.00000   -1.20000
AFIX   0
HKLF 4




REM  1_a.res in P-1
REM R1 =  0.0402 for    8500 Fo > 4sig(Fo)  and  0.0638 for all   11852 data
REM    526 parameters refined using    252 restraints

END

WGHT      0.0490      0.2691

REM Highest difference peak  0.912,  deepest hole -0.776,  1-sigma level  0.080
Q1    1   0.0974  0.0611  0.2343  11.00000  0.05    0.91
Q2    1  -0.1371  0.2009  0.4413  11.00000  0.05    0.85
Q3    1  -0.0818  0.3669  0.7023  11.00000  0.05    0.76
Q4    1   0.3814  0.1072  0.4467  11.00000  0.05    0.71
Q5    1   0.3167  0.1633  0.4588  11.00000  0.05    0.70
;
_shelx_res_checksum              87278
_shelx_fab_file
;
    2    0    0     36.71      0.00
    3    0    0     -8.62      0.00
    4    0    0     -0.04      0.00
    5    0    0     -0.62      0.00
    6    0    0      0.74      0.00
    7    0    0     -0.58      0.00
    8    0    0      0.47      0.00
    9    0    0     -0.17      0.00
   10    0    0      0.95      0.00
   11    0    0     -1.15      0.00
   12    0    0      0.67      0.00
   13    0    0      0.09      0.00
   14    0    0     -0.39      0.00
   15    0    0      0.29      0.00
  -16    1    0      0.11      0.00
  -15    1    0     -0.47      0.00
  -14    1    0      0.17      0.00
  -13    1    0      0.48      0.00
  -12    1    0     -0.82      0.00
  -11    1    0      2.61      0.00
  -10    1    0     -3.22      0.00
   -9    1    0      1.11      0.00
   -8    1    0      2.19      0.00
   -7    1    0     -3.98      0.00
   -6    1    0      1.87      0.00
   -5    1    0      2.72      0.00
   -4    1    0     -7.25      0.00
   -3    1    0      4.89      0.00
   -2    1    0      1.08      0.00
   -1    1    0      2.94      0.00
    0    1    0    -15.91      0.00
    1    1    0     21.68      0.00
    2    1    0    -12.20      0.00
    3    1    0      2.28      0.00
    4    1    0     -2.34      0.00
    5    1    0      6.04      0.00
    6    1    0     -7.10      0.00
    7    1    0      4.60      0.00
    8    1    0     -1.85      0.00
    9    1    0     -0.66      0.00
   10    1    0      1.64      0.00
   11    1    0     -0.60      0.00
   12    1    0      0.06      0.00
   13    1    0      0.44      0.00
   14    1    0     -0.39      0.00
   15    1    0      0.02      0.00
  -16    2    0      0.88      0.00
  -15    2    0     -0.28      0.00
  -14    2    0      0.13      0.00
  -13    2    0     -0.54      0.00
  -12    2    0      0.97      0.00
  -11    2    0     -1.09      0.00
  -10    2    0      1.73      0.00
   -9    2    0     -1.56      0.00
   -8    2    0      0.08      0.00
   -7    2    0      1.60      0.00
   -6    2    0      1.40      0.00
   -5    2    0     -9.10      0.00
   -4    2    0     10.03      0.00
   -3    2    0      2.26      0.00
   -2    2    0    -27.76      0.00
   -1    2    0     46.19      0.00
    0    2    0    -37.57      0.00
    1    2    0     19.20      0.00
    2    2    0     -5.68      0.00
    3    2    0     -1.87      0.00
    4    2    0      3.67      0.00
    5    2    0     -4.85      0.00
    6    2    0      3.94      0.00
    7    2    0     -1.21      0.00
    8    2    0     -0.36      0.00
    9    2    0      0.68      0.00
   10    2    0     -0.45      0.00
   11    2    0      0.47      0.00
   12    2    0      0.25      0.00
   13    2    0     -0.56      0.00
   14    2    0     -0.14      0.00
  -17    3    0      0.53      0.00
  -16    3    0     -0.96      0.00
  -15    3    0      0.51      0.00
  -14    3    0      0.75      0.00
  -13    3    0     -1.19      0.00
  -12    3    0      1.94      0.00
  -11    3    0     -1.92      0.00
  -10    3    0      0.94      0.00
   -9    3    0      0.71      0.00
   -8    3    0     -2.69      0.00
   -7    3    0      2.47      0.00
   -6    3    0     -1.03      0.00
   -5    3    0      0.40      0.00
   -4    3    0     -2.17      0.00
   -3    3    0      2.66      0.00
   -2    3    0      1.73      0.00
   -1    3    0     -5.85      0.00
    0    3    0      4.23      0.00
    1    3    0      1.83      0.00
    2    3    0     -4.23      0.00
    3    3    0      1.15      0.00
    4    3    0      2.70      0.00
    5    3    0     -4.02      0.00
    6    3    0      2.36      0.00
    7    3    0     -0.95      0.00
    8    3    0     -0.15      0.00
    9    3    0      0.96      0.00
   10    3    0     -1.24      0.00
   11    3    0      1.32      0.00
   12    3    0     -0.51      0.00
   13    3    0      0.36      0.00
   14    3    0     -0.44      0.00
  -17    4    0     -0.86      0.00
  -16    4    0      1.51      0.00
  -15    4    0     -1.25      0.00
  -14    4    0      0.10      0.00
  -13    4    0      1.27      0.00
  -12    4    0     -2.27      0.00
  -11    4    0      2.93      0.00
  -10    4    0     -2.03      0.00
   -9    4    0      0.02      0.00
   -8    4    0      1.56      0.00
   -7    4    0      0.29      0.00
   -6    4    0     -5.81      0.00
   -5    4    0      9.19      0.00
   -4    4    0     -8.51      0.00
   -3    4    0      1.80      0.00
   -2    4    0      5.01      0.00
   -1    4    0     -4.29      0.00
    0    4    0      3.37      0.00
    1    4    0     -3.16      0.00
    2    4    0      1.20      0.00
    3    4    0      1.12      0.00
    4    4    0     -3.63      0.00
    5    4    0      3.44      0.00
    6    4    0     -1.66      0.00
    7    4    0     -0.09      0.00
    8    4    0      1.13      0.00
    9    4    0     -0.60      0.00
   10    4    0     -0.28      0.00
   11    4    0      0.99      0.00
   12    4    0     -0.77      0.00
   13    4    0      0.03      0.00
  -17    5    0      0.11      0.00
  -16    5    0     -0.31      0.00
  -15    5    0      0.78      0.00
  -14    5    0     -0.32      0.00
  -13    5    0      0.43      0.00
  -12    5    0     -0.61      0.00
  -11    5    0      0.52      0.00
  -10    5    0     -0.19      0.00
   -9    5    0     -1.39      0.00
   -8    5    0      2.67      0.00
   -7    5    0     -4.54      0.00
   -6    5    0      6.82      0.00
   -5    5    0     -6.42      0.00
   -4    5    0      2.30      0.00
   -3    5    0      2.81      0.00
   -2    5    0     -5.24      0.00
   -1    5    0      3.68      0.00
    0    5    0      0.83      0.00
    1    5    0     -3.87      0.00
    2    5    0      3.08      0.00
    3    5    0     -0.58      0.00
    4    5    0     -0.31      0.00
    5    5    0     -0.10      0.00
    6    5    0      0.05      0.00
    7    5    0     -0.84      0.00
    8    5    0      0.76      0.00
    9    5    0      0.11      0.00
   10    5    0      0.19      0.00
   11    5    0     -0.57      0.00
   12    5    0      0.52      0.00
  -17    6    0     -0.28      0.00
  -16    6    0      0.08      0.00
  -15    6    0      0.19      0.00
  -14    6    0     -0.19      0.00
  -13    6    0     -0.72      0.00
  -12    6    0      1.51      0.00
  -11    6    0     -0.41      0.00
  -10    6    0     -1.17      0.00
   -9    6    0      1.97      0.00
   -8    6    0     -1.99      0.00
   -7    6    0      0.76      0.00
   -6    6    0      0.04      0.00
   -5    6    0     -0.60      0.00
   -4    6    0      1.02      0.00
   -3    6    0     -1.78      0.00
   -2    6    0      2.54      0.00
   -1    6    0     -0.34      0.00
    0    6    0     -2.08      0.00
    1    6    0      2.78      0.00
    2    6    0     -2.10      0.00
    3    6    0      0.22      0.00
    4    6    0      0.90      0.00
    5    6    0     -0.95      0.00
    6    6    0     -0.37      0.00
    7    6    0      1.69      0.00
    8    6    0     -1.67      0.00
    9    6    0      0.52      0.00
   10    6    0      1.23      0.00
   11    6    0     -1.47      0.00
  -18    7    0      0.16      0.00
  -17    7    0      0.29      0.00
  -16    7    0     -0.33      0.00
  -15    7    0      0.42      0.00
  -14    7    0      0.55      0.00
  -13    7    0     -1.07      0.00
  -12    7    0      0.65      0.00
  -11    7    0     -1.25      0.00
  -10    7    0      1.35      0.00
   -9    7    0     -0.64      0.00
   -8    7    0     -1.21      0.00
   -7    7    0      3.43      0.00
   -6    7    0     -2.87      0.00
   -5    7    0     -0.60      0.00
   -4    7    0      5.29      0.00
   -3    7    0     -8.53      0.00
   -2    7    0      7.70      0.00
   -1    7    0     -4.41      0.00
    0    7    0      1.89      0.00
    1    7    0     -0.83      0.00
    2    7    0      0.73      0.00
    3    7    0     -0.33      0.00
    4    7    0      0.07      0.00
    5    7    0      0.27      0.00
    6    7    0     -1.12      0.00
    7    7    0      0.02      0.00
    8    7    0      0.79      0.00
    9    7    0     -0.12      0.00
   10    7    0      0.28      0.00
   11    7    0     -0.44      0.00
  -18    8    0     -1.99      0.00
  -17    8    0      2.44      0.00
  -16    8    0     -1.36      0.00
  -15    8    0     -0.03      0.00
  -14    8    0     -0.19      0.00
  -13    8    0      1.06      0.00
  -12    8    0     -0.69      0.00
  -11    8    0      0.32      0.00
  -10    8    0     -1.07      0.00
   -9    8    0      1.16      0.00
   -8    8    0     -0.56      0.00
   -7    8    0     -0.33      0.00
   -6    8    0      1.17      0.00
   -5    8    0     -0.70      0.00
   -4    8    0     -1.42      0.00
   -3    8    0      3.30      0.00
   -2    8    0     -2.78      0.00
   -1    8    0      0.92      0.00
    0    8    0      0.24      0.00
    1    8    0      0.08      0.00
    2    8    0     -0.74      0.00
    3    8    0      1.33      0.00
    4    8    0     -1.84      0.00
    5    8    0      0.87      0.00
    6    8    0      0.63      0.00
    7    8    0     -1.30      0.00
    8    8    0      0.82      0.00
    9    8    0     -0.24      0.00
   10    8    0      0.59      0.00
  -18    9    0     -0.19      0.00
  -17    9    0      0.29      0.00
  -16    9    0      0.04      0.00
  -15    9    0      0.30      0.00
  -14    9    0     -0.44      0.00
  -13    9    0     -0.05      0.00
  -12    9    0     -0.83      0.00
  -11    9    0      0.98      0.00
  -10    9    0     -0.22      0.00
   -9    9    0     -0.82      0.00
   -8    9    0      2.04      0.00
   -7    9    0     -1.67      0.00
   -6    9    0      0.68      0.00
   -5    9    0      0.69      0.00
   -4    9    0     -2.44      0.00
   -3    9    0      2.53      0.00
   -2    9    0     -1.90      0.00
   -1    9    0      1.69      0.00
    0    9    0     -1.53      0.00
    1    9    0      1.02      0.00
    2    9    0      0.51      0.00
    3    9    0     -0.90      0.00
    4    9    0      0.39      0.00
    5    9    0     -0.30      0.00
    6    9    0     -0.81      0.00
    7    9    0      0.45      0.00
    8    9    0      0.95      0.00
    9    9    0     -0.36      0.00
  -18   10    0      0.30      0.00
  -17   10    0     -0.22      0.00
  -16   10    0      0.03      0.00
  -15   10    0     -0.22      0.00
  -14   10    0      0.32      0.00
  -13   10    0      0.02      0.00
  -12   10    0     -0.03      0.00
  -11   10    0     -1.04      0.00
  -10   10    0      1.26      0.00
   -9   10    0     -0.34      0.00
   -8   10    0     -0.33      0.00
   -7   10    0      0.83      0.00
   -6   10    0     -0.73      0.00
   -5   10    0     -0.03      0.00
   -4   10    0      0.47      0.00
   -3   10    0     -0.28      0.00
   -2   10    0     -0.07      0.00
   -1   10    0      0.02      0.00
    0   10    0      0.47      0.00
    1   10    0     -0.89      0.00
    2   10    0      1.40      0.00
    3   10    0     -1.21      0.00
    4   10    0      0.40      0.00
    5   10    0     -0.12      0.00
    6   10    0     -0.06      0.00
    7   10    0     -0.23      0.00
    8   10    0      0.13      0.00
  -18   11    0      0.45      0.00
  -17   11    0     -0.19      0.00
  -16   11    0      0.06      0.00
  -15   11    0     -0.01      0.00
  -14   11    0     -0.83      0.00
  -13   11    0      0.59      0.00
  -12   11    0     -0.10      0.00
  -11   11    0     -0.12      0.00
  -10   11    0     -0.49      0.00
   -9   11    0      1.68      0.00
   -8   11    0     -1.25      0.00
   -7   11    0      1.09      0.00
   -6   11    0     -1.58      0.00
   -5   11    0      1.09      0.00
   -4   11    0     -0.78      0.00
   -3   11    0      0.66      0.00
   -2   11    0     -0.48      0.00
   -1   11    0      0.21      0.00
    0   11    0     -0.30      0.00
    1   11    0      1.44      0.00
    2   11    0     -1.21      0.00
    3   11    0      0.36      0.00
    4   11    0     -0.48      0.00
    5   11    0     -0.12      0.00
    6   11    0     -0.07      0.00
    7   11    0      0.57      0.00
  -17   12    0     -2.08      0.00
  -16   12    0      3.40      0.00
  -15   12    0     -3.07      0.00
  -14   12    0      1.07      0.00
  -13   12    0     -0.07      0.00
  -12   12    0     -0.03      0.00
  -11   12    0      0.18      0.00
  -10   12    0     -0.26      0.00
   -9   12    0      0.15      0.00
   -8   12    0      0.45      0.00
   -7   12    0     -0.96      0.00
   -6   12    0      1.09      0.00
   -5   12    0     -1.09      0.00
   -4   12    0      1.00      0.00
   -3   12    0     -0.76      0.00
   -2   12    0      0.70      0.00
   -1   12    0     -0.94      0.00
    0   12    0      0.79      0.00
    1   12    0     -0.61      0.00
    2   12    0      1.26      0.00
    3   12    0     -0.97      0.00
    4   12    0     -0.18      0.00
    5   12    0      0.28      0.00
  -17   13    0     -0.50      0.00
  -16   13    0     -0.04      0.00
  -15   13    0      0.18      0.00
  -14   13    0     -0.47      0.00
  -13   13    0      0.25      0.00
  -12   13    0      0.08      0.00
  -11   13    0     -0.31      0.00
  -10   13    0      0.56      0.00
   -9   13    0      0.03      0.00
   -8   13    0     -0.06      0.00
   -7   13    0     -0.31      0.00
   -6   13    0     -0.09      0.00
   -5   13    0      0.27      0.00
   -4   13    0     -0.09      0.00
   -3   13    0     -0.08      0.00
   -2   13    0     -0.09      0.00
   -1   13    0      0.03      0.00
    0   13    0      0.95      0.00
    1   13    0     -0.95      0.00
    2   13    0      0.34      0.00
    3   13    0     -0.20      0.00
    4   13    0     -0.44      0.00
  -17   14    0      1.20      0.00
  -16   14    0     -1.02      0.00
  -15   14    0     -0.45      0.00
  -14   14    0      0.67      0.00
  -13   14    0     -0.18      0.00
  -12   14    0      0.31      0.00
  -11   14    0     -0.40      0.00
  -10   14    0      0.30      0.00
   -9   14    0     -0.27      0.00
   -8   14    0     -0.07      0.00
   -7   14    0      0.66      0.00
   -6   14    0     -0.90      0.00
   -5   14    0      0.82      0.00
   -4   14    0      0.00      0.00
   -3   14    0     -0.57      0.00
   -2   14    0      0.05      0.00
   -1   14    0     -0.25      0.00
    0   14    0      0.63      0.00
    1   14    0      0.27      0.00
    2   14    0     -0.67      0.00
    3   14    0      0.33      0.00
  -16   15    0     -0.56      0.00
  -15   15    0      0.28      0.00
  -14   15    0     -0.47      0.00
  -13   15    0      0.47      0.00
  -12   15    0     -0.12      0.00
  -11   15    0      0.10      0.00
  -10   15    0      0.13      0.00
   -9   15    0     -0.40      0.00
   -8   15    0      0.44      0.00
   -7   15    0     -0.10      0.00
   -6   15    0     -0.67      0.00
   -5   15    0      1.19      0.00
   -4   15    0     -1.06      0.00
   -3   15    0      0.59      0.00
   -2   15    0     -0.17      0.00
   -1   15    0      0.01      0.00
    0   15    0      0.11      0.00
    1   15    0      0.12      0.00
  -15   16    0      0.33      0.00
  -14   16    0     -0.33      0.00
  -13   16    0      0.31      0.00
  -12   16    0     -0.38      0.00
  -11   16    0      0.48      0.00
  -10   16    0     -0.40      0.00
   -9   16    0     -0.58      0.00
   -8   16    0      1.52      0.00
   -7   16    0     -1.09      0.00
   -6   16    0      0.47      0.00
   -5   16    0      0.19      0.00
   -4   16    0     -0.26      0.00
   -3   16    0     -0.37      0.00
   -2   16    0     -0.27      0.00
   -1   16    0      0.91      0.00
  -14   17    0      0.52      0.00
  -13   17    0     -0.15      0.00
  -12   17    0     -0.48      0.00
  -11   17    0      0.73      0.00
  -10   17    0     -0.28      0.00
   -9   17    0     -0.15      0.00
   -8   17    0     -0.22      0.00
   -7   17    0      0.87      0.00
   -6   17    0     -0.73      0.00
   -5   17    0     -0.03      0.00
   -4   17    0      0.69      0.00
   -3   17    0     -0.65      0.00
  -11   18    0     -0.52      0.00
  -10   18    0      0.35      0.00
   -9   18    0      0.61      0.00
   -8   18    0     -0.80      0.00
   -7   18    0      0.53      0.00
    6  -18    1     -1.32      0.00
    7  -18    1      1.12      0.00
    8  -18    1     -0.77      0.00
    9  -18    1      0.14      0.00
   10  -18    1     -0.01      0.00
   11  -18    1      0.06      0.00
   12  -18    1      0.40      0.00
    3  -17    1     -0.08      0.00
    4  -17    1     -0.14      0.00
    5  -17    1     -0.19      0.00
    6  -17    1      0.71      0.00
    7  -17    1     -1.12      0.00
    8  -17    1      1.00      0.00
    9  -17    1     -0.21      0.00
   10  -17    1     -0.51      0.00
   11  -17    1      0.58      0.00
   12  -17    1     -0.50      0.00
   13  -17    1      0.57      0.00
   14  -17    1     -0.49      0.00
    0  -16    1     -0.43      0.00
    1  -16    1     -0.10      0.00
    2  -16    1      0.07      0.00
    3  -16    1      1.04      0.00
    4  -16    1     -1.04      0.00
    5  -16    1      0.37      0.00
    6  -16    1     -0.17      0.00
    7  -16    1     -0.21      0.00
    8  -16    1      0.27      0.00
    9  -16    1     -0.48      0.00
   10  -16    1      0.98      0.00
   11  -16    1     -0.75      0.00
   12  -16    1      0.29      0.00
   13  -16    1      0.02      0.00
   14  -16    1     -0.30      0.00
   15  -16    1      0.25      0.00
   -1  -15    1     -0.82      0.00
    0  -15    1      1.21      0.00
    1  -15    1     -1.27      0.00
    2  -15    1      0.54      0.00
    3  -15    1      0.12      0.00
    4  -15    1     -0.31      0.00
    5  -15    1      0.19      0.00
    6  -15    1     -0.13      0.00
    7  -15    1      0.47      0.00
    8  -15    1     -0.44      0.00
    9  -15    1     -0.11      0.00
   10  -15    1      0.46      0.00
   11  -15    1     -0.46      0.00
   12  -15    1     -0.12      0.00
   13  -15    1      0.48      0.00
   14  -15    1     -0.20      0.00
   15  -15    1      0.03      0.00
   16  -15    1      0.01      0.00
   -3  -14    1      0.66      0.00
   -2  -14    1     -0.03      0.00
   -1  -14    1     -1.06      0.00
    0  -14    1      0.76      0.00
    1  -14    1     -0.08      0.00
    2  -14    1     -0.16      0.00
    3  -14    1      0.67      0.00
    4  -14    1     -0.55      0.00
    5  -14    1     -0.26      0.00
    6  -14    1      0.14      0.00
    7  -14    1      0.66      0.00
    8  -14    1     -1.02      0.00
    9  -14    1      0.51      0.00
   10  -14    1      0.44      0.00
   11  -14    1     -0.73      0.00
   12  -14    1      0.44      0.00
   13  -14    1     -0.62      0.00
   14  -14    1      0.65      0.00
   15  -14    1     -0.05      0.00
   16  -14    1      0.49      0.00
   17  -14    1     -1.13      0.00
   -4  -13    1      0.71      0.00
   -3  -13    1     -0.75      0.00
   -2  -13    1      1.00      0.00
   -1  -13    1     -0.98      0.00
    0  -13    1      0.23      0.00
    1  -13    1     -0.26      0.00
    2  -13    1      0.17      0.00
    3  -13    1     -0.16      0.00
    4  -13    1      0.89      0.00
    5  -13    1     -1.56      0.00
    6  -13    1      1.71      0.00
    7  -13    1     -0.84      0.00
    8  -13    1      0.20      0.00
    9  -13    1     -0.13      0.00
   10  -13    1     -0.55      0.00
   11  -13    1      0.53      0.00
   12  -13    1     -0.05      0.00
   13  -13    1      0.19      0.00
   14  -13    1     -0.18      0.00
   15  -13    1     -0.46      0.00
   16  -13    1      1.85      0.00
   17  -13    1     -1.79      0.00
   -6  -12    1      0.12      0.00
   -5  -12    1      0.23      0.00
   -4  -12    1      0.45      0.00
   -3  -12    1      0.02      0.00
   -2  -12    1     -1.53      0.00
   -1  -12    1      1.56      0.00
    0  -12    1     -0.65      0.00
    1  -12    1      0.04      0.00
    2  -12    1      0.17      0.00
    3  -12    1     -0.11      0.00
    4  -12    1     -0.29      0.00
    5  -12    1      0.66      0.00
    6  -12    1     -0.61      0.00
    7  -12    1      0.58      0.00
    8  -12    1     -0.67      0.00
    9  -12    1      0.59      0.00
   10  -12    1     -0.55      0.00
   11  -12    1      0.26      0.00
   12  -12    1      0.09      0.00
   13  -12    1     -0.25      0.00
   14  -12    1      0.55      0.00
   15  -12    1     -0.15      0.00
   16  -12    1     -0.27      0.00
   17  -12    1     -0.01      0.00
   -7  -11    1     -0.14      0.00
   -6  -11    1      0.43      0.00
   -5  -11    1     -0.19      0.00
   -4  -11    1      0.90      0.00
   -3  -11    1     -0.18      0.00
   -2  -11    1     -0.88      0.00
   -1  -11    1      0.57      0.00
    0  -11    1     -0.78      0.00
    1  -11    1      0.81      0.00
    2  -11    1     -0.68      0.00
    3  -11    1      0.70      0.00
    4  -11    1     -0.64      0.00
    5  -11    1      0.94      0.00
    6  -11    1     -0.94      0.00
    7  -11    1      1.38      0.00
    8  -11    1     -1.67      0.00
    9  -11    1      0.36      0.00
   10  -11    1      0.14      0.00
   11  -11    1      0.15      0.00
   12  -11    1     -0.15      0.00
   13  -11    1      0.66      0.00
   14  -11    1     -1.23      0.00
   15  -11    1      2.20      0.00
   16  -11    1     -2.01      0.00
   17  -11    1      0.81      0.00
   -8  -10    1      0.23      0.00
   -7  -10    1     -0.01      0.00
   -6  -10    1     -0.05      0.00
   -5  -10    1      0.26      0.00
   -4  -10    1      0.51      0.00
   -3  -10    1     -1.34      0.00
   -2  -10    1      1.42      0.00
   -1  -10    1     -0.97      0.00
    0  -10    1      0.20      0.00
    1  -10    1      0.00      0.00
    2  -10    1      0.10      0.00
    3  -10    1     -0.28      0.00
    4  -10    1      0.50      0.00
    5  -10    1     -0.74      0.00
    6  -10    1      1.28      0.00
    7  -10    1     -1.59      0.00
    8  -10    1      1.46      0.00
    9  -10    1     -1.46      0.00
   10  -10    1      0.73      0.00
   11  -10    1      0.43      0.00
   12  -10    1     -0.03      0.00
   13  -10    1     -0.81      0.00
   14  -10    1      0.75      0.00
   15  -10    1     -0.43      0.00
   16  -10    1      0.23      0.00
   17  -10    1      0.20      0.00
   -9   -9    1     -1.49      0.00
   -8   -9    1      0.70      0.00
   -7   -9    1     -0.82      0.00
   -6   -9    1      1.30      0.00
   -5   -9    1      0.28      0.00
   -4   -9    1     -1.13      0.00
   -3   -9    1      1.17      0.00
   -2   -9    1     -1.57      0.00
   -1   -9    1      1.07      0.00
    0   -9    1     -0.42      0.00
    1   -9    1      0.04      0.00
    2   -9    1     -0.67      0.00
    3   -9    1      1.54      0.00
    4   -9    1     -0.89      0.00
    5   -9    1     -0.09      0.00
    6   -9    1      0.80      0.00
    7   -9    1     -0.85      0.00
    8   -9    1     -0.54      0.00
    9   -9    1      1.54      0.00
   10   -9    1     -1.70      0.00
   11   -9    1      0.95      0.00
   12   -9    1      0.14      0.00
   13   -9    1      0.53      0.00
   14   -9    1     -0.74      0.00
   15   -9    1      0.24      0.00
   16   -9    1     -0.61      0.00
   17   -9    1      0.80      0.00
   18   -9    1     -0.98      0.00
  -10   -8    1      0.79      0.00
   -9   -8    1     -0.39      0.00
   -8   -8    1      0.11      0.00
   -7   -8    1     -0.10      0.00
   -6   -8    1     -0.33      0.00
   -5   -8    1      1.26      0.00
   -4   -8    1     -1.39      0.00
   -3   -8    1      0.98      0.00
   -2   -8    1      0.23      0.00
   -1   -8    1     -1.66      0.00
    0   -8    1      2.39      0.00
    1   -8    1     -3.10      0.00
    2   -8    1      4.07      0.00
    3   -8    1     -5.05      0.00
    4   -8    1      4.20      0.00
    5   -8    1     -1.30      0.00
    6   -8    1     -1.30      0.00
    7   -8    1      2.05      0.00
    8   -8    1     -1.48      0.00
    9   -8    1      0.13      0.00
   10   -8    1      1.74      0.00
   11   -8    1     -1.83      0.00
   12   -8    1      0.79      0.00
   13   -8    1     -0.78      0.00
   14   -8    1      0.56      0.00
   15   -8    1      0.46      0.00
   16   -8    1     -0.83      0.00
   17   -8    1      0.41      0.00
  -11   -7    1      0.24      0.00
  -10   -7    1     -0.31      0.00
   -9   -7    1      0.21      0.00
   -8   -7    1     -1.30      0.00
   -7   -7    1      2.01      0.00
   -6   -7    1     -0.16      0.00
   -5   -7    1     -1.30      0.00
   -4   -7    1      1.76      0.00
   -3   -7    1     -1.42      0.00
   -2   -7    1     -0.31      0.00
   -1   -7    1      1.77      0.00
    0   -7    1     -1.23      0.00
    1   -7    1     -1.66      0.00
    2   -7    1      4.15      0.00
    3   -7    1     -3.99      0.00
    4   -7    1      2.12      0.00
    5   -7    1     -0.13      0.00
    6   -7    1     -0.66      0.00
    7   -7    1      0.04      0.00
    8   -7    1      0.29      0.00
    9   -7    1     -0.06      0.00
   10   -7    1     -0.12      0.00
   11   -7    1      0.21      0.00
   12   -7    1      0.69      0.00
   13   -7    1     -0.49      0.00
   14   -7    1     -0.55      0.00
   15   -7    1      0.08      0.00
   16   -7    1      0.76      0.00
   17   -7    1     -1.55      0.00
  -12   -6    1     -0.40      0.00
  -11   -6    1      0.61      0.00
  -10   -6    1     -0.53      0.00
   -9   -6    1      0.16      0.00
   -8   -6    1     -0.50      0.00
   -7   -6    1      0.36      0.00
   -6   -6    1      0.33      0.00
   -5   -6    1     -0.35      0.00
   -4   -6    1      0.00      0.00
   -3   -6    1      0.54      0.00
   -2   -6    1     -0.15      0.00
   -1   -6    1      0.33      0.00
    0   -6    1     -2.21      0.00
    1   -6    1      5.64      0.00
    2   -6    1     -9.79      0.00
    3   -6    1      9.00      0.00
    4   -6    1     -3.65      0.00
    5   -6    1     -1.94      0.00
    6   -6    1      5.06      0.00
    7   -6    1     -4.09      0.00
    8   -6    1      1.57      0.00
    9   -6    1      0.84      0.00
   10   -6    1     -1.41      0.00
   11   -6    1      0.61      0.00
   12   -6    1     -0.75      0.00
   13   -6    1      0.63      0.00
   14   -6    1      0.17      0.00
   15   -6    1     -0.69      0.00
   16   -6    1      0.82      0.00
   17   -6    1     -0.57      0.00
  -12   -5    1     -0.92      0.00
  -11   -5    1      1.03      0.00
  -10   -5    1     -0.15      0.00
   -9   -5    1     -1.51      0.00
   -8   -5    1      2.03      0.00
   -7   -5    1     -1.21      0.00
   -6   -5    1      0.47      0.00
   -5   -5    1      1.19      0.00
   -4   -5    1     -1.69      0.00
   -3   -5    1     -0.81      0.00
   -2   -5    1      4.04      0.00
   -1   -5    1     -4.84      0.00
    0   -5    1      2.52      0.00
    1   -5    1      0.59      0.00
    2   -5    1     -2.71      0.00
    3   -5    1      2.61      0.00
    4   -5    1     -2.20      0.00
    5   -5    1      2.58      0.00
    6   -5    1     -1.74      0.00
    7   -5    1     -0.79      0.00
    8   -5    1      2.59      0.00
    9   -5    1     -1.73      0.00
   10   -5    1      0.40      0.00
   11   -5    1      0.94      0.00
   12   -5    1     -1.72      0.00
   13   -5    1      1.32      0.00
   14   -5    1     -0.71      0.00
   15   -5    1     -0.56      0.00
   16   -5    1      0.79      0.00
   17   -5    1     -0.16      0.00
  -13   -4    1      0.66      0.00
  -12   -4    1     -1.26      0.00
  -11   -4    1      1.12      0.00
  -10   -4    1     -0.81      0.00
   -9   -4    1      0.46      0.00
   -8   -4    1     -0.67      0.00
   -7   -4    1      0.36      0.00
   -6   -4    1      0.33      0.00
   -5   -4    1     -0.64      0.00
   -4   -4    1      0.17      0.00
   -3   -4    1      3.08      0.00
   -2   -4    1     -5.67      0.00
   -1   -4    1      5.49      0.00
    0   -4    1     -1.17      0.00
    1   -4    1     -5.22      0.00
    2   -4    1      4.33      0.00
    3   -4    1      0.27      0.00
    4   -4    1     -4.53      0.00
    5   -4    1      8.38      0.00
    6   -4    1     -7.29      0.00
    7   -4    1      4.50      0.00
    8   -4    1     -2.42      0.00
    9   -4    1      0.82      0.00
   10   -4    1      0.05      0.00
   11   -4    1     -0.78      0.00
   12   -4    1      0.60      0.00
   13   -4    1     -0.49      0.00
   14   -4    1      0.75      0.00
   15   -4    1     -0.86      0.00
   16   -4    1      0.78      0.00
   17   -4    1     -0.46      0.00
  -14   -3    1      0.11      0.00
  -13   -3    1     -0.24      0.00
  -12   -3    1      0.13      0.00
  -11   -3    1     -0.41      0.00
  -10   -3    1     -0.35      0.00
   -9   -3    1      1.38      0.00
   -8   -3    1     -1.22      0.00
   -7   -3    1     -0.46      0.00
   -6   -3    1      3.90      0.00
   -5   -3    1     -5.94      0.00
   -4   -3    1      4.53      0.00
   -3   -3    1     -0.49      0.00
   -2   -3    1     -1.71      0.00
   -1   -3    1      1.90      0.00
    0   -3    1     -5.76      0.00
    1   -3    1     11.02      0.00
    2   -3    1     -9.56      0.00
    3   -3    1     -1.30      0.00
    4   -3    1     10.78      0.00
    5   -3    1    -10.22      0.00
    6   -3    1      4.37      0.00
    7   -3    1      0.21      0.00
    8   -3    1     -0.41      0.00
    9   -3    1     -1.03      0.00
   10   -3    1      2.34      0.00
   11   -3    1     -3.07      0.00
   12   -3    1      2.49      0.00
   13   -3    1     -1.55      0.00
   14   -3    1     -0.28      0.00
   15   -3    1      1.03      0.00
   16   -3    1     -0.50      0.00
  -14   -2    1      0.78      0.00
  -13   -2    1     -0.57      0.00
  -12   -2    1      0.35      0.00
  -11   -2    1     -0.73      0.00
  -10   -2    1      0.51      0.00
   -9   -2    1     -0.24      0.00
   -8   -2    1     -0.65      0.00
   -7   -2    1      2.56      0.00
   -6   -2    1     -5.04      0.00
   -5   -2    1      5.76      0.00
   -4   -2    1     -2.54      0.00
   -3   -2    1      0.16      0.00
   -2   -2    1     -0.01      0.00
   -1   -2    1      5.94      0.00
    0   -2    1    -14.22      0.00
    1   -2    1     10.15      0.00
    2   -2    1     -2.94      0.00
    3   -2    1      1.12      0.00
    4   -2    1     -0.45      0.00
    5   -2    1      1.34      0.00
    6   -2    1      0.18      0.00
    7   -2    1     -2.33      0.00
    8   -2    1      1.71      0.00
    9   -2    1      0.11      0.00
   10   -2    1     -1.93      0.00
   11   -2    1      2.15      0.00
   12   -2    1     -1.80      0.00
   13   -2    1      1.26      0.00
   14   -2    1     -0.53      0.00
   15   -2    1     -0.10      0.00
   16   -2    1      0.47      0.00
  -15   -1    1     -0.06      0.00
  -14   -1    1      0.02      0.00
  -13   -1    1     -0.05      0.00
  -12   -1    1     -0.07      0.00
  -11   -1    1     -0.84      0.00
  -10   -1    1      1.40      0.00
   -9   -1    1     -1.37      0.00
   -8   -1    1      0.72      0.00
   -7   -1    1      1.93      0.00
   -6   -1    1     -3.84      0.00
   -5   -1    1      3.61      0.00
   -4   -1    1     -1.99      0.00
   -3   -1    1     -1.08      0.00
   -2   -1    1     14.31      0.00
   -1   -1    1    -42.46      0.00
    0   -1    1     65.71      0.00
    1   -1    1    -61.47      0.00
    2   -1    1     32.16      0.00
    3   -1    1     -4.43      0.00
    4   -1    1     -5.32      0.00
    5   -1    1      3.35      0.00
    6   -1    1      0.98      0.00
    7   -1    1     -1.30      0.00
    8   -1    1     -0.60      0.00
    9   -1    1      1.60      0.00
   10   -1    1     -1.32      0.00
   11   -1    1      0.45      0.00
   12   -1    1     -0.73      0.00
   13   -1    1      0.46      0.00
   14   -1    1     -0.32      0.00
   15   -1    1      0.66      0.00
  -15    0    1     -0.43      0.00
  -14    0    1      0.55      0.00
  -13    0    1     -0.35      0.00
  -12    0    1     -0.59      0.00
  -11    0    1      1.81      0.00
  -10    0    1     -2.48      0.00
   -9    0    1      0.64      0.00
   -8    0    1      2.70      0.00
   -7    0    1     -6.11      0.00
   -6    0    1      7.21      0.00
   -5    0    1     -2.91      0.00
   -4    0    1     -1.02      0.00
   -2    0    1     15.69      0.00
   -1    0    1    -23.45      0.00
    0    0    1      8.49      0.00
    1    0    1      4.03      0.00
    2    0    1     -0.64      0.00
    3    0    1     -3.48      0.00
    4    0    1      3.35      0.00
    5    0    1      0.68      0.00
    6    0    1     -3.70      0.00
    7    0    1      3.32      0.00
    8    0    1     -0.89      0.00
    9    0    1     -2.40      0.00
   10    0    1      3.07      0.00
   11    0    1     -1.84      0.00
   12    0    1      0.39      0.00
   13    0    1      0.41      0.00
   14    0    1     -0.50      0.00
   15    0    1      0.34      0.00
  -16    1    1      0.51      0.00
  -15    1    1     -0.35      0.00
  -14    1    1     -0.17      0.00
  -13    1    1      0.26      0.00
  -12    1    1     -1.29      0.00
  -11    1    1      1.31      0.00
  -10    1    1      0.02      0.00
   -9    1    1     -0.32      0.00
   -8    1    1     -0.37      0.00
   -7    1    1      1.43      0.00
   -6    1    1     -0.79      0.00
   -5    1    1     -1.39      0.00
   -4    1    1      2.80      0.00
   -3    1    1      8.38      0.00
   -2    1    1    -42.81      0.00
   -1    1    1     80.64      0.00
    0    1    1    -87.21      0.00
    1    1    1     56.60      0.00
    2    1    1    -21.32      0.00
    3    1    1      4.75      0.00
    4    1    1     -0.51      0.00
    5    1    1     -0.33      0.00
    6    1    1      0.47      0.00
    7    1    1      0.61      0.00
    8    1    1     -0.99      0.00
    9    1    1      0.88      0.00
   10    1    1     -1.63      0.00
   11    1    1      0.96      0.00
   12    1    1     -0.09      0.00
   13    1    1     -0.44      0.00
   14    1    1      0.60      0.00
  -16    2    1     -1.06      0.00
  -15    2    1      0.50      0.00
  -14    2    1      0.51      0.00
  -13    2    1     -1.30      0.00
  -12    2    1      2.07      0.00
  -11    2    1     -3.25      0.00
  -10    2    1      2.75      0.00
   -9    2    1      0.16      0.00
   -8    2    1     -3.48      0.00
   -7    2    1      3.45      0.00
   -6    2    1      1.07      0.00
   -5    2    1     -4.64      0.00
   -4    2    1      5.84      0.00
   -3    2    1     -1.73      0.00
   -2    2    1     -1.53      0.00
   -1    2    1     -7.14      0.00
    0    2    1     13.71      0.00
    1    2    1    -10.71      0.00
    2    2    1      5.18      0.00
    3    2    1     -1.15      0.00
    4    2    1      3.30      0.00
    5    2    1     -6.19      0.00
    6    2    1      5.39      0.00
    7    2    1     -3.19      0.00
    8    2    1      0.85      0.00
    9    2    1      0.66      0.00
   10    2    1     -1.34      0.00
   11    2    1      0.38      0.00
   12    2    1      0.53      0.00
   13    2    1     -0.26      0.00
   14    2    1      0.16      0.00
  -17    3    1      0.70      0.00
  -16    3    1     -0.33      0.00
  -15    3    1     -0.51      0.00
  -14    3    1     -0.13      0.00
  -13    3    1      0.73      0.00
  -12    3    1     -1.44      0.00
  -11    3    1      2.19      0.00
  -10    3    1     -2.02      0.00
   -9    3    1      1.35      0.00
   -8    3    1      0.62      0.00
   -7    3    1     -0.34      0.00
   -6    3    1     -5.18      0.00
   -5    3    1     12.41      0.00
   -4    3    1    -11.78      0.00
   -3    3    1     -1.84      0.00
   -2    3    1     18.26      0.00
   -1    3    1    -24.11      0.00
    0    3    1     17.20      0.00
    1    3    1     -7.63      0.00
    2    3    1      1.70      0.00
    3    3    1      1.97      0.00
    4    3    1     -4.14      0.00
    5    3    1      4.66      0.00
    6    3    1     -2.45      0.00
    7    3    1      0.74      0.00
    8    3    1     -0.67      0.00
    9    3    1      0.39      0.00
   10    3    1     -0.28      0.00
   11    3    1      0.01      0.00
   12    3    1     -0.47      0.00
   13    3    1      0.55      0.00
  -17    4    1     -0.74      0.00
  -16    4    1      0.50      0.00
  -15    4    1      0.12      0.00
  -14    4    1     -0.78      0.00
  -13    4    1      1.41      0.00
  -12    4    1     -2.08      0.00
  -11    4    1      1.74      0.00
  -10    4    1     -0.13      0.00
   -9    4    1     -2.09      0.00
   -8    4    1      3.32      0.00
   -7    4    1     -2.63      0.00
   -6    4    1      2.84      0.00
   -5    4    1     -3.13      0.00
   -4    4    1      3.76      0.00
   -3    4    1     -2.70      0.00
   -2    4    1     -3.05      0.00
   -1    4    1      4.53      0.00
    0    4    1     -0.83      0.00
    1    4    1     -2.37      0.00
    2    4    1      3.40      0.00
    3    4    1     -0.54      0.00
    4    4    1     -2.00      0.00
    5    4    1      2.03      0.00
    6    4    1     -0.77      0.00
    7    4    1     -0.34      0.00
    8    4    1      0.54      0.00
    9    4    1     -1.18      0.00
   10    4    1      1.42      0.00
   11    4    1     -1.08      0.00
   12    4    1      0.67      0.00
   13    4    1     -0.14      0.00
  -17    5    1      0.68      0.00
  -16    5    1     -1.14      0.00
  -15    5    1      0.43      0.00
  -14    5    1      0.10      0.00
  -13    5    1     -0.91      0.00
  -12    5    1      2.17      0.00
  -11    5    1     -2.16      0.00
  -10    5    1      1.16      0.00
   -9    5    1      1.31      0.00
   -8    5    1     -2.20      0.00
   -7    5    1     -0.77      0.00
   -6    5    1      4.41      0.00
   -5    5    1     -5.87      0.00
   -4    5    1      4.31      0.00
   -3    5    1     -0.96      0.00
   -2    5    1     -1.70      0.00
   -1    5    1      2.19      0.00
    0    5    1     -2.09      0.00
    1    5    1      1.89      0.00
    2    5    1     -0.64      0.00
    3    5    1     -1.43      0.00
    4    5    1      2.23      0.00
    5    5    1     -0.89      0.00
    6    5    1      0.47      0.00
    7    5    1      0.21      0.00
    8    5    1     -1.32      0.00
    9    5    1      0.48      0.00
   10    5    1      0.57      0.00
   11    5    1     -0.89      0.00
   12    5    1      0.25      0.00
  -18    6    1     -0.04      0.00
  -17    6    1      0.00      0.00
  -16    6    1      0.14      0.00
  -15    6    1     -0.10      0.00
  -14    6    1      0.37      0.00
  -13    6    1     -0.92      0.00
  -12    6    1      0.93      0.00
  -11    6    1     -0.55      0.00
  -10    6    1     -0.13      0.00
   -9    6    1      1.40      0.00
   -8    6    1     -2.40      0.00
   -7    6    1      3.88      0.00
   -6    6    1     -4.69      0.00
   -5    6    1      3.13      0.00
   -4    6    1      0.65      0.00
   -3    6    1     -4.99      0.00
   -2    6    1      5.46      0.00
   -1    6    1     -2.64      0.00
    0    6    1     -0.76      0.00
    1    6    1      2.53      0.00
    2    6    1     -1.13      0.00
    3    6    1     -0.58      0.00
    4    6    1      0.80      0.00
    5    6    1      0.35      0.00
    6    6    1     -1.12      0.00
    7    6    1      0.79      0.00
    8    6    1     -0.23      0.00
    9    6    1     -0.45      0.00
   10    6    1      0.20      0.00
   11    6    1      0.28      0.00
  -18    7    1     -1.06      0.00
  -17    7    1      1.09      0.00
  -16    7    1     -0.72      0.00
  -15    7    1     -0.34      0.00
  -14    7    1      0.40      0.00
  -13    7    1      1.11      0.00
  -12    7    1     -1.10      0.00
  -11    7    1      0.32      0.00
  -10    7    1      0.72      0.00
   -9    7    1     -1.30      0.00
   -8    7    1      0.70      0.00
   -7    7    1     -1.01      0.00
   -6    7    1      1.41      0.00
   -5    7    1     -0.85      0.00
   -4    7    1     -0.25      0.00
   -3    7    1      1.90      0.00
   -2    7    1     -2.24      0.00
   -1    7    1      0.45      0.00
    0    7    1      1.16      0.00
    1    7    1     -1.60      0.00
    2    7    1      0.72      0.00
    3    7    1      0.33      0.00
    4    7    1     -1.00      0.00
    5    7    1      1.49      0.00
    6    7    1      0.66      0.00
    7    7    1     -2.40      0.00
    8    7    1      1.01      0.00
    9    7    1      0.40      0.00
   10    7    1     -1.04      0.00
  -18    8    1     -0.64      0.00
  -17    8    1      0.49      0.00
  -16    8    1     -0.14      0.00
  -15    8    1      0.56      0.00
  -14    8    1     -1.05      0.00
  -13    8    1      0.75      0.00
  -12    8    1     -0.52      0.00
  -11    8    1      1.23      0.00
  -10    8    1     -1.36      0.00
   -9    8    1      0.50      0.00
   -8    8    1      0.88      0.00
   -7    8    1     -2.23      0.00
   -6    8    1      1.66      0.00
   -5    8    1      1.30      0.00
   -4    8    1     -4.73      0.00
   -3    8    1      6.00      0.00
   -2    8    1     -4.87      0.00
   -1    8    1      3.02      0.00
    0    8    1     -1.74      0.00
    1    8    1      0.84      0.00
    2    8    1     -0.42      0.00
    3    8    1      0.57      0.00
    4    8    1     -0.12      0.00
    5    8    1     -0.19      0.00
    6    8    1      0.02      0.00
    7    8    1      0.27      0.00
    8    8    1     -0.21      0.00
    9    8    1     -0.39      0.00
  -18    9    1      1.71      0.00
  -17    9    1     -1.94      0.00
  -16    9    1      1.03      0.00
  -15    9    1     -0.26      0.00
  -14    9    1      0.94      0.00
  -13    9    1     -0.70      0.00
  -12    9    1      0.74      0.00
  -11    9    1     -1.19      0.00
  -10    9    1      1.24      0.00
   -9    9    1     -1.44      0.00
   -8    9    1      0.27      0.00
   -7    9    1      0.80      0.00
   -6    9    1     -0.90      0.00
   -5    9    1      0.79      0.00
   -4    9    1      0.67      0.00
   -3    9    1     -1.74      0.00
   -2    9    1      1.09      0.00
   -1    9    1     -0.32      0.00
    0    9    1      0.37      0.00
    1    9    1     -1.46      0.00
    2    9    1      1.57      0.00
    3    9    1     -1.07      0.00
    4    9    1      1.14      0.00
    5    9    1      0.35      0.00
    6    9    1     -0.80      0.00
    7    9    1     -0.57      0.00
    8    9    1      0.46      0.00
  -18   10    1      0.69      0.00
  -17   10    1     -0.92      0.00
  -16   10    1      1.16      0.00
  -15   10    1     -0.87      0.00
  -14   10    1      0.29      0.00
  -13   10    1      0.01      0.00
  -12   10    1      0.56      0.00
  -11   10    1     -0.45      0.00
  -10   10    1     -0.73      0.00
   -9   10    1      1.44      0.00
   -8   10    1     -1.78      0.00
   -7   10    1      1.59      0.00
   -6   10    1     -0.82      0.00
   -5   10    1     -0.05      0.00
   -4   10    1      0.75      0.00
   -3   10    1     -0.87      0.00
   -2   10    1      0.76      0.00
   -1   10    1     -0.80      0.00
    0   10    1      0.70      0.00
    1   10    1     -0.34      0.00
    2   10    1     -0.57      0.00
    3   10    1      0.81      0.00
    4   10    1      0.42      0.00
    5   10    1     -0.97      0.00
    6   10    1      0.75      0.00
    7   10    1     -0.08      0.00
  -18   11    1      0.27      0.00
  -17   11    1     -0.48      0.00
  -16   11    1      0.97      0.00
  -15   11    1     -0.41      0.00
  -14   11    1      0.49      0.00
  -13   11    1     -0.33      0.00
  -12   11    1     -0.30      0.00
  -11   11    1      0.63      0.00
  -10   11    1     -0.90      0.00
   -9   11    1     -0.12      0.00
   -8   11    1      0.48      0.00
   -7   11    1      0.16      0.00
   -6   11    1      0.16      0.00
   -5   11    1     -0.17      0.00
   -4   11    1     -0.14      0.00
   -3   11    1      0.01      0.00
   -2   11    1      0.30      0.00
   -1   11    1     -0.37      0.00
    0   11    1     -0.44      0.00
    1   11    1      0.53      0.00
    2   11    1     -0.23      0.00
    3   11    1      0.45      0.00
    4   11    1      0.22      0.00
    5   11    1      0.21      0.00
    6   11    1     -1.29      0.00
  -17   12    1      0.13      0.00
  -16   12    1     -0.05      0.00
  -15   12    1      0.25      0.00
  -14   12    1      0.37      0.00
  -13   12    1     -0.59      0.00
  -12   12    1     -0.07      0.00
  -11   12    1      0.07      0.00
  -10   12    1      0.48      0.00
   -9   12    1     -0.97      0.00
   -8   12    1      0.96      0.00
   -7   12    1     -0.81      0.00
   -6   12    1      0.84      0.00
   -5   12    1     -0.91      0.00
   -4   12    1      0.74      0.00
   -3   12    1     -0.29      0.00
   -2   12    1      0.21      0.00
   -1   12    1     -0.20      0.00
    0   12    1      0.40      0.00
    1   12    1     -1.23      0.00
    2   12    1      0.86      0.00
    3   12    1      0.16      0.00
    4   12    1      0.33      0.00
    5   12    1     -0.48      0.00
  -17   13    1      2.46      0.00
  -16   13    1     -2.87      0.00
  -15   13    1      2.10      0.00
  -14   13    1     -0.38      0.00
  -13   13    1     -0.64      0.00
  -12   13    1      0.13      0.00
  -11   13    1      0.07      0.00
  -10   13    1     -0.15      0.00
   -9   13    1     -0.07      0.00
   -8   13    1     -0.03      0.00
   -7   13    1      1.12      0.00
   -6   13    1     -1.42      0.00
   -5   13    1      0.84      0.00
   -4   13    1     -0.59      0.00
   -3   13    1      0.90      0.00
   -2   13    1     -0.94      0.00
   -1   13    1      0.24      0.00
    0   13    1     -0.24      0.00
    1   13    1      0.67      0.00
    2   13    1     -0.69      0.00
    3   13    1      0.98      0.00
    4   13    1     -0.42      0.00
  -17   14    1      0.60      0.00
  -16   14    1      0.18      0.00
  -15   14    1     -0.35      0.00
  -14   14    1      0.11      0.00
  -13   14    1     -0.03      0.00
  -12   14    1     -0.44      0.00
  -11   14    1      0.51      0.00
  -10   14    1      0.17      0.00
   -9   14    1     -0.46      0.00
   -8   14    1      0.01      0.00
   -7   14    1      0.26      0.00
   -6   14    1     -0.52      0.00
   -5   14    1      0.41      0.00
   -4   14    1     -0.15      0.00
   -3   14    1      0.64      0.00
   -2   14    1     -0.32      0.00
   -1   14    1     -0.33      0.00
    0   14    1     -0.10      0.00
    1   14    1      0.01      0.00
    2   14    1      0.24      0.00
  -16   15    1      0.15      0.00
  -15   15    1      0.40      0.00
  -14   15    1     -0.65      0.00
  -13   15    1      0.15      0.00
  -12   15    1      0.03      0.00
  -11   15    1     -0.14      0.00
  -10   15    1      0.16      0.00
   -9   15    1     -0.09      0.00
   -8   15    1      0.27      0.00
   -7   15    1     -0.23      0.00
   -6   15    1     -0.16      0.00
   -5   15    1      0.40      0.00
   -4   15    1     -0.42      0.00
   -3   15    1      0.51      0.00
   -2   15    1     -0.54      0.00
   -1   15    1      0.39      0.00
    0   15    1     -0.33      0.00
    1   15    1      0.11      0.00
  -15   16    1     -0.31      0.00
  -14   16    1      0.32      0.00
  -13   16    1      0.19      0.00
  -12   16    1     -0.70      0.00
  -11   16    1      0.83      0.00
  -10   16    1     -0.27      0.00
   -9   16    1     -0.39      0.00
   -8   16    1      0.11      0.00
   -7   16    1     -0.14      0.00
   -6   16    1      0.49      0.00
   -5   16    1     -1.09      0.00
   -4   16    1      2.09      0.00
   -3   16    1     -1.37      0.00
   -2   16    1      0.13      0.00
   -1   16    1      0.07      0.00
  -14   17    1      0.89      0.00
  -13   17    1     -0.65      0.00
  -12   17    1      0.61      0.00
  -11   17    1     -0.76      0.00
  -10   17    1      0.40      0.00
   -9   17    1      0.69      0.00
   -8   17    1     -1.61      0.00
   -7   17    1      1.21      0.00
   -6   17    1     -0.18      0.00
   -5   17    1     -0.51      0.00
   -4   17    1      0.73      0.00
  -10   18    1     -0.80      0.00
   -9   18    1      0.58      0.00
   -8   18    1      0.21      0.00
    5  -18    2      0.96      0.00
    6  -18    2     -0.69      0.00
    7  -18    2      0.55      0.00
    8  -18    2     -0.17      0.00
    9  -18    2      0.02      0.00
   10  -18    2     -0.31      0.00
   11  -18    2      0.17      0.00
   12  -18    2     -0.25      0.00
    2  -17    2     -0.33      0.00
    3  -17    2      0.09      0.00
    4  -17    2      1.02      0.00
    5  -17    2     -1.59      0.00
    6  -17    2      1.25      0.00
    7  -17    2     -0.90      0.00
    8  -17    2      0.69      0.00
    9  -17    2     -0.56      0.00
   10  -17    2      0.49      0.00
   11  -17    2     -0.14      0.00
   12  -17    2     -0.18      0.00
   13  -17    2      0.05      0.00
   14  -17    2     -0.02      0.00
    0  -16    2      1.21      0.00
    1  -16    2     -0.56      0.00
    2  -16    2     -0.84      0.00
    3  -16    2      0.91      0.00
    4  -16    2     -0.50      0.00
    5  -16    2      1.03      0.00
    6  -16    2     -1.18      0.00
    7  -16    2      0.86      0.00
    8  -16    2     -0.30      0.00
    9  -16    2     -0.31      0.00
   10  -16    2      0.20      0.00
   11  -16    2     -0.21      0.00
   12  -16    2      0.52      0.00
   13  -16    2     -0.30      0.00
   14  -16    2     -0.14      0.00
   15  -16    2      0.19      0.00
   -2  -15    2      0.22      0.00
   -1  -15    2     -0.34      0.00
    0  -15    2      0.58      0.00
    1  -15    2     -0.22      0.00
    2  -15    2      0.07      0.00
    3  -15    2     -0.35      0.00
    4  -15    2      0.75      0.00
    5  -15    2     -1.05      0.00
    6  -15    2      0.60      0.00
    7  -15    2     -0.04      0.00
    8  -15    2     -0.27      0.00
    9  -15    2      0.73      0.00
   10  -15    2     -0.73      0.00
   11  -15    2      0.35      0.00
   12  -15    2     -0.01      0.00
   13  -15    2     -0.21      0.00
   14  -15    2      0.04      0.00
   15  -15    2      0.10      0.00
   16  -15    2     -0.13      0.00
   -3  -14    2      0.50      0.00
   -2  -14    2      0.00      0.00
   -1  -14    2      0.57      0.00
    0  -14    2     -1.04      0.00
    1  -14    2      0.86      0.00
    2  -14    2     -0.87      0.00
    3  -14    2      0.44      0.00
    4  -14    2      0.67      0.00
    5  -14    2     -0.89      0.00
    6  -14    2      0.22      0.00
    7  -14    2      0.07      0.00
    8  -14    2      0.04      0.00
    9  -14    2      0.02      0.00
   10  -14    2     -0.49      0.00
   11  -14    2      0.51      0.00
   12  -14    2      0.54      0.00
   13  -14    2     -1.06      0.00
   14  -14    2      0.11      0.00
   15  -14    2      0.25      0.00
   16  -14    2      0.38      0.00
   -5  -13    2     -1.62      0.00
   -4  -13    2      1.14      0.00
   -3  -13    2     -0.62      0.00
   -2  -13    2     -0.26      0.00
   -1  -13    2      1.68      0.00
    0  -13    2     -1.17      0.00
    1  -13    2     -0.15      0.00
    2  -13    2      1.03      0.00
    3  -13    2     -1.38      0.00
    4  -13    2      0.87      0.00
    5  -13    2     -0.43      0.00
    6  -13    2      0.04      0.00
    7  -13    2     -0.13      0.00
    8  -13    2      0.48      0.00
    9  -13    2      0.45      0.00
   10  -13    2     -1.15      0.00
   11  -13    2      0.81      0.00
   12  -13    2     -0.59      0.00
   13  -13    2      0.40      0.00
   14  -13    2     -0.23      0.00
   15  -13    2     -0.08      0.00
   16  -13    2     -0.22      0.00
   17  -13    2      0.70      0.00
   -6  -12    2     -0.82      0.00
   -5  -12    2      0.23      0.00
   -4  -12    2     -0.43      0.00
   -3  -12    2      1.35      0.00
   -2  -12    2     -1.30      0.00
   -1  -12    2      1.03      0.00
    0  -12    2     -0.81      0.00
    1  -12    2      0.43      0.00
    2  -12    2     -0.33      0.00
    3  -12    2      1.01      0.00
    4  -12    2     -1.61      0.00
    5  -12    2      1.33      0.00
    6  -12    2     -1.33      0.00
    7  -12    2      1.70      0.00
    8  -12    2     -1.44      0.00
    9  -12    2      0.80      0.00
   10  -12    2     -0.15      0.00
   11  -12    2     -0.19      0.00
   12  -12    2      0.11      0.00
   13  -12    2     -0.25      0.00
   14  -12    2     -0.02      0.00
   15  -12    2      0.86      0.00
   16  -12    2     -1.29      0.00
   17  -12    2      1.09      0.00
   -7  -11    2      0.00      0.00
   -6  -11    2     -0.06      0.00
   -5  -11    2     -0.49      0.00
   -4  -11    2      0.08      0.00
   -3  -11    2     -0.21      0.00
   -2  -11    2      1.72      0.00
   -1  -11    2     -1.44      0.00
    0  -11    2      0.39      0.00
    1  -11    2      0.03      0.00
    2  -11    2      0.02      0.00
    3  -11    2     -0.61      0.00
    4  -11    2      0.99      0.00
    5  -11    2     -1.52      0.00
    6  -11    2      1.36      0.00
    7  -11    2     -0.57      0.00
    8  -11    2      0.74      0.00
    9  -11    2     -0.57      0.00
   10  -11    2      0.16      0.00
   11  -11    2     -0.21      0.00
   12  -11    2     -0.31      0.00
   13  -11    2      0.45      0.00
   14  -11    2     -0.26      0.00
   15  -11    2     -0.04      0.00
   16  -11    2      0.02      0.00
   17  -11    2      0.83      0.00
   -8  -10    2      0.88      0.00
   -7  -10    2     -1.07      0.00
   -6  -10    2      0.36      0.00
   -5  -10    2      0.45      0.00
   -4  -10    2     -1.03      0.00
   -3  -10    2      0.91      0.00
   -2  -10    2     -0.27      0.00
   -1  -10    2      0.18      0.00
    0  -10    2     -0.06      0.00
    1  -10    2     -0.16      0.00
    2  -10    2      0.38      0.00
    3  -10    2     -0.30      0.00
    4  -10    2     -0.08      0.00
    5  -10    2     -0.50      0.00
    6  -10    2      1.51      0.00
    7  -10    2     -1.77      0.00
    8  -10    2      1.60      0.00
    9  -10    2     -0.81      0.00
   10  -10    2     -0.34      0.00
   11  -10    2      0.17      0.00
   12  -10    2      0.48      0.00
   13  -10    2     -0.51      0.00
   14  -10    2      0.83      0.00
   15  -10    2     -1.15      0.00
   16  -10    2      0.65      0.00
   17  -10    2     -0.17      0.00
   -9   -9    2      0.16      0.00
   -8   -9    2     -0.13      0.00
   -7   -9    2     -0.45      0.00
   -6   -9    2     -0.11      0.00
   -5   -9    2      0.41      0.00
   -4   -9    2     -0.84      0.00
   -3   -9    2      2.00      0.00
   -2   -9    2     -1.66      0.00
   -1   -9    2      0.44      0.00
    0   -9    2      0.58      0.00
    1   -9    2     -0.79      0.00
    2   -9    2      0.64      0.00
    3   -9    2     -1.13      0.00
    4   -9    2      0.89      0.00
    5   -9    2      0.08      0.00
    6   -9    2     -0.82      0.00
    7   -9    2      1.52      0.00
    8   -9    2     -1.44      0.00
    9   -9    2      0.81      0.00
   10   -9    2      0.04      0.00
   11   -9    2     -0.89      0.00
   12   -9    2      0.08      0.00
   13   -9    2      0.56      0.00
   14   -9    2     -0.45      0.00
   15   -9    2      0.97      0.00
   16   -9    2     -0.82      0.00
   17   -9    2      0.40      0.00
  -10   -8    2     -0.81      0.00
   -9   -8    2      1.05      0.00
   -8   -8    2     -0.98      0.00
   -7   -8    2      0.96      0.00
   -6   -8    2     -0.75      0.00
   -5   -8    2     -0.31      0.00
   -4   -8    2      0.97      0.00
   -3   -8    2     -1.27      0.00
   -2   -8    2      1.33      0.00
   -1   -8    2     -0.55      0.00
    0   -8    2      0.02      0.00
    1   -8    2     -0.46      0.00
    2   -8    2      2.21      0.00
    3   -8    2     -3.19      0.00
    4   -8    2      1.84      0.00
    5   -8    2     -0.15      0.00
    6   -8    2     -0.34      0.00
    7   -8    2     -0.01      0.00
    8   -8    2      0.81      0.00
    9   -8    2     -2.08      0.00
   10   -8    2      1.67      0.00
   11   -8    2     -0.16      0.00
   12   -8    2      0.42      0.00
   13   -8    2     -0.90      0.00
   14   -8    2      0.47      0.00
   15   -8    2     -0.58      0.00
   16   -8    2      1.12      0.00
   17   -8    2     -1.23      0.00
  -11   -7    2      1.16      0.00
  -10   -7    2     -0.79      0.00
   -9   -7    2      0.64      0.00
   -8   -7    2     -0.89      0.00
   -7   -7    2      0.14      0.00
   -6   -7    2      0.44      0.00
   -5   -7    2     -0.86      0.00
   -4   -7    2      1.21      0.00
   -3   -7    2     -0.18      0.00
   -2   -7    2     -1.39      0.00
   -1   -7    2      2.52      0.00
    0   -7    2     -3.40      0.00
    1   -7    2      5.18      0.00
    2   -7    2     -7.26      0.00
    3   -7    2      7.48      0.00
    4   -7    2     -5.06      0.00
    5   -7    2      1.01      0.00
    6   -7    2      2.30      0.00
    7   -7    2     -2.80      0.00
    8   -7    2      1.03      0.00
    9   -7    2      0.98      0.00
   10   -7    2     -2.19      0.00
   11   -7    2      1.58      0.00
   12   -7    2     -1.05      0.00
   13   -7    2      1.25      0.00
   14   -7    2     -0.25      0.00
   15   -7    2     -0.67      0.00
   16   -7    2      1.14      0.00
   17   -7    2     -0.62      0.00
  -12   -6    2     -0.26      0.00
  -11   -6    2     -0.11      0.00
  -10   -6    2      0.46      0.00
   -9   -6    2     -0.12      0.00
   -8   -6    2      0.81      0.00
   -7   -6    2     -1.73      0.00
   -6   -6    2      0.72      0.00
   -5   -6    2      1.11      0.00
   -4   -6    2     -2.24      0.00
   -3   -6    2      0.65      0.00
   -2   -6    2      2.42      0.00
   -1   -6    2     -4.00      0.00
    0   -6    2      2.58      0.00
    1   -6    2      2.12      0.00
    2   -6    2     -4.58      0.00
    3   -6    2      3.64      0.00
    4   -6    2     -2.16      0.00
    5   -6    2      0.53      0.00
    6   -6    2      0.05      0.00
    7   -6    2     -0.48      0.00
    8   -6    2      0.51      0.00
    9   -6    2     -0.63      0.00
   10   -6    2      1.09      0.00
   11   -6    2     -0.06      0.00
   12   -6    2     -0.66      0.00
   13   -6    2      0.37      0.00
   14   -6    2     -0.12      0.00
   15   -6    2     -0.18      0.00
   16   -6    2      0.16      0.00
   17   -6    2      0.18      0.00
  -13   -5    2     -0.30      0.00
  -12   -5    2      0.43      0.00
  -11   -5    2     -0.47      0.00
  -10   -5    2      0.30      0.00
   -9   -5    2     -0.24      0.00
   -8   -5    2      0.56      0.00
   -7   -5    2     -0.96      0.00
   -6   -5    2     -0.04      0.00
   -5   -5    2      0.90      0.00
   -4   -5    2     -0.39      0.00
   -3   -5    2      0.30      0.00
   -2   -5    2     -1.34      0.00
   -1   -5    2      1.43      0.00
    0   -5    2      1.62      0.00
    1   -5    2     -6.12      0.00
    2   -5    2      9.23      0.00
    3   -5    2     -6.99      0.00
    4   -5    2     -0.34      0.00
    5   -5    2      6.29      0.00
    6   -5    2     -7.20      0.00
    7   -5    2      4.44      0.00
    8   -5    2     -1.63      0.00
    9   -5    2     -0.23      0.00
   10   -5    2      0.56      0.00
   11   -5    2     -0.03      0.00
   12   -5    2      0.15      0.00
   13   -5    2      0.08      0.00
   14   -5    2     -0.17      0.00
   15   -5    2      0.64      0.00
   16   -5    2     -0.79      0.00
   17   -5    2      0.03      0.00
  -13   -4    2     -0.30      0.00
  -12   -4    2     -0.02      0.00
  -11   -4    2      0.56      0.00
  -10   -4    2     -1.11      0.00
   -9   -4    2      2.15      0.00
   -8   -4    2     -2.29      0.00
   -7   -4    2      1.03      0.00
   -6   -4    2      1.04      0.00
   -5   -4    2     -3.29      0.00
   -4   -4    2      1.95      0.00
   -3   -4    2      1.98      0.00
   -2   -4    2     -5.72      0.00
   -1   -4    2      6.05      0.00
    0   -4    2     -1.31      0.00
    1   -4    2     -1.11      0.00
    2   -4    2      2.22      0.00
    3   -4    2     -4.08      0.00
    4   -4    2      4.02      0.00
    5   -4    2     -4.54      0.00
    6   -4    2      2.70      0.00
    7   -4    2      0.76      0.00
    8   -4    2     -1.68      0.00
    9   -4    2      0.80      0.00
   10   -4    2      0.82      0.00
   11   -4    2     -1.52      0.00
   12   -4    2      1.90      0.00
   13   -4    2     -1.73      0.00
   14   -4    2      0.33      0.00
   15   -4    2      0.75      0.00
   16   -4    2     -0.81      0.00
  -14   -3    2      0.29      0.00
  -13   -3    2     -0.51      0.00
  -12   -3    2      0.88      0.00
  -11   -3    2     -0.59      0.00
  -10   -3    2      0.16      0.00
   -9   -3    2     -0.26      0.00
   -8   -3    2      0.03      0.00
   -7   -3    2      0.41      0.00
   -6   -3    2     -1.41      0.00
   -5   -3    2      1.76      0.00
   -4   -3    2      0.36      0.00
   -3   -3    2     -5.53      0.00
   -2   -3    2      9.28      0.00
   -1   -3    2     -5.27      0.00
    0   -3    2     -2.87      0.00
    1   -3    2      7.29      0.00
    2   -3    2     -4.02      0.00
    3   -3    2     -2.23      0.00
    4   -3    2      5.81      0.00
    5   -3    2     -7.18      0.00
    6   -3    2      5.73      0.00
    7   -3    2     -3.40      0.00
    8   -3    2      1.65      0.00
    9   -3    2     -0.45      0.00
   10   -3    2     -0.28      0.00
   11   -3    2      1.13      0.00
   12   -3    2     -0.89      0.00
   13   -3    2      0.75      0.00
   14   -3    2     -0.50      0.00
   15   -3    2      0.25      0.00
   16   -3    2     -0.67      0.00
  -15   -2    2     -0.21      0.00
  -14   -2    2      0.44      0.00
  -13   -2    2     -0.61      0.00
  -12   -2    2      0.71      0.00
  -11   -2    2     -0.64      0.00
  -10   -2    2      1.63      0.00
   -9   -2    2     -2.27      0.00
   -8   -2    2      0.99      0.00
   -7   -2    2      2.23      0.00
   -6   -2    2     -6.19      0.00
   -5   -2    2      7.19      0.00
   -4   -2    2     -5.53      0.00
   -3   -2    2      1.25      0.00
   -2   -2    2      1.40      0.00
   -1   -2    2     -2.78      0.00
    0   -2    2     13.39      0.00
    1   -2    2    -20.51      0.00
    2   -2    2     12.36      0.00
    3   -2    2      0.68      0.00
    4   -2    2     -9.54      0.00
    5   -2    2      7.77      0.00
    6   -2    2     -1.64      0.00
    7   -2    2     -0.38      0.00
    8   -2    2     -0.12      0.00
    9   -2    2      1.43      0.00
   10   -2    2     -2.02      0.00
   11   -2    2      2.42      0.00
   12   -2    2     -2.30      0.00
   13   -2    2      1.27      0.00
   14   -2    2     -0.36      0.00
   15   -2    2     -0.19      0.00
   16   -2    2     -0.05      0.00
  -15   -1    2      0.38      0.00
  -14   -1    2     -0.50      0.00
  -13   -1    2      0.80      0.00
  -12   -1    2     -0.64      0.00
  -11   -1    2      0.74      0.00
  -10   -1    2     -1.11      0.00
   -9   -1    2      0.41      0.00
   -8   -1    2      1.36      0.00
   -7   -1    2     -4.91      0.00
   -6   -1    2      7.54      0.00
   -5   -1    2     -6.38      0.00
   -4   -1    2      2.42      0.00
   -3   -1    2     -2.01      0.00
   -2   -1    2     10.29      0.00
   -1   -1    2    -19.82      0.00
    0   -1    2     21.45      0.00
    1   -1    2    -13.92      0.00
    2   -1    2      6.00      0.00
    3   -1    2     -3.39      0.00
    4   -1    2      2.39      0.00
    5   -1    2     -1.72      0.00
    6   -1    2     -0.22      0.00
    7   -1    2      1.82      0.00
    8   -1    2     -0.96      0.00
    9   -1    2     -0.88      0.00
   10   -1    2      2.45      0.00
   11   -1    2     -2.03      0.00
   12   -1    2      1.53      0.00
   13   -1    2     -1.21      0.00
   14   -1    2      0.59      0.00
   15   -1    2     -0.45      0.00
  -16    0    2      0.11      0.00
  -15    0    2      0.06      0.00
  -14    0    2     -0.06      0.00
  -13    0    2      0.05      0.00
  -12    0    2     -0.19      0.00
  -11    0    2      0.84      0.00
  -10    0    2     -1.11      0.00
   -9    0    2      1.12      0.00
   -8    0    2     -0.25      0.00
   -7    0    2     -1.78      0.00
   -6    0    2      1.96      0.00
   -5    0    2     -1.60      0.00
   -4    0    2     -0.08      0.00
   -3    0    2      6.19      0.00
   -2    0    2    -25.50      0.00
   -1    0    2     59.28      0.00
    0    0    2    -73.95      0.00
    1    0    2     55.21      0.00
    2    0    2    -26.80      0.00
    3    0    2      5.64      0.00
    4    0    2      1.23      0.00
    5    0    2      0.32      0.00
    6    0    2     -1.54      0.00
    7    0    2      1.04      0.00
    8    0    2      0.64      0.00
    9    0    2     -0.79      0.00
   10    0    2      0.31      0.00
   11    0    2     -0.13      0.00
   12    0    2      0.22      0.00
   13    0    2     -0.59      0.00
   14    0    2      0.37      0.00
   15    0    2     -0.18      0.00
  -16    1    2      0.00      0.00
  -15    1    2      0.54      0.00
  -14    1    2     -0.27      0.00
  -13    1    2      0.05      0.00
  -12    1    2      1.26      0.00
  -11    1    2     -3.35      0.00
  -10    1    2      3.03      0.00
   -9    1    2     -0.26      0.00
   -8    1    2     -3.93      0.00
   -7    1    2      6.45      0.00
   -6    1    2     -4.86      0.00
   -5    1    2     -1.03      0.00
   -4    1    2      4.86      0.00
   -3    1    2      2.18      0.00
   -2    1    2    -12.53      0.00
   -1    1    2     11.24      0.00
    0    1    2      1.03      0.00
    1    1    2     -7.17      0.00
    2    1    2      2.67      0.00
    3    1    2      0.61      0.00
    4    1    2      0.42      0.00
    5    1    2     -2.80      0.00
    6    1    2      3.41      0.00
    7    1    2     -2.14      0.00
    8    1    2     -0.13      0.00
    9    1    2      2.66      0.00
   10    1    2     -2.39      0.00
   11    1    2      1.27      0.00
   12    1    2     -0.37      0.00
   13    1    2     -0.64      0.00
   14    1    2      0.68      0.00
  -17    2    2      1.31      0.00
  -16    2    2     -0.93      0.00
  -15    2    2      0.50      0.00
  -14    2    2     -0.21      0.00
  -13    2    2     -0.45      0.00
  -12    2    2      1.26      0.00
  -11    2    2     -0.69      0.00
  -10    2    2     -0.62      0.00
   -9    2    2      0.72      0.00
   -8    2    2      0.63      0.00
   -7    2    2     -1.68      0.00
   -6    2    2     -1.62      0.00
   -5    2    2      5.79      0.00
   -4    2    2     -5.37      0.00
   -3    2    2     -7.14      0.00
   -2    2    2     34.95      0.00
   -1    2    2    -53.29      0.00
    0    2    2     46.99      0.00
    1    2    2    -27.96      0.00
    2    2    2      9.84      0.00
    3    2    2     -1.99      0.00
    4    2    2     -0.14      0.00
    5    2    2      1.45      0.00
    6    2    2     -0.63      0.00
    7    2    2     -0.44      0.00
    8    2    2      0.79      0.00
    9    2    2     -0.61      0.00
   10    2    2      0.99      0.00
   11    2    2     -0.73      0.00
   12    2    2     -0.44      0.00
   13    2    2      0.43      0.00
   14    2    2     -0.06      0.00
  -17    3    2     -0.96      0.00
  -16    3    2      1.51      0.00
  -15    3    2     -0.21      0.00
  -14    3    2     -1.08      0.00
  -13    3    2      2.20      0.00
  -12    3    2     -3.53      0.00
  -11    3    2      3.52      0.00
  -10    3    2     -2.09      0.00
   -9    3    2     -1.50      0.00
   -8    3    2      3.98      0.00
   -7    3    2     -2.00      0.00
   -6    3    2     -2.03      0.00
   -5    3    2      3.70      0.00
   -4    3    2     -1.16      0.00
   -3    3    2     -0.95      0.00
   -2    3    2     -1.64      0.00
   -1    3    2      7.06      0.00
    0    3    2     -8.32      0.00
    1    3    2      4.11      0.00
    2    3    2     -0.36      0.00
    3    3    2      0.61      0.00
    4    3    2     -3.79      0.00
    5    3    2      4.62      0.00
    6    3    2     -3.19      0.00
    7    3    2      1.63      0.00
    8    3    2      0.30      0.00
    9    3    2     -1.22      0.00
   10    3    2      1.52      0.00
   11    3    2     -0.70      0.00
   12    3    2     -0.19      0.00
   13    3    2      0.02      0.00
  -17    4    2      0.29      0.00
  -16    4    2     -0.51      0.00
  -15    4    2      0.29      0.00
  -14    4    2      0.22      0.00
  -13    4    2     -1.03      0.00
  -12    4    2      2.21      0.00
  -11    4    2     -2.91      0.00
  -10    4    2      2.22      0.00
   -9    4    2     -0.42      0.00
   -8    4    2     -1.01      0.00
   -7    4    2     -1.85      0.00
   -6    4    2      7.47      0.00
   -5    4    2    -11.31      0.00
   -4    4    2      8.81      0.00
   -3    4    2      2.01      0.00
   -2    4    2    -10.36      0.00
   -1    4    2     11.34      0.00
    0    4    2     -8.55      0.00
    1    4    2      3.46      0.00
    2    4    2      0.18      0.00
    3    4    2     -2.57      0.00
    4    4    2      3.65      0.00
    5    4    2     -2.71      0.00
    6    4    2      1.23      0.00
    7    4    2     -0.19      0.00
    8    4    2      0.37      0.00
    9    4    2     -0.08      0.00
   10    4    2     -0.37      0.00
   11    4    2     -0.06      0.00
   12    4    2      0.29      0.00
  -17    5    2      0.19      0.00
  -16    5    2      0.34      0.00
  -15    5    2     -0.59      0.00
  -14    5    2      0.81      0.00
  -13    5    2     -1.82      0.00
  -12    5    2      2.08      0.00
  -11    5    2     -1.70      0.00
  -10    5    2     -0.43      0.00
   -9    5    2      2.76      0.00
   -8    5    2     -2.86      0.00
   -7    5    2      3.01      0.00
   -6    5    2     -3.91      0.00
   -5    5    2      4.48      0.00
   -4    5    2     -3.55      0.00
   -3    5    2      0.22      0.00
   -2    5    2      3.43      0.00
   -1    5    2     -3.34      0.00
    0    5    2     -0.04      0.00
    1    5    2      2.54      0.00
    2    5    2     -1.82      0.00
    3    5    2     -0.22      0.00
    4    5    2      0.45      0.00
    5    5    2     -0.42      0.00
    6    5    2     -0.04      0.00
    7    5    2      0.82      0.00
    8    5    2     -0.17      0.00
    9    5    2      0.22      0.00
   10    5    2     -0.60      0.00
   11    5    2      0.52      0.00
  -18    6    2      0.12      0.00
  -17    6    2     -0.28      0.00
  -16    6    2      0.16      0.00
  -15    6    2     -0.31      0.00
  -14    6    2      0.22      0.00
  -13    6    2      0.72      0.00
  -12    6    2     -1.71      0.00
  -11    6    2      1.43      0.00
  -10    6    2     -0.01      0.00
   -9    6    2     -1.65      0.00
   -8    6    2      1.41      0.00
   -7    6    2      0.44      0.00
   -6    6    2     -1.73      0.00
   -5    6    2      1.95      0.00
   -4    6    2     -0.71      0.00
   -3    6    2     -0.28      0.00
   -2    6    2      0.71      0.00
   -1    6    2     -1.07      0.00
    0    6    2      1.27      0.00
    1    6    2     -1.67      0.00
    2    6    2      0.90      0.00
    3    6    2      0.29      0.00
    4    6    2     -0.76      0.00
    5    6    2      0.34      0.00
    6    6    2      0.45      0.00
    7    6    2     -0.91      0.00
    8    6    2      1.29      0.00
    9    6    2     -0.40      0.00
   10    6    2     -0.74      0.00
   11    6    2      0.42      0.00
  -18    7    2     -0.18      0.00
  -17    7    2      0.44      0.00
  -16    7    2     -0.50      0.00
  -15    7    2      0.27      0.00
  -14    7    2     -0.87      0.00
  -13    7    2      0.83      0.00
  -12    7    2     -0.98      0.00
  -11    7    2      0.76      0.00
  -10    7    2      0.22      0.00
   -9    7    2     -0.44      0.00
   -8    7    2      1.59      0.00
   -7    7    2     -2.86      0.00
   -6    7    2      2.41      0.00
   -5    7    2     -0.43      0.00
   -4    7    2     -3.01      0.00
   -3    7    2      5.28      0.00
   -2    7    2     -4.30      0.00
   -1    7    2      1.75      0.00
    0    7    2      0.59      0.00
    1    7    2     -0.87      0.00
    2    7    2     -0.38      0.00
    3    7    2      1.13      0.00
    4    7    2     -1.25      0.00
    5    7    2     -0.48      0.00
    6    7    2      1.52      0.00
    7    7    2     -0.27      0.00
    8    7    2      0.01      0.00
    9    7    2     -0.15      0.00
   10    7    2      0.15      0.00
  -18    8    2      1.30      0.00
  -17    8    2     -1.34      0.00
  -16    8    2      0.31      0.00
  -15    8    2      0.18      0.00
  -14    8    2      0.59      0.00
  -13    8    2     -1.44      0.00
  -12    8    2      1.07      0.00
  -11    8    2     -0.44      0.00
  -10    8    2      0.14      0.00
   -9    8    2      0.28      0.00
   -8    8    2     -0.56      0.00
   -7    8    2      1.29      0.00
   -6    8    2     -2.04      0.00
   -5    8    2      1.74      0.00
   -4    8    2     -0.27      0.00
   -3    8    2     -1.24      0.00
   -2    8    2      1.18      0.00
   -1    8    2      0.16      0.00
    0    8    2     -0.83      0.00
    1    8    2      0.45      0.00
    2    8    2      0.23      0.00
    3    8    2     -1.30      0.00
    4    8    2      1.40      0.00
    5    8    2     -0.24      0.00
    6    8    2     -1.14      0.00
    7    8    2      1.40      0.00
    8    8    2      0.07      0.00
    9    8    2     -0.84      0.00
  -18    9    2      0.82      0.00
  -17    9    2     -0.77      0.00
  -16    9    2      0.43      0.00
  -15    9    2     -1.08      0.00
  -14    9    2      0.65      0.00
  -13    9    2     -0.25      0.00
  -12    9    2      0.58      0.00
  -11    9    2     -0.69      0.00
  -10    9    2      1.16      0.00
   -9    9    2     -0.13      0.00
   -8    9    2     -1.22      0.00
   -7    9    2      1.30      0.00
   -6    9    2     -0.97      0.00
   -5    9    2     -0.93      0.00
   -4    9    2      2.98      0.00
   -3    9    2     -3.29      0.00
   -2    9    2      2.82      0.00
   -1    9    2     -2.12      0.00
    0    9    2      1.70      0.00
    1    9    2     -0.82      0.00
    2    9    2      0.09      0.00
    3    9    2     -0.61      0.00
    4    9    2      0.20      0.00
    5    9    2     -0.32      0.00
    6    9    2      1.21      0.00
    7    9    2     -0.18      0.00
    8    9    2     -0.68      0.00
  -18   10    2     -0.74      0.00
  -17   10    2      0.62      0.00
  -16   10    2     -0.57      0.00
  -15   10    2      0.42      0.00
  -14   10    2     -0.33      0.00
  -13   10    2      0.12      0.00
  -12   10    2     -0.38      0.00
  -11   10    2      1.15      0.00
  -10   10    2     -0.98      0.00
   -9   10    2      0.57      0.00
   -8   10    2     -0.24      0.00
   -7   10    2     -0.14      0.00
   -6   10    2      0.29      0.00
   -5   10    2     -0.06      0.00
   -4   10    2     -0.76      0.00
   -3   10    2      1.05      0.00
   -2   10    2     -0.42      0.00
   -1   10    2      0.08      0.00
    0   10    2     -0.55      0.00
    1   10    2      1.69      0.00
    2   10    2     -1.92      0.00
    3   10    2      0.57      0.00
    4   10    2      0.14      0.00
    5   10    2     -0.23      0.00
    6   10    2     -0.18      0.00
    7   10    2      1.20      0.00
  -18   11    2     -0.71      0.00
  -17   11    2      0.91      0.00
  -16   11    2     -1.60      0.00
  -15   11    2      0.76      0.00
  -14   11    2      0.24      0.00
  -13   11    2     -0.03      0.00
  -12   11    2     -0.12      0.00
  -11   11    2      0.22      0.00
  -10   11    2      0.88      0.00
   -9   11    2     -1.41      0.00
   -8   11    2      0.69      0.00
   -7   11    2     -0.95      0.00
   -6   11    2      0.83      0.00
   -5   11    2      0.05      0.00
   -4   11    2     -0.45      0.00
   -3   11    2      0.37      0.00
   -2   11    2     -0.23      0.00
   -1   11    2      0.57      0.00
    0   11    2     -0.19      0.00
    1   11    2     -0.66      0.00
    2   11    2      0.64      0.00
    3   11    2     -0.57      0.00
    4   11    2     -0.30      0.00
    5   11    2      0.93      0.00
    6   11    2      0.00      0.00
  -17   12    2      0.77      0.00
  -16   12    2     -1.32      0.00
  -15   12    2      0.98      0.00
  -14   12    2     -0.45      0.00
  -13   12    2      0.41      0.00
  -12   12    2      0.26      0.00
  -11   12    2     -0.73      0.00
  -10   12    2      0.52      0.00
   -9   12    2     -0.07      0.00
   -8   12    2     -0.05      0.00
   -7   12    2      0.03      0.00
   -6   12    2     -0.09      0.00
   -5   12    2      0.09      0.00
   -4   12    2     -0.25      0.00
   -3   12    2      0.10      0.00
   -2   12    2     -0.15      0.00
   -1   12    2      0.34      0.00
    0   12    2      0.38      0.00
    1   12    2     -0.34      0.00
    2   12    2     -0.56      0.00
    3   12    2      0.28      0.00
    4   12    2      0.03      0.00
    5   12    2     -0.35      0.00
  -17   13    2     -0.26      0.00
  -16   13    2      0.33      0.00
  -15   13    2     -0.40      0.00
  -14   13    2      0.29      0.00
  -13   13    2      0.50      0.00
  -12   13    2     -0.32      0.00
  -11   13    2      0.16      0.00
  -10   13    2     -0.30      0.00
   -9   13    2      0.35      0.00
   -8   13    2     -0.92      0.00
   -7   13    2      1.09      0.00
   -6   13    2     -0.98      0.00
   -5   13    2      1.24      0.00
   -4   13    2     -1.21      0.00
   -3   13    2      0.50      0.00
   -2   13    2      0.03      0.00
   -1   13    2      0.47      0.00
    0   13    2     -0.78      0.00
    1   13    2      0.16      0.00
    2   13    2      0.09      0.00
    3   13    2     -0.17      0.00
  -17   14    2     -1.19      0.00
  -16   14    2      1.45      0.00
  -15   14    2     -0.75      0.00
  -14   14    2      0.04      0.00
  -13   14    2      0.42      0.00
  -12   14    2      0.16      0.00
  -11   14    2     -1.06      0.00
  -10   14    2      0.83      0.00
   -9   14    2      0.00      0.00
   -8   14    2      0.12      0.00
   -7   14    2     -0.42      0.00
   -6   14    2      0.47      0.00
   -5   14    2     -0.77      0.00
   -4   14    2      0.55      0.00
   -3   14    2     -0.89      0.00
   -2   14    2      1.19      0.00
   -1   14    2     -0.18      0.00
    0   14    2      0.05      0.00
    1   14    2     -0.52      0.00
    2   14    2      0.18      0.00
  -15   15    2      0.48      0.00
  -14   15    2      0.20      0.00
  -13   15    2     -0.47      0.00
  -12   15    2      0.27      0.00
  -11   15    2      0.29      0.00
  -10   15    2     -0.89      0.00
   -9   15    2      0.56      0.00
   -8   15    2      0.34      0.00
   -7   15    2     -0.92      0.00
   -6   15    2      1.21      0.00
   -5   15    2     -1.26      0.00
   -4   15    2      1.01      0.00
   -3   15    2     -0.97      0.00
   -2   15    2      0.71      0.00
   -1   15    2      0.17      0.00
    0   15    2     -0.65      0.00
  -15   16    2     -0.29      0.00
  -14   16    2      0.39      0.00
  -13   16    2     -0.28      0.00
  -12   16    2     -0.12      0.00
  -11   16    2      0.33      0.00
  -10   16    2     -0.10      0.00
   -9   16    2      0.36      0.00
   -8   16    2     -0.32      0.00
   -7   16    2     -0.01      0.00
   -6   16    2      0.15      0.00
   -5   16    2     -0.88      0.00
   -4   16    2      0.80      0.00
   -3   16    2     -0.53      0.00
   -2   16    2      0.84      0.00
  -13   17    2     -0.53      0.00
  -12   17    2      1.16      0.00
  -11   17    2     -0.85      0.00
  -10   17    2     -0.08      0.00
   -9   17    2      0.73      0.00
   -8   17    2     -0.18      0.00
   -7   17    2     -0.53      0.00
   -6   17    2      0.13      0.00
   -5   17    2      0.83      0.00
    5  -18    3     -0.85      0.00
    6  -18    3      0.68      0.00
    7  -18    3     -0.46      0.00
    8  -18    3      0.32      0.00
    9  -18    3      0.06      0.00
   10  -18    3     -0.06      0.00
   11  -18    3      0.33      0.00
   12  -18    3     -0.45      0.00
    2  -17    3      0.46      0.00
    3  -17    3     -0.72      0.00
    4  -17    3      0.60      0.00
    5  -17    3     -0.11      0.00
    6  -17    3      0.20      0.00
    7  -17    3     -0.31      0.00
    8  -17    3      0.10      0.00
    9  -17    3     -0.08      0.00
   10  -17    3      0.09      0.00
   11  -17    3     -0.01      0.00
   12  -17    3      0.21      0.00
   13  -17    3     -0.21      0.00
   14  -17    3     -0.02      0.00
    0  -16    3     -0.56      0.00
    1  -16    3      0.99      0.00
    2  -16    3     -0.48      0.00
    3  -16    3      0.28      0.00
    4  -16    3     -1.02      0.00
    5  -16    3      0.91      0.00
    6  -16    3     -0.17      0.00
    7  -16    3     -0.03      0.00
    8  -16    3     -0.06      0.00
    9  -16    3      0.37      0.00
   10  -16    3     -0.28      0.00
   11  -16    3     -0.04      0.00
   12  -16    3     -0.22      0.00
   13  -16    3      0.34      0.00
   14  -16    3      0.00      0.00
   15  -16    3     -0.08      0.00
   -2  -15    3     -1.21      0.00
   -1  -15    3      1.27      0.00
    0  -15    3     -1.20      0.00
    1  -15    3      0.37      0.00
    2  -15    3      0.47      0.00
    3  -15    3     -0.60      0.00
    4  -15    3      0.87      0.00
    5  -15    3     -0.90      0.00
    6  -15    3      0.59      0.00
    7  -15    3     -0.03      0.00
    8  -15    3     -0.66      0.00
    9  -15    3      0.47      0.00
   10  -15    3      0.09      0.00
   11  -15    3      0.10      0.00
   12  -15    3     -0.34      0.00
   13  -15    3      0.02      0.00
   14  -15    3      0.38      0.00
   15  -15    3     -0.15      0.00
   16  -15    3     -0.40      0.00
   -4  -14    3      0.12      0.00
   -3  -14    3     -0.62      0.00
   -2  -14    3      0.00      0.00
   -1  -14    3      0.70      0.00
    0  -14    3     -0.65      0.00
    1  -14    3      0.32      0.00
    2  -14    3      0.14      0.00
    3  -14    3     -0.48      0.00
    4  -14    3     -0.05      0.00
    5  -14    3      0.79      0.00
    6  -14    3     -0.48      0.00
    7  -14    3     -0.15      0.00
    8  -14    3      0.34      0.00
    9  -14    3     -0.20      0.00
   10  -14    3      0.00      0.00
   11  -14    3      0.04      0.00
   12  -14    3     -0.24      0.00
   13  -14    3      0.48      0.00
   14  -14    3      0.02      0.00
   15  -14    3     -0.47      0.00
   16  -14    3      0.05      0.00
   -5  -13    3     -0.14      0.00
   -4  -13    3      0.21      0.00
   -3  -13    3      0.00      0.00
   -2  -13    3     -1.02      0.00
   -1  -13    3      0.71      0.00
    0  -13    3      0.16      0.00
    1  -13    3     -0.72      0.00
    2  -13    3      0.94      0.00
    3  -13    3      0.03      0.00
    4  -13    3     -0.99      0.00
    5  -13    3      1.27      0.00
    6  -13    3     -0.83      0.00
    7  -13    3      0.30      0.00
    8  -13    3     -0.89      0.00
    9  -13    3      0.90      0.00
   10  -13    3      0.17      0.00
   11  -13    3     -0.20      0.00
   12  -13    3     -0.50      0.00
   13  -13    3      0.40      0.00
   14  -13    3      0.61      0.00
   15  -13    3     -0.79      0.00
   16  -13    3     -0.33      0.00
   17  -13    3      0.95      0.00
   -6  -12    3     -0.98      0.00
   -5  -12    3      1.01      0.00
   -4  -12    3     -1.36      0.00
   -3  -12    3      0.49      0.00
   -2  -12    3      0.67      0.00
   -1  -12    3     -1.14      0.00
    0  -12    3      0.54      0.00
    1  -12    3      0.43      0.00
    2  -12    3     -0.96      0.00
    3  -12    3      0.80      0.00
    4  -12    3     -0.04      0.00
    5  -12    3     -0.08      0.00
    6  -12    3     -0.01      0.00
    7  -12    3     -0.42      0.00
    8  -12    3      0.57      0.00
    9  -12    3     -0.71      0.00
   10  -12    3      1.04      0.00
   11  -12    3     -0.74      0.00
   12  -12    3      0.20      0.00
   13  -12    3     -0.08      0.00
   14  -12    3      0.15      0.00
   15  -12    3     -0.11      0.00
   16  -12    3     -0.16      0.00
   17  -12    3      0.42      0.00
   -7  -11    3     -0.82      0.00
   -6  -11    3      1.09      0.00
   -5  -11    3     -0.30      0.00
   -4  -11    3     -0.29      0.00
   -3  -11    3     -0.65      0.00
   -2  -11    3      0.67      0.00
   -1  -11    3     -0.17      0.00
    0  -11    3     -0.04      0.00
    1  -11    3      0.04      0.00
    2  -11    3      0.80      0.00
    3  -11    3     -1.29      0.00
    4  -11    3      1.34      0.00
    5  -11    3     -1.27      0.00
    6  -11    3      1.57      0.00
    7  -11    3     -2.71      0.00
    8  -11    3      2.67      0.00
    9  -11    3     -1.52      0.00
   10  -11    3      0.67      0.00
   11  -11    3      0.34      0.00
   12  -11    3     -0.61      0.00
   13  -11    3      0.19      0.00
   14  -11    3      0.10      0.00
   15  -11    3     -0.18      0.00
   16  -11    3     -0.09      0.00
   17  -11    3     -0.27      0.00
   -9  -10    3     -0.19      0.00
   -8  -10    3      0.95      0.00
   -7  -10    3     -0.52      0.00
   -6  -10    3     -0.06      0.00
   -5  -10    3      0.26      0.00
   -4  -10    3     -0.40      0.00
   -3  -10    3      0.88      0.00
   -2  -10    3     -1.67      0.00
   -1  -10    3      1.37      0.00
    0  -10    3     -0.56      0.00
    1  -10    3      0.06      0.00
    2  -10    3     -0.07      0.00
    3  -10    3      0.87      0.00
    4  -10    3     -1.21      0.00
    5  -10    3      1.23      0.00
    6  -10    3     -1.39      0.00
    7  -10    3      0.81      0.00
    8  -10    3     -0.19      0.00
    9  -10    3      0.49      0.00
   10  -10    3     -0.36      0.00
   11  -10    3     -0.26      0.00
   12  -10    3      0.19      0.00
   13  -10    3     -0.06      0.00
   14  -10    3     -0.01      0.00
   15  -10    3      0.25      0.00
   16  -10    3      0.27      0.00
   17  -10    3     -1.04      0.00
  -10   -9    3     -0.52      0.00
   -9   -9    3      0.95      0.00
   -8   -9    3     -0.94      0.00
   -7   -9    3      1.15      0.00
   -6   -9    3     -0.60      0.00
   -5   -9    3     -0.33      0.00
   -4   -9    3      0.23      0.00
   -3   -9    3     -0.41      0.00
   -2   -9    3      0.85      0.00
   -1   -9    3     -0.96      0.00
    0   -9    3      0.42      0.00
    1   -9    3      0.24      0.00
    2   -9    3      0.22      0.00
    3   -9    3     -0.67      0.00
    4   -9    3      0.41      0.00
    5   -9    3      0.14      0.00
    6   -9    3     -0.93      0.00
    7   -9    3      1.11      0.00
    8   -9    3     -0.75      0.00
    9   -9    3      0.07      0.00
   10   -9    3      0.83      0.00
   11   -9    3     -0.45      0.00
   12   -9    3     -0.12      0.00
   13   -9    3     -0.01      0.00
   14   -9    3     -0.32      0.00
   15   -9    3      0.13      0.00
   16   -9    3      0.04      0.00
   17   -9    3      0.01      0.00
  -10   -8    3     -0.46      0.00
   -9   -8    3      0.25      0.00
   -8   -8    3      0.04      0.00
   -7   -8    3     -0.02      0.00
   -6   -8    3      0.34      0.00
   -5   -8    3     -0.69      0.00
   -4   -8    3      1.51      0.00
   -3   -8    3     -2.25      0.00
   -2   -8    3      1.31      0.00
   -1   -8    3      0.25      0.00
    0   -8    3     -1.46      0.00
    1   -8    3      1.59      0.00
    2   -8    3     -1.57      0.00
    3   -8    3      2.46      0.00
    4   -8    3     -2.20      0.00
    5   -8    3      0.35      0.00
    6   -8    3      1.12      0.00
    7   -8    3     -1.26      0.00
    8   -8    3      1.05      0.00
    9   -8    3      0.03      0.00
   10   -8    3     -1.38      0.00
   11   -8    3      0.73      0.00
   12   -8    3     -0.11      0.00
   13   -8    3      0.40      0.00
   14   -8    3      0.38      0.00
   15   -8    3     -1.41      0.00
   16   -8    3      1.38      0.00
   17   -8    3     -0.86      0.00
  -11   -7    3     -0.26      0.00
  -10   -7    3      0.25      0.00
   -9   -7    3      0.24      0.00
   -8   -7    3     -0.21      0.00
   -7   -7    3      0.02      0.00
   -6   -7    3     -0.24      0.00
   -5   -7    3      0.67      0.00
   -4   -7    3     -1.65      0.00
   -3   -7    3      2.15      0.00
   -2   -7    3     -1.13      0.00
   -1   -7    3     -0.50      0.00
    0   -7    3      0.44      0.00
    1   -7    3      1.72      0.00
    2   -7    3     -4.15      0.00
    3   -7    3      4.92      0.00
    4   -7    3     -3.24      0.00
    5   -7    3      0.88      0.00
    6   -7    3      0.27      0.00
    7   -7    3     -0.06      0.00
    8   -7    3     -0.73      0.00
    9   -7    3      1.37      0.00
   10   -7    3     -0.76      0.00
   11   -7    3      0.12      0.00
   12   -7    3     -0.60      0.00
   13   -7    3      0.66      0.00
   14   -7    3     -0.86      0.00
   15   -7    3      1.02      0.00
   16   -7    3     -1.09      0.00
   17   -7    3      1.11      0.00
  -12   -6    3      1.23      0.00
  -11   -6    3     -1.22      0.00
  -10   -6    3      0.26      0.00
   -9   -6    3     -0.63      0.00
   -8   -6    3      1.61      0.00
   -7   -6    3     -1.23      0.00
   -6   -6    3      0.40      0.00
   -5   -6    3      0.57      0.00
   -4   -6    3     -0.45      0.00
   -3   -6    3     -0.78      0.00
   -2   -6    3      1.80      0.00
   -1   -6    3     -3.00      0.00
    0   -6    3      4.12      0.00
    1   -6    3     -7.09      0.00
    2   -6    3      9.88      0.00
    3   -6    3     -8.45      0.00
    4   -6    3      4.29      0.00
    5   -6    3      0.72      0.00
    6   -6    3     -3.39      0.00
    7   -6    3      2.98      0.00
    8   -6    3     -0.83      0.00
    9   -6    3     -1.42      0.00
   10   -6    3      1.07      0.00
   11   -6    3     -0.39      0.00
   12   -6    3      0.60      0.00
   13   -6    3     -0.18      0.00
   14   -6    3     -0.44      0.00
   15   -6    3      1.02      0.00
   16   -6    3     -1.13      0.00
   17   -6    3      0.26      0.00
  -13   -5    3     -0.51      0.00
  -12   -5    3     -0.27      0.00
  -11   -5    3      1.30      0.00
  -10   -5    3     -1.09      0.00
   -9   -5    3      0.48      0.00
   -8   -5    3     -0.94      0.00
   -7   -5    3      1.79      0.00
   -6   -5    3     -0.74      0.00
   -5   -5    3     -1.69      0.00
   -4   -5    3      2.00      0.00
   -3   -5    3      1.43      0.00
   -2   -5    3     -5.82      0.00
   -1   -5    3      6.62      0.00
    0   -5    3     -3.16      0.00
    1   -5    3     -2.31      0.00
    2   -5    3      4.93      0.00
    3   -5    3     -3.15      0.00
    4   -5    3      1.39      0.00
    5   -5    3     -0.77      0.00
    6   -5    3      0.11      0.00
    7   -5    3      0.88      0.00
    8   -5    3     -1.09      0.00
    9   -5    3      0.83      0.00
   10   -5    3     -0.90      0.00
   11   -5    3      0.23      0.00
   12   -5    3      0.45      0.00
   13   -5    3     -0.96      0.00
   14   -5    3      0.49      0.00
   15   -5    3      0.41      0.00
   16   -5    3     -0.37      0.00
  -14   -4    3     -0.36      0.00
  -13   -4    3      0.15      0.00
  -12   -4    3     -0.27      0.00
  -11   -4    3      0.36      0.00
  -10   -4    3     -0.88      0.00
   -9   -4    3      1.01      0.00
   -8   -4    3     -0.74      0.00
   -7   -4    3      0.42      0.00
   -6   -4    3      0.72      0.00
   -5   -4    3     -0.69      0.00
   -4   -4    3      0.84      0.00
   -3   -4    3     -2.52      0.00
   -2   -4    3      3.92      0.00
   -1   -4    3     -4.26      0.00
    0   -4    3     -0.54      0.00
    1   -4    3      6.02      0.00
    2   -4    3     -6.27      0.00
    3   -4    3      2.57      0.00
    4   -4    3      5.13      0.00
    5   -4    3     -9.49      0.00
    6   -4    3      7.44      0.00
    7   -4    3     -4.06      0.00
    8   -4    3      1.36      0.00
    9   -4    3     -0.59      0.00
   10   -4    3      0.32      0.00
   11   -4    3     -0.24      0.00
   12   -4    3      0.39      0.00
   13   -4    3     -0.16      0.00
   14   -4    3      0.51      0.00
   15   -4    3     -0.76      0.00
   16   -4    3      0.37      0.00
  -14   -3    3     -0.54      0.00
  -13   -3    3     -0.78      0.00
  -12   -3    3      1.62      0.00
  -11   -3    3     -1.53      0.00
  -10   -3    3      1.82      0.00
   -9   -3    3     -2.25      0.00
   -8   -3    3      1.91      0.00
   -7   -3    3      0.34      0.00
   -6   -3    3     -3.81      0.00
   -5   -3    3      5.59      0.00
   -4   -3    3     -2.69      0.00
   -3   -3    3     -2.87      0.00
   -2   -3    3      5.01      0.00
   -1   -3    3     -3.55      0.00
    0   -3    3      1.12      0.00
    1   -3    3      0.03      0.00
    2   -3    3     -1.15      0.00
    3   -3    3      4.18      0.00
    4   -3    3     -5.71      0.00
    5   -3    3      4.97      0.00
    6   -3    3     -2.15      0.00
    7   -3    3     -0.60      0.00
    8   -3    3      0.71      0.00
    9   -3    3      0.26      0.00
   10   -3    3     -1.35      0.00
   11   -3    3      1.56      0.00
   12   -3    3     -1.56      0.00
   13   -3    3      0.84      0.00
   14   -3    3      0.37      0.00
   15   -3    3     -0.38      0.00
   16   -3    3      0.42      0.00
  -15   -2    3      0.05      0.00
  -14   -2    3     -0.23      0.00
  -13   -2    3     -0.14      0.00
  -12   -2    3      0.28      0.00
  -11   -2    3     -0.53      0.00
  -10   -2    3      0.16      0.00
   -9   -2    3      0.32      0.00
   -8   -2    3      0.45      0.00
   -7   -2    3     -1.83      0.00
   -6   -2    3      3.63      0.00
   -5   -2    3     -2.70      0.00
   -4   -2    3     -1.19      0.00
   -3   -2    3      6.04      0.00
   -2   -2    3     -7.69      0.00
   -1   -2    3     -2.34      0.00
    0   -2    3     12.34      0.00
    1   -2    3    -10.96      0.00
    2   -2    3      5.42      0.00
    3   -2    3      1.14      0.00
    4   -2    3     -4.27      0.00
    5   -2    3      3.76      0.00
    6   -2    3     -3.17      0.00
    7   -2    3      1.74      0.00
    8   -2    3     -1.02      0.00
    9   -2    3      0.21      0.00
   10   -2    3      0.70      0.00
   11   -2    3     -1.06      0.00
   12   -2    3      1.16      0.00
   13   -2    3     -0.71      0.00
   14   -2    3      0.55      0.00
   15   -2    3     -0.28      0.00
  -15   -1    3      0.25      0.00
  -14   -1    3     -0.90      0.00
  -13   -1    3      0.78      0.00
  -12   -1    3     -0.49      0.00
  -11   -1    3      1.34      0.00
  -10   -1    3     -2.33      0.00
   -9   -1    3      2.38      0.00
   -8   -1    3     -0.02      0.00
   -7   -1    3     -3.79      0.00
   -6   -1    3      6.72      0.00
   -5   -1    3     -6.75      0.00
   -4   -1    3      3.88      0.00
   -3   -1    3     -0.83      0.00
   -2   -1    3     -4.08      0.00
    0   -1    3    -23.70      0.00
    1   -1    3     25.27      0.00
    2   -1    3    -13.30      0.00
    3   -1    3     -0.19      0.00
    4   -1    3      5.81      0.00
    5   -1    3     -3.35      0.00
    6   -1    3     -0.16      0.00
    7   -1    3      0.15      0.00
    8   -1    3      0.67      0.00
    9   -1    3     -1.38      0.00
   10   -1    3      1.18      0.00
   11   -1    3     -1.16      0.00
   12   -1    3      1.34      0.00
   13   -1    3     -0.93      0.00
   14   -1    3      0.64      0.00
   15   -1    3      0.12      0.00
  -16    0    3     -0.08      0.00
  -15    0    3      0.04      0.00
  -14    0    3      0.03      0.00
  -13    0    3     -0.51      0.00
  -12    0    3      1.14      0.00
  -11    0    3     -1.99      0.00
  -10    0    3      2.19      0.00
   -9    0    3     -0.71      0.00
   -8    0    3     -2.53      0.00
   -7    0    3      7.30      0.00
   -6    0    3     -8.29      0.00
   -5    0    3      4.54      0.00
   -4    0    3     -0.65      0.00
   -3    0    3      3.11      0.00
   -2    0    3    -16.18      0.00
   -1    0    3     23.17      0.00
    0    0    3    -17.23      0.00
    1    0    3     10.64      0.00
    2    0    3     -4.78      0.00
    3    0    3      2.08      0.00
    4    0    3     -2.43      0.00
    5    0    3      1.50      0.00
    6    0    3      0.03      0.00
    7    0    3     -1.13      0.00
    8    0    3     -0.22      0.00
    9    0    3      1.93      0.00
   10    0    3     -2.29      0.00
   11    0    3      1.98      0.00
   12    0    3     -1.23      0.00
   13    0    3      1.03      0.00
   14    0    3     -0.64      0.00
  -16    1    3     -0.56      0.00
  -15    1    3      0.32      0.00
  -14    1    3     -0.36      0.00
  -13    1    3      0.02      0.00
  -12    1    3      1.02      0.00
  -11    1    3     -0.91      0.00
  -10    1    3      0.69      0.00
   -9    1    3     -0.60      0.00
   -8    1    3      0.13      0.00
   -7    1    3      0.61      0.00
   -6    1    3     -0.92      0.00
   -5    1    3      0.67      0.00
   -4    1    3     -0.03      0.00
   -3    1    3     -8.60      0.00
   -2    1    3     30.21      0.00
   -1    1    3    -52.71      0.00
    0    1    3     55.43      0.00
    1    1    3    -37.11      0.00
    2    1    3     16.73      0.00
    3    1    3     -4.75      0.00
    4    1    3      1.19      0.00
    5    1    3     -1.39      0.00
    6    1    3      1.60      0.00
    7    1    3     -1.22      0.00
    8    1    3     -0.07      0.00
    9    1    3     -0.13      0.00
   10    1    3      0.43      0.00
   11    1    3      0.07      0.00
   12    1    3     -0.35      0.00
   13    1    3      0.72      0.00
   14    1    3     -0.38      0.00
  -17    2    3      0.19      0.00
  -16    2    3     -0.07      0.00
  -15    2    3      0.20      0.00
  -14    2    3     -0.25      0.00
  -13    2    3      0.82      0.00
  -12    2    3     -2.66      0.00
  -11    2    3      4.31      0.00
  -10    2    3     -3.33      0.00
   -9    2    3     -0.34      0.00
   -8    2    3      4.58      0.00
   -7    2    3     -4.72      0.00
   -6    2    3      1.31      0.00
   -5    2    3      2.86      0.00
   -4    2    3     -4.15      0.00
   -3    2    3     -2.49      0.00
   -2    2    3      5.99      0.00
   -1    2    3     -0.58      0.00
    0    2    3     -4.35      0.00
    1    2    3      5.60      0.00
    2    2    3     -2.64      0.00
    3    2    3      0.64      0.00
    4    2    3     -2.17      0.00
    5    2    3      3.08      0.00
    6    2    3     -2.75      0.00
    7    2    3      1.13      0.00
    8    2    3      0.55      0.00
    9    2    3     -1.74      0.00
   10    2    3      1.91      0.00
   11    2    3     -1.01      0.00
   12    2    3      0.50      0.00
   13    2    3      0.26      0.00
  -17    3    3     -1.66      0.00
  -16    3    3      1.09      0.00
  -15    3    3     -0.86      0.00
  -14    3    3      0.66      0.00
  -13    3    3      0.26      0.00
  -12    3    3     -0.08      0.00
  -11    3    3     -0.70      0.00
  -10    3    3      1.63      0.00
   -9    3    3     -1.28      0.00
   -8    3    3     -0.64      0.00
   -7    3    3     -0.03      0.00
   -6    3    3      4.34      0.00
   -5    3    3     -8.18      0.00
   -4    3    3      4.76      0.00
   -3    3    3      8.03      0.00
   -2    3    3    -23.20      0.00
   -1    3    3     29.22      0.00
    0    3    3    -22.99      0.00
    1    3    3     12.39      0.00
    2    3    3     -4.54      0.00
    3    3    3      1.19      0.00
    4    3    3      0.91      0.00
    5    3    3     -1.58      0.00
    6    3    3      0.33      0.00
    7    3    3     -0.07      0.00
    8    3    3      0.01      0.00
    9    3    3      0.08      0.00
   10    3    3     -0.35      0.00
   11    3    3      0.29      0.00
   12    3    3      0.36      0.00
   13    3    3     -0.06      0.00
  -17    4    3      0.59      0.00
  -16    4    3     -0.38      0.00
  -15    4    3     -0.23      0.00
  -14    4    3      1.44      0.00
  -13    4    3     -2.92      0.00
  -12    4    3      3.82      0.00
  -11    4    3     -3.35      0.00
  -10    4    3      1.12      0.00
   -9    4    3      2.30      0.00
   -8    4    3     -3.20      0.00
   -7    4    3      1.18      0.00
   -6    4    3      0.75      0.00
   -5    4    3     -0.90      0.00
   -4    4    3     -1.37      0.00
   -3    4    3      0.52      0.00
   -2    4    3      3.62      0.00
   -1    4    3     -5.47      0.00
    0    4    3      4.67      0.00
    1    4    3     -1.46      0.00
    2    4    3     -0.31      0.00
    3    4    3     -1.16      0.00
    4    4    3      2.86      0.00
    5    4    3     -2.76      0.00
    6    4    3      1.03      0.00
    7    4    3     -0.11      0.00
    8    4    3     -0.67      0.00
    9    4    3      1.48      0.00
   10    4    3     -1.28      0.00
   11    4    3      0.81      0.00
   12    4    3     -0.35      0.00
  -18    5    3      0.00      0.00
  -17    5    3     -0.53      0.00
  -16    5    3      0.47      0.00
  -15    5    3      0.01      0.00
  -14    5    3     -0.13      0.00
  -13    5    3      1.35      0.00
  -12    5    3     -2.42      0.00
  -11    5    3      2.62      0.00
  -10    5    3     -1.62      0.00
   -9    5    3     -0.76      0.00
   -8    5    3      0.61      0.00
   -7    5    3      2.72      0.00
   -6    5    3     -6.34      0.00
   -5    5    3      7.43      0.00
   -4    5    3     -3.81      0.00
   -3    5    3     -2.29      0.00
   -2    5    3      5.87      0.00
   -1    5    3     -5.81      0.00
    0    5    3      3.89      0.00
    1    5    3     -1.65      0.00
    2    5    3     -0.35      0.00
    3    5    3      2.26      0.00
    4    5    3     -1.98      0.00
    5    5    3      0.82      0.00
    6    5    3     -0.48      0.00
    7    5    3     -0.56      0.00
    8    5    3      0.91      0.00
    9    5    3     -0.91      0.00
   10    5    3      0.83      0.00
   11    5    3     -0.19      0.00
  -18    6    3     -0.36      0.00
  -17    6    3      0.57      0.00
  -16    6    3     -0.46      0.00
  -15    6    3      0.33      0.00
  -14    6    3     -0.52      0.00
  -13    6    3      1.09      0.00
  -12    6    3     -1.42      0.00
  -11    6    3      0.86      0.00
  -10    6    3      0.76      0.00
   -9    6    3     -1.96      0.00
   -8    6    3      2.15      0.00
   -7    6    3     -2.66      0.00
   -6    6    3      3.06      0.00
   -5    6    3     -2.74      0.00
   -4    6    3      0.87      0.00
   -3    6    3      1.92      0.00
   -2    6    3     -3.05      0.00
   -1    6    3      1.50      0.00
    0    6    3      1.18      0.00
    1    6    3     -1.74      0.00
    2    6    3      0.57      0.00
    3    6    3      0.35      0.00
    4    6    3     -0.26      0.00
    5    6    3     -0.30      0.00
    6    6    3      0.37      0.00
    7    6    3     -0.45      0.00
    8    6    3     -0.09      0.00
    9    6    3      0.53      0.00
   10    6    3     -0.05      0.00
  -18    7    3     -0.11      0.00
  -17    7    3      0.33      0.00
  -16    7    3     -0.12      0.00
  -15    7    3      0.58      0.00
  -14    7    3     -0.14      0.00
  -13    7    3     -0.60      0.00
  -12    7    3      0.94      0.00
  -11    7    3     -0.90      0.00
  -10    7    3     -0.70      0.00
   -9    7    3      1.25      0.00
   -8    7    3     -0.67      0.00
   -7    7    3      0.67      0.00
   -6    7    3     -0.46      0.00
   -5    7    3      0.65      0.00
   -4    7    3     -0.86      0.00
   -3    7    3      0.32      0.00
   -2    7    3     -0.19      0.00
   -1    7    3      0.58      0.00
    0    7    3     -1.58      0.00
    1    7    3      2.04      0.00
    2    7    3     -0.77      0.00
    3    7    3     -0.10      0.00
    4    7    3      0.65      0.00
    5    7    3     -0.35      0.00
    6    7    3     -1.17      0.00
    7    7    3      1.26      0.00
    8    7    3     -0.75      0.00
    9    7    3      0.08      0.00
  -18    8    3      0.28      0.00
  -17    8    3     -0.44      0.00
  -16    8    3      0.78      0.00
  -15    8    3     -0.73      0.00
  -14    8    3      0.42      0.00
  -13    8    3     -0.32      0.00
  -12    8    3      0.64      0.00
  -11    8    3     -0.97      0.00
  -10    8    3      0.67      0.00
   -9    8    3     -0.25      0.00
   -8    8    3     -0.83      0.00
   -7    8    3      1.89      0.00
   -6    8    3     -1.28      0.00
   -5    8    3     -0.67      0.00
   -4    8    3      2.82      0.00
   -3    8    3     -3.59      0.00
   -2    8    3      2.55      0.00
   -1    8    3     -1.19      0.00
    0    8    3      0.33      0.00
    1    8    3     -0.30      0.00
    2    8    3      1.31      0.00
    3    8    3     -1.48      0.00
    4    8    3      0.58      0.00
    5    8    3      0.31      0.00
    6    8    3     -0.71      0.00
    7    8    3      0.18      0.00
    8    8    3     -0.17      0.00
  -18    9    3     -0.75      0.00
  -17    9    3      0.56      0.00
  -16    9    3      0.50      0.00
  -15    9    3      0.06      0.00
  -14    9    3     -1.15      0.00
  -13    9    3      1.12      0.00
  -12    9    3     -1.11      0.00
  -11    9    3      0.45      0.00
  -10    9    3     -0.44      0.00
   -9    9    3      0.42      0.00
   -8    9    3      0.65      0.00
   -7    9    3     -0.90      0.00
   -6    9    3      1.26      0.00
   -5    9    3     -1.40      0.00
   -4    9    3      0.21      0.00
   -3    9    3      0.55      0.00
   -2    9    3     -0.24      0.00
   -1    9    3     -0.58      0.00
    0    9    3      0.39      0.00
    1    9    3      0.71      0.00
    2    9    3     -1.05      0.00
    3    9    3      1.51      0.00
    4    9    3     -0.81      0.00
    5    9    3     -0.81      0.00
    6    9    3      0.47      0.00
    7    9    3      0.28      0.00
  -18   10    3     -0.63      0.00
  -17   10    3      0.77      0.00
  -16   10    3     -0.56      0.00
  -15   10    3      0.34      0.00
  -14   10    3     -0.03      0.00
  -13   10    3     -0.25      0.00
  -12   10    3     -0.14      0.00
  -11   10    3      0.18      0.00
  -10   10    3      0.07      0.00
   -9   10    3     -0.59      0.00
   -8   10    3      1.11      0.00
   -7   10    3     -0.85      0.00
   -6   10    3      0.09      0.00
   -5   10    3      1.15      0.00
   -4   10    3     -1.86      0.00
   -3   10    3      1.68      0.00
   -2   10    3     -1.49      0.00
   -1   10    3      1.27      0.00
    0   10    3     -1.18      0.00
    1   10    3      0.61      0.00
    2   10    3      0.57      0.00
    3   10    3     -0.33      0.00
    4   10    3     -0.43      0.00
    5   10    3      0.70      0.00
    6   10    3     -0.99      0.00
  -18   11    3      0.09      0.00
  -17   11    3      0.10      0.00
  -16   11    3      0.68      0.00
  -15   11    3     -1.00      0.00
  -14   11    3     -0.13      0.00
  -13   11    3      0.21      0.00
  -12   11    3      0.27      0.00
  -11   11    3     -1.17      0.00
  -10   11    3      1.23      0.00
   -9   11    3     -0.18      0.00
   -8   11    3      0.30      0.00
   -7   11    3     -0.22      0.00
   -6   11    3     -0.42      0.00
   -5   11    3     -0.14      0.00
   -4   11    3      1.17      0.00
   -3   11    3     -1.21      0.00
   -2   11    3      0.17      0.00
   -1   11    3      0.19      0.00
    0   11    3      0.53      0.00
    1   11    3     -1.04      0.00
    2   11    3      1.28      0.00
    3   11    3     -0.62      0.00
    4   11    3      0.12      0.00
    5   11    3     -0.84      0.00
  -17   12    3     -0.79      0.00
  -16   12    3      1.27      0.00
  -15   12    3     -0.82      0.00
  -14   12    3     -0.50      0.00
  -13   12    3      0.47      0.00
  -12   12    3     -0.04      0.00
  -11   12    3      0.34      0.00
  -10   12    3     -0.75      0.00
   -9   12    3      0.54      0.00
   -8   12    3     -0.21      0.00
   -7   12    3      0.36      0.00
   -6   12    3     -0.43      0.00
   -5   12    3      0.46      0.00
   -4   12    3     -0.02      0.00
   -3   12    3     -0.31      0.00
   -2   12    3      0.03      0.00
   -1   12    3     -0.32      0.00
    0   12    3     -0.11      0.00
    1   12    3      1.18      0.00
    2   12    3     -0.64      0.00
    3   12    3      0.03      0.00
    4   12    3     -0.06      0.00
  -17   13    3     -0.13      0.00
  -16   13    3      0.48      0.00
  -15   13    3     -1.01      0.00
  -14   13    3      0.56      0.00
  -13   13    3     -0.41      0.00
  -12   13    3     -0.05      0.00
  -11   13    3      0.61      0.00
  -10   13    3     -0.16      0.00
   -9   13    3     -0.04      0.00
   -8   13    3      0.13      0.00
   -7   13    3     -0.35      0.00
   -6   13    3      0.21      0.00
   -5   13    3     -0.21      0.00
   -4   13    3      0.68      0.00
   -3   13    3     -0.77      0.00
   -2   13    3      0.29      0.00
   -1   13    3     -0.16      0.00
    0   13    3      0.33      0.00
    1   13    3     -0.23      0.00
    2   13    3      0.43      0.00
    3   13    3     -0.49      0.00
  -16   14    3     -0.79      0.00
  -15   14    3      0.64      0.00
  -14   14    3     -0.09      0.00
  -13   14    3     -0.69      0.00
  -12   14    3      0.79      0.00
  -11   14    3      0.10      0.00
  -10   14    3     -0.76      0.00
   -9   14    3      0.06      0.00
   -8   14    3      0.91      0.00
   -7   14    3     -1.53      0.00
   -6   14    3      2.34      0.00
   -5   14    3     -1.91      0.00
   -4   14    3      1.20      0.00
   -3   14    3     -1.06      0.00
   -2   14    3      0.46      0.00
   -1   14    3     -0.62      0.00
    0   14    3      0.65      0.00
    1   14    3      0.48      0.00
  -15   15    3      0.50      0.00
  -14   15    3     -0.02      0.00
  -13   15    3      0.06      0.00
  -12   15    3     -0.78      0.00
  -11   15    3      1.57      0.00
  -10   15    3     -1.00      0.00
   -9   15    3     -0.30      0.00
   -8   15    3      0.77      0.00
   -7   15    3     -0.54      0.00
   -6   15    3      0.06      0.00
   -5   15    3      0.68      0.00
   -4   15    3     -0.81      0.00
   -3   15    3      0.56      0.00
   -2   15    3     -0.61      0.00
   -1   15    3      0.34      0.00
  -14   16    3     -0.30      0.00
  -13   16    3      0.02      0.00
  -12   16    3      0.68      0.00
  -11   16    3     -1.53      0.00
  -10   16    3      1.30      0.00
   -9   16    3     -0.57      0.00
   -8   16    3     -0.07      0.00
   -7   16    3      0.90      0.00
   -6   16    3     -0.81      0.00
   -5   16    3      1.07      0.00
   -4   16    3     -1.56      0.00
   -3   16    3      0.97      0.00
  -12   17    3      0.12      0.00
  -11   17    3     -0.18      0.00
  -10   17    3     -0.14      0.00
   -9   17    3     -0.07      0.00
   -8   17    3      0.54      0.00
   -7   17    3     -0.37      0.00
   -6   17    3      0.02      0.00
    4  -18    4      0.77      0.00
    5  -18    4     -1.26      0.00
    6  -18    4      1.29      0.00
    7  -18    4     -0.66      0.00
    8  -18    4     -0.34      0.00
    9  -18    4      0.45      0.00
   10  -18    4     -0.26      0.00
   11  -18    4      0.26      0.00
   12  -18    4      0.02      0.00
    2  -17    4     -1.12      0.00
    3  -17    4      1.66      0.00
    4  -17    4     -1.77      0.00
    5  -17    4      0.84      0.00
    6  -17    4     -0.23      0.00
    7  -17    4      0.41      0.00
    8  -17    4     -0.13      0.00
    9  -17    4     -0.55      0.00
   10  -17    4      0.85      0.00
   11  -17    4     -0.88      0.00
   12  -17    4      0.47      0.00
   13  -17    4      0.16      0.00
   -1  -16    4      0.81      0.00
    0  -16    4     -0.83      0.00
    1  -16    4     -0.10      0.00
    2  -16    4      0.64      0.00
    3  -16    4     -0.09      0.00
    4  -16    4     -0.02      0.00
    5  -16    4     -0.51      0.00
    6  -16    4      0.45      0.00
    7  -16    4     -0.16      0.00
    8  -16    4     -0.05      0.00
    9  -16    4     -0.16      0.00
   10  -16    4      0.49      0.00
   11  -16    4     -0.02      0.00
   12  -16    4     -0.50      0.00
   13  -16    4      0.47      0.00
   14  -16    4     -0.23      0.00
   15  -16    4     -0.03      0.00
   -2  -15    4     -0.23      0.00
   -1  -15    4      0.15      0.00
    0  -15    4      0.38      0.00
    1  -15    4     -0.70      0.00
    2  -15    4      0.16      0.00
    3  -15    4      0.09      0.00
    4  -15    4     -0.35      0.00
    5  -15    4      0.58      0.00
    6  -15    4     -0.48      0.00
    7  -15    4      0.57      0.00
    8  -15    4     -0.39      0.00
    9  -15    4     -0.06      0.00
   10  -15    4      0.09      0.00
   11  -15    4     -0.12      0.00
   12  -15    4      0.39      0.00
   13  -15    4     -0.34      0.00
   14  -15    4     -0.02      0.00
   15  -15    4      0.38      0.00
   -4  -14    4      1.23      0.00
   -3  -14    4     -0.71      0.00
   -2  -14    4      0.05      0.00
   -1  -14    4     -0.07      0.00
    0  -14    4      0.17      0.00
    1  -14    4     -0.35      0.00
    2  -14    4      0.64      0.00
    3  -14    4     -0.24      0.00
    4  -14    4     -0.89      0.00
    5  -14    4      0.95      0.00
    6  -14    4      0.03      0.00
    7  -14    4     -0.67      0.00
    8  -14    4      0.54      0.00
    9  -14    4      0.05      0.00
   10  -14    4     -0.23      0.00
   11  -14    4      0.08      0.00
   12  -14    4     -0.08      0.00
   13  -14    4      0.06      0.00
   14  -14    4      0.16      0.00
   15  -14    4     -0.59      0.00
   16  -14    4      0.88      0.00
   -5  -13    4      0.45      0.00
   -4  -13    4     -0.32      0.00
   -3  -13    4      0.86      0.00
   -2  -13    4     -0.31      0.00
   -1  -13    4     -0.48      0.00
    0  -13    4      0.38      0.00
    1  -13    4     -0.04      0.00
    2  -13    4     -0.56      0.00
    3  -13    4      0.41      0.00
    4  -13    4      0.14      0.00
    5  -13    4     -0.46      0.00
    6  -13    4      0.70      0.00
    7  -13    4     -0.24      0.00
    8  -13    4      0.06      0.00
    9  -13    4     -0.62      0.00
   10  -13    4      0.70      0.00
   11  -13    4     -0.55      0.00
   12  -13    4      0.75      0.00
   13  -13    4     -0.81      0.00
   14  -13    4      0.38      0.00
   15  -13    4      0.10      0.00
   16  -13    4     -0.04      0.00
   -6  -12    4      0.36      0.00
   -5  -12    4      0.38      0.00
   -4  -12    4     -0.05      0.00
   -3  -12    4     -0.64      0.00
   -2  -12    4      0.98      0.00
   -1  -12    4     -0.50      0.00
    0  -12    4     -0.38      0.00
    1  -12    4      0.82      0.00
    2  -12    4     -0.46      0.00
    3  -12    4     -0.80      0.00
    4  -12    4      1.29      0.00
    5  -12    4     -1.04      0.00
    6  -12    4      1.24      0.00
    7  -12    4     -1.32      0.00
    8  -12    4      1.37      0.00
    9  -12    4     -1.21      0.00
   10  -12    4      0.23      0.00
   11  -12    4      0.60      0.00
   12  -12    4     -0.57      0.00
   13  -12    4      0.80      0.00
   14  -12    4     -1.53      0.00
   15  -12    4      1.41      0.00
   16  -12    4     -0.23      0.00
   -8  -11    4      0.62      0.00
   -7  -11    4     -1.08      0.00
   -6  -11    4      0.65      0.00
   -5  -11    4     -0.21      0.00
   -4  -11    4      0.82      0.00
   -3  -11    4     -0.42      0.00
   -2  -11    4     -0.66      0.00
   -1  -11    4      0.96      0.00
    0  -11    4     -0.59      0.00
    1  -11    4     -0.18      0.00
    2  -11    4      0.05      0.00
    3  -11    4      0.36      0.00
    4  -11    4     -0.31      0.00
    5  -11    4      0.21      0.00
    6  -11    4      0.08      0.00
    7  -11    4      0.08      0.00
    8  -11    4     -0.35      0.00
    9  -11    4      0.24      0.00
   10  -11    4     -0.46      0.00
   11  -11    4      0.18      0.00
   12  -11    4      0.37      0.00
   13  -11    4     -0.01      0.00
   14  -11    4     -0.40      0.00
   15  -11    4      0.00      0.00
   16  -11    4      1.07      0.00
   17  -11    4     -1.19      0.00
   -9  -10    4     -0.42      0.00
   -8  -10    4     -0.58      0.00
   -7  -10    4      1.02      0.00
   -6  -10    4     -0.53      0.00
   -5  -10    4     -0.30      0.00
   -4  -10    4      0.66      0.00
   -3  -10    4     -0.20      0.00
   -2  -10    4      0.25      0.00
   -1  -10    4     -0.59      0.00
    0  -10    4      0.67      0.00
    1  -10    4     -0.32      0.00
    2  -10    4     -0.85      0.00
    3  -10    4      1.13      0.00
    4  -10    4     -0.86      0.00
    5  -10    4      1.51      0.00
    6  -10    4     -2.10      0.00
    7  -10    4      2.40      0.00
    8  -10    4     -2.73      0.00
    9  -10    4      1.84      0.00
   10  -10    4      0.01      0.00
   11  -10    4     -0.59      0.00
   12  -10    4      0.12      0.00
   13  -10    4      0.31      0.00
   14  -10    4     -0.48      0.00
   15  -10    4     -0.10      0.00
   16  -10    4      0.56      0.00
   17  -10    4      0.11      0.00
  -10   -9    4      0.26      0.00
   -9   -9    4      0.39      0.00
   -8   -9    4     -0.77      0.00
   -7   -9    4      0.40      0.00
   -6   -9    4      0.36      0.00
   -5   -9    4     -0.38      0.00
   -4   -9    4      0.73      0.00
   -3   -9    4     -1.72      0.00
   -2   -9    4      2.16      0.00
   -1   -9    4     -1.43      0.00
    0   -9    4      0.21      0.00
    1   -9    4      0.09      0.00
    2   -9    4      0.01      0.00
    3   -9    4     -0.19      0.00
    4   -9    4      0.64      0.00
    5   -9    4     -0.98      0.00
    6   -9    4      1.19      0.00
    7   -9    4     -0.90      0.00
    8   -9    4      0.39      0.00
    9   -9    4     -0.38      0.00
   10   -9    4      0.03      0.00
   11   -9    4      0.23      0.00
   12   -9    4      0.21      0.00
   13   -9    4     -0.42      0.00
   14   -9    4      0.86      0.00
   15   -9    4     -1.01      0.00
   16   -9    4      0.51      0.00
   17   -9    4     -0.05      0.00
  -11   -8    4      0.50      0.00
  -10   -8    4     -0.01      0.00
   -9   -8    4     -0.30      0.00
   -8   -8    4      0.00      0.00
   -7   -8    4      0.06      0.00
   -6   -8    4     -0.20      0.00
   -5   -8    4      0.06      0.00
   -4   -8    4      0.11      0.00
   -3   -8    4      0.73      0.00
   -2   -8    4     -1.23      0.00
   -1   -8    4      0.92      0.00
    0   -8    4     -0.11      0.00
    1   -8    4     -0.14      0.00
    2   -8    4     -1.35      0.00
    3   -8    4      2.19      0.00
    4   -8    4     -1.24      0.00
    5   -8    4      0.31      0.00
    6   -8    4      0.01      0.00
    7   -8    4     -0.61      0.00
    8   -8    4      0.50      0.00
    9   -8    4      0.73      0.00
   10   -8    4     -0.67      0.00
   11   -8    4      0.37      0.00
   12   -8    4     -0.83      0.00
   13   -8    4      0.62      0.00
   14   -8    4     -0.70      0.00
   15   -8    4      1.24      0.00
   16   -8    4     -0.82      0.00
   17   -8    4      0.21      0.00
  -11   -7    4     -0.08      0.00
  -10   -7    4      0.17      0.00
   -9   -7    4     -0.12      0.00
   -8   -7    4      0.31      0.00
   -7   -7    4     -0.25      0.00
   -6   -7    4     -0.01      0.00
   -5   -7    4      0.80      0.00
   -4   -7    4     -2.02      0.00
   -3   -7    4      1.97      0.00
   -2   -7    4     -0.15      0.00
   -1   -7    4     -1.66      0.00
    0   -7    4      2.47      0.00
    1   -7    4     -2.67      0.00
    2   -7    4      2.95      0.00
    3   -7    4     -3.52      0.00
    4   -7    4      2.69      0.00
    5   -7    4     -0.28      0.00
    6   -7    4     -1.50      0.00
    7   -7    4      1.36      0.00
    8   -7    4     -0.17      0.00
    9   -7    4     -0.95      0.00
   10   -7    4      1.05      0.00
   11   -7    4     -0.29      0.00
   12   -7    4      0.39      0.00
   13   -7    4     -0.35      0.00
   14   -7    4     -0.43      0.00
   15   -7    4      1.13      0.00
   16   -7    4     -1.34      0.00
  -12   -6    4     -0.11      0.00
  -11   -6    4      1.02      0.00
  -10   -6    4     -0.17      0.00
   -9   -6    4     -1.13      0.00
   -8   -6    4      0.80      0.00
   -7   -6    4     -0.36      0.00
   -6   -6    4      0.33      0.00
   -5   -6    4     -1.28      0.00
   -4   -6    4      2.48      0.00
   -3   -6    4     -1.54      0.00
   -2   -6    4     -0.74      0.00
   -1   -6    4      2.65      0.00
    0   -6    4     -1.27      0.00
    1   -6    4     -2.82      0.00
    2   -6    4      5.37      0.00
    3   -6    4     -5.75      0.00
    4   -6    4      3.64      0.00
    5   -6    4     -0.88      0.00
    6   -6    4     -0.64      0.00
    7   -6    4      0.72      0.00
    8   -6    4      0.45      0.00
    9   -6    4     -0.29      0.00
   10   -6    4     -0.14      0.00
   11   -6    4     -0.12      0.00
   12   -6    4     -0.03      0.00
   13   -6    4     -0.44      0.00
   14   -6    4      0.96      0.00
   15   -6    4     -0.75      0.00
   16   -6    4      0.58      0.00
  -13   -5    4      1.23      0.00
  -12   -5    4     -1.51      0.00
  -11   -5    4      0.97      0.00
  -10   -5    4     -0.50      0.00
   -9   -5    4      1.38      0.00
   -8   -5    4     -2.12      0.00
   -7   -5    4      1.44      0.00
   -6   -5    4     -0.07      0.00
   -5   -5    4     -0.84      0.00
   -4   -5    4      0.27      0.00
   -3   -5    4      0.99      0.00
   -2   -5    4     -1.25      0.00
   -1   -5    4      1.76      0.00
    0   -5    4     -3.76      0.00
    1   -5    4      7.15      0.00
    2   -5    4     -9.41      0.00
    3   -5    4      6.46      0.00
    4   -5    4     -0.75      0.00
    5   -5    4     -3.33      0.00
    6   -5    4      4.19      0.00
    7   -5    4     -2.64      0.00
    8   -5    4      0.64      0.00
    9   -5    4      0.65      0.00
   10   -5    4     -0.26      0.00
   11   -5    4     -0.28      0.00
   12   -5    4      0.57      0.00
   13   -5    4     -0.79      0.00
   14   -5    4      0.95      0.00
   15   -5    4     -1.41      0.00
   16   -5    4      0.74      0.00
  -14   -4    4     -0.44      0.00
  -13   -4    4     -0.19      0.00
  -12   -4    4      1.59      0.00
  -11   -4    4     -1.74      0.00
  -10   -4    4      1.34      0.00
   -9   -4    4     -1.50      0.00
   -8   -4    4      1.56      0.00
   -7   -4    4     -1.30      0.00
   -6   -4    4     -0.87      0.00
   -5   -4    4      2.66      0.00
   -4   -4    4     -0.73      0.00
   -3   -4    4     -3.73      0.00
   -2   -4    4      8.68      0.00
   -1   -4    4     -8.26      0.00
    0   -4    4      2.91      0.00
    1   -4    4      1.65      0.00
    2   -4    4     -4.00      0.00
    3   -4    4      2.26      0.00
    4   -4    4     -0.80      0.00
    5   -4    4      1.28      0.00
    6   -4    4     -0.10      0.00
    7   -4    4     -0.78      0.00
    8   -4    4      0.87      0.00
    9   -4    4     -0.41      0.00
   10   -4    4      0.26      0.00
   11   -4    4     -0.58      0.00
   12   -4    4      0.07      0.00
   13   -4    4     -0.02      0.00
   14   -4    4      0.27      0.00
   15   -4    4     -0.25      0.00
   16   -4    4      0.45      0.00
  -14   -3    4      0.36      0.00
  -13   -3    4     -0.29      0.00
  -12   -3    4      0.40      0.00
  -11   -3    4     -1.01      0.00
  -10   -3    4      1.46      0.00
   -9   -3    4     -1.17      0.00
   -8   -3    4      0.40      0.00
   -7   -3    4      0.29      0.00
   -6   -3    4     -0.44      0.00
   -5   -3    4      0.01      0.00
   -4   -3    4     -1.32      0.00
   -3   -3    4      5.57      0.00
   -2   -3    4     -7.52      0.00
   -1   -3    4      4.34      0.00
    0   -3    4      1.72      0.00
    1   -3    4     -5.98      0.00
    2   -3    4      4.12      0.00
    3   -3    4      1.39      0.00
    4   -3    4     -6.96      0.00
    5   -3    4      8.42      0.00
    6   -3    4     -5.29      0.00
    7   -3    4      2.29      0.00
    8   -3    4     -0.71      0.00
    9   -3    4      0.51      0.00
   10   -3    4     -0.53      0.00
   11   -3    4      0.57      0.00
   12   -3    4     -0.52      0.00
   13   -3    4      0.29      0.00
   14   -3    4     -0.84      0.00
   15   -3    4      0.57      0.00
  -15   -2    4     -0.39      0.00
  -14   -2    4     -0.26      0.00
  -13   -2    4      1.60      0.00
  -12   -2    4     -1.95      0.00
  -11   -2    4      1.95      0.00
  -10   -2    4     -2.23      0.00
   -9   -2    4      1.90      0.00
   -8   -2    4     -0.81      0.00
   -7   -2    4     -2.58      0.00
   -6   -2    4      6.29      0.00
   -5   -2    4     -7.15      0.00
   -4   -2    4      3.87      0.00
   -3   -2    4      1.99      0.00
   -2   -2    4     -2.37      0.00
   -1   -2    4      1.05      0.00
    0   -2    4     -3.30      0.00
    1   -2    4      2.68      0.00
    2   -2    4     -0.16      0.00
    3   -2    4     -3.24      0.00
    4   -2    4      5.52      0.00
    5   -2    4     -3.51      0.00
    6   -2    4      1.05      0.00
    7   -2    4      0.46      0.00
    8   -2    4     -0.10      0.00
    9   -2    4     -0.95      0.00
   10   -2    4      1.10      0.00
   11   -2    4     -1.15      0.00
   12   -2    4      0.66      0.00
   13   -2    4     -0.36      0.00
   14   -2    4      0.13      0.00
   15   -2    4      0.18      0.00
  -15   -1    4      0.09      0.00
  -14   -1    4     -0.08      0.00
  -13   -1    4      0.24      0.00
  -12   -1    4     -0.52      0.00
  -11   -1    4      0.03      0.00
  -10   -1    4      0.67      0.00
   -9   -1    4     -0.63      0.00
   -8   -1    4     -1.01      0.00
   -7   -1    4      3.83      0.00
   -6   -1    4     -5.48      0.00
   -5   -1    4      3.65      0.00
   -4   -1    4      1.33      0.00
   -3   -1    4     -3.40      0.00
   -2   -1    4     -2.02      0.00
   -1   -1    4     12.44      0.00
    1   -1    4     13.80      0.00
    2   -1    4     -6.27      0.00
    3   -1    4      1.03      0.00
    4   -1    4      0.94      0.00
    5   -1    4     -1.04      0.00
    6   -1    4      1.31      0.00
    7   -1    4     -0.70      0.00
    8   -1    4      0.33      0.00
    9   -1    4      0.36      0.00
   10   -1    4     -1.11      0.00
   11   -1    4      1.22      0.00
   12   -1    4     -1.58      0.00
   13   -1    4      1.55      0.00
   14   -1    4     -1.45      0.00
  -16    0    4     -0.18      0.00
  -15    0    4      0.17      0.00
  -14    0    4     -0.10      0.00
  -13    0    4      0.25      0.00
  -12    0    4      0.17      0.00
  -11    0    4     -1.34      0.00
  -10    0    4      2.30      0.00
   -9    0    4     -2.02      0.00
   -8    0    4     -0.90      0.00
   -7    0    4      3.79      0.00
   -6    0    4     -4.85      0.00
   -5    0    4      4.08      0.00
   -4    0    4     -0.82      0.00
   -3    0    4     -2.15      0.00
   -2    0    4     10.52      0.00
   -1    0    4    -23.65      0.00
    0    0    4     28.49      0.00
    1    0    4    -23.64      0.00
    2    0    4     11.73      0.00
    3    0    4     -0.63      0.00
    4    0    4     -1.77      0.00
    5    0    4     -0.02      0.00
    6    0    4      1.13      0.00
    7    0    4      0.06      0.00
    8    0    4     -1.04      0.00
    9    0    4      0.71      0.00
   10    0    4     -0.41      0.00
   11    0    4      0.07      0.00
   12    0    4     -0.65      0.00
   13    0    4      0.93      0.00
   14    0    4     -0.16      0.00
  -16    1    4     -0.17      0.00
  -15    1    4     -0.08      0.00
  -14    1    4      0.11      0.00
  -13    1    4      0.11      0.00
  -12    1    4     -1.59      0.00
  -11    1    4      2.73      0.00
  -10    1    4     -2.39      0.00
   -9    1    4      0.26      0.00
   -8    1    4      4.01      0.00
   -7    1    4     -7.68      0.00
   -6    1    4      6.91      0.00
   -5    1    4     -1.36      0.00
   -4    1    4     -1.62      0.00
   -3    1    4     -3.74      0.00
   -2    1    4     12.49      0.00
   -1    1    4    -14.66      0.00
    0    1    4      9.28      0.00
    1    1    4     -4.25      0.00
    2    1    4      1.56      0.00
    3    1    4     -1.06      0.00
    4    1    4      1.46      0.00
    5    1    4     -0.64      0.00
    6    1    4     -0.28      0.00
    7    1    4      0.68      0.00
    8    1    4      0.82      0.00
    9    1    4     -2.02      0.00
   10    1    4      1.64      0.00
   11    1    4     -1.36      0.00
   12    1    4      0.81      0.00
   13    1    4     -0.48      0.00
  -17    2    4     -1.05      0.00
  -16    2    4      1.14      0.00
  -15    2    4     -1.31      0.00
  -14    2    4      0.81      0.00
  -13    2    4      0.63      0.00
  -12    2    4     -1.58      0.00
  -11    2    4      1.08      0.00
  -10    2    4     -0.23      0.00
   -9    2    4     -0.24      0.00
   -8    2    4     -0.37      0.00
   -7    2    4      0.29      0.00
   -6    2    4      1.25      0.00
   -5    2    4     -1.71      0.00
   -4    2    4      0.44      0.00
   -3    2    4      9.27      0.00
   -2    2    4    -26.34      0.00
   -1    2    4     36.26      0.00
    0    2    4    -33.61      0.00
    1    2    4     21.47      0.00
    2    2    4     -9.52      0.00
    3    2    4      3.92      0.00
    4    2    4     -1.78      0.00
    5    2    4      1.56      0.00
    6    2    4     -1.27      0.00
    7    2    4      0.67      0.00
    8    2    4     -0.14      0.00
    9    2    4     -0.02      0.00
   10    2    4     -0.31      0.00
   11    2    4     -0.39      0.00
   12    2    4      0.91      0.00
   13    2    4     -0.59      0.00
  -17    3    4      0.16      0.00
  -16    3    4      0.05      0.00
  -15    3    4     -0.61      0.00
  -14    3    4      0.76      0.00
  -13    3    4     -2.08      0.00
  -12    3    4      3.74      0.00
  -11    3    4     -4.43      0.00
  -10    3    4      3.03      0.00
   -9    3    4      0.96      0.00
   -8    3    4     -3.44      0.00
   -7    3    4      2.04      0.00
   -6    3    4      1.30      0.00
   -5    3    4     -3.03      0.00
   -4    3    4      1.27      0.00
   -3    3    4      1.64      0.00
   -2    3    4     -1.33      0.00
   -1    3    4     -2.20      0.00
    0    3    4      4.42      0.00
    1    3    4     -3.62      0.00
    2    3    4      1.55      0.00
    3    3    4     -1.79      0.00
    4    3    4      3.04      0.00
    5    3    4     -2.46      0.00
    6    3    4      1.65      0.00
    7    3    4     -0.31      0.00
    8    3    4     -0.78      0.00
    9    3    4      1.24      0.00
   10    3    4     -1.45      0.00
   11    3    4      0.93      0.00
   12    3    4     -0.59      0.00
  -17    4    4      0.79      0.00
  -16    4    4     -1.06      0.00
  -15    4    4      0.91      0.00
  -14    4    4     -0.49      0.00
  -13    4    4      0.47      0.00
  -12    4    4     -1.05      0.00
  -11    4    4      1.90      0.00
  -10    4    4     -2.40      0.00
   -9    4    4      1.15      0.00
   -8    4    4      0.21      0.00
   -7    4    4      1.74      0.00
   -6    4    4     -5.51      0.00
   -5    4    4      7.35      0.00
   -4    4    4     -2.64      0.00
   -3    4    4     -7.06      0.00
   -2    4    4     14.19      0.00
   -1    4    4    -15.46      0.00
    0    4    4     10.74      0.00
    1    4    4     -4.74      0.00
    2    4    4      1.38      0.00
    3    4    4      0.15      0.00
    4    4    4     -0.84      0.00
    5    4    4      1.15      0.00
    6    4    4     -0.32      0.00
    7    4    4     -0.03      0.00
    8    4    4     -0.28      0.00
    9    4    4     -0.21      0.00
   10    4    4      0.43      0.00
   11    4    4     -0.13      0.00
  -18    5    4     -0.07      0.00
  -17    5    4      0.04      0.00
  -16    5    4     -0.17      0.00
  -15    5    4      0.11      0.00
  -14    5    4     -1.09      0.00
  -13    5    4      1.99      0.00
  -12    5    4     -2.26      0.00
  -11    5    4      2.19      0.00
  -10    5    4     -0.12      0.00
   -9    5    4     -1.97      0.00
   -8    5    4      2.20      0.00
   -7    5    4     -1.33      0.00
   -6    5    4      0.49      0.00
   -5    5    4     -1.07      0.00
   -4    5    4      1.38      0.00
   -3    5    4      0.63      0.00
   -2    5    4     -2.79      0.00
   -1    5    4      2.94      0.00
    0    5    4     -1.49      0.00
    1    5    4     -0.07      0.00
    2    5    4     -0.24      0.00
    3    5    4      0.96      0.00
    4    5    4     -1.23      0.00
    5    5    4      1.29      0.00
    6    5    4     -0.05      0.00
    7    5    4     -0.41      0.00
    8    5    4      0.42      0.00
    9    5    4     -0.78      0.00
   10    5    4      0.63      0.00
   11    5    4     -0.55      0.00
  -18    6    4     -0.40      0.00
  -17    6    4      0.47      0.00
  -16    6    4     -0.47      0.00
  -15    6    4      0.43      0.00
  -14    6    4      0.08      0.00
  -13    6    4     -1.15      0.00
  -12    6    4      2.08      0.00
  -11    6    4     -1.90      0.00
  -10    6    4      0.52      0.00
   -9    6    4      0.88      0.00
   -8    6    4     -0.23      0.00
   -7    6    4     -1.74      0.00
   -6    6    4      3.22      0.00
   -5    6    4     -2.94      0.00
   -4    6    4      0.32      0.00
   -3    6    4      2.46      0.00
   -2    6    4     -3.23      0.00
   -1    6    4      2.63      0.00
    0    6    4     -2.32      0.00
    1    6    4      1.56      0.00
    2    6    4     -0.20      0.00
    3    6    4     -0.75      0.00
    4    6    4      0.88      0.00
    5    6    4     -0.24      0.00
    6    6    4     -0.07      0.00
    7    6    4      0.73      0.00
    8    6    4     -1.45      0.00
    9    6    4      1.15      0.00
   10    6    4     -0.58      0.00
  -18    7    4      0.37      0.00
  -17    7    4     -1.01      0.00
  -16    7    4      0.77      0.00
  -15    7    4     -0.34      0.00
  -14    7    4     -0.01      0.00
  -13    7    4      0.06      0.00
  -12    7    4      0.67      0.00
  -11    7    4     -0.10      0.00
  -10    7    4     -0.55      0.00
   -9    7    4      0.68      0.00
   -8    7    4     -1.58      0.00
   -7    7    4      1.81      0.00
   -6    7    4     -1.44      0.00
   -5    7    4      0.38      0.00
   -4    7    4      1.58      0.00
   -3    7    4     -2.53      0.00
   -2    7    4      1.99      0.00
   -1    7    4     -0.36      0.00
    0    7    4     -0.80      0.00
    1    7    4      0.06      0.00
    2    7    4      0.53      0.00
    3    7    4     -0.85      0.00
    4    7    4      0.86      0.00
    5    7    4      0.19      0.00
    6    7    4     -0.41      0.00
    7    7    4      0.25      0.00
    8    7    4      0.22      0.00
    9    7    4     -0.73      0.00
  -18    8    4     -0.24      0.00
  -17    8    4     -0.18      0.00
  -16    8    4      0.30      0.00
  -15    8    4     -0.04      0.00
  -14    8    4     -0.32      0.00
  -13    8    4      0.77      0.00
  -12    8    4     -0.75      0.00
  -11    8    4      0.34      0.00
  -10    8    4      0.52      0.00
   -9    8    4     -0.86      0.00
   -8    8    4      0.74      0.00
   -7    8    4     -1.22      0.00
   -6    8    4      1.39      0.00
   -5    8    4     -1.31      0.00
   -4    8    4      1.00      0.00
   -3    8    4     -0.16      0.00
   -2    8    4      0.09      0.00
   -1    8    4     -0.91      0.00
    0    8    4      1.54      0.00
    1    8    4     -1.40      0.00
    2    8    4     -0.01      0.00
    3    8    4      0.94      0.00
    4    8    4     -0.56      0.00
    5    8    4      0.15      0.00
    6    8    4      0.46      0.00
    7    8    4     -0.54      0.00
    8    8    4      0.12      0.00
  -18    9    4      0.18      0.00
  -17    9    4     -0.17      0.00
  -16    9    4     -0.30      0.00
  -15    9    4      0.34      0.00
  -14    9    4      0.53      0.00
  -13    9    4     -0.25      0.00
  -12    9    4      0.02      0.00
  -11    9    4      0.41      0.00
  -10    9    4     -0.79      0.00
   -9    9    4     -0.22      0.00
   -8    9    4      0.75      0.00
   -7    9    4     -0.90      0.00
   -6    9    4      0.53      0.00
   -5    9    4      1.02      0.00
   -4    9    4     -2.06      0.00
   -3    9    4      2.17      0.00
   -2    9    4     -1.64      0.00
   -1    9    4      1.12      0.00
    0    9    4     -1.04      0.00
    1    9    4      0.86      0.00
    2    9    4     -1.11      0.00
    3    9    4      0.57      0.00
    4    9    4      0.59      0.00
    5    9    4     -0.28      0.00
    6    9    4      0.10      0.00
    7    9    4     -0.25      0.00
  -18   10    4     -0.09      0.00
  -17   10    4      0.48      0.00
  -16   10    4     -0.48      0.00
  -15   10    4     -0.17      0.00
  -14   10    4      1.08      0.00
  -13   10    4     -0.92      0.00
  -12   10    4      0.64      0.00
  -11   10    4     -0.65      0.00
  -10   10    4      0.72      0.00
   -9   10    4     -0.66      0.00
   -8   10    4      0.03      0.00
   -7   10    4      0.37      0.00
   -6   10    4     -0.69      0.00
   -5   10    4      0.40      0.00
   -4   10    4      0.56      0.00
   -3   10    4     -0.70      0.00
   -2   10    4      0.31      0.00
   -1   10    4      0.20      0.00
    0   10    4     -0.01      0.00
    1   10    4     -1.14      0.00
    2   10    4      1.21      0.00
    3   10    4     -0.70      0.00
    4   10    4      0.45      0.00
    5   10    4      0.21      0.00
    6   10    4      0.05      0.00
  -18   11    4      0.28      0.00
  -17   11    4     -0.69      0.00
  -16   11    4      0.73      0.00
  -15   11    4      0.34      0.00
  -14   11    4     -0.35      0.00
  -13   11    4      0.33      0.00
  -12   11    4     -0.30      0.00
  -11   11    4      0.19      0.00
  -10   11    4     -0.78      0.00
   -9   11    4      0.56      0.00
   -8   11    4     -0.32      0.00
   -7   11    4      0.36      0.00
   -6   11    4      0.67      0.00
   -5   11    4     -1.58      0.00
   -4   11    4      1.25      0.00
   -3   11    4     -0.47      0.00
   -2   11    4      0.48      0.00
   -1   11    4     -0.85      0.00
    0   11    4      0.55      0.00
    1   11    4      0.11      0.00
    2   11    4     -0.88      0.00
    3   11    4      0.56      0.00
    4   11    4      0.69      0.00
    5   11    4     -0.73      0.00
  -17   12    4      0.36      0.00
  -16   12    4     -1.06      0.00
  -15   12    4      1.28      0.00
  -14   12    4      0.14      0.00
  -13   12    4     -0.59      0.00
  -12   12    4     -0.90      0.00
  -11   12    4      1.97      0.00
  -10   12    4     -1.35      0.00
   -9   12    4      0.19      0.00
   -8   12    4      0.29      0.00
   -7   12    4     -0.69      0.00
   -6   12    4      0.51      0.00
   -5   12    4      0.01      0.00
   -4   12    4     -0.50      0.00
   -3   12    4      1.00      0.00
   -2   12    4     -0.16      0.00
   -1   12    4     -0.46      0.00
    0   12    4     -0.15      0.00
    1   12    4      0.11      0.00
    2   12    4     -0.23      0.00
    3   12    4      0.75      0.00
  -17   13    4      1.17      0.00
  -16   13    4     -1.30      0.00
  -15   13    4      1.06      0.00
  -14   13    4      0.18      0.00
  -13   13    4     -0.75      0.00
  -12   13    4      0.21      0.00
  -11   13    4     -0.39      0.00
  -10   13    4      0.35      0.00
   -9   13    4     -0.06      0.00
   -8   13    4      0.31      0.00
   -7   13    4     -0.63      0.00
   -6   13    4      1.10      0.00
   -5   13    4     -1.66      0.00
   -4   13    4      1.21      0.00
   -3   13    4     -0.15      0.00
   -2   13    4     -0.02      0.00
   -1   13    4     -0.24      0.00
    0   13    4      0.39      0.00
    1   13    4     -0.60      0.00
    2   13    4      0.27      0.00
  -15   14    4      1.04      0.00
  -14   14    4     -1.03      0.00
  -13   14    4      0.45      0.00
  -12   14    4     -0.15      0.00
  -11   14    4      0.28      0.00
  -10   14    4     -0.15      0.00
   -9   14    4     -0.19      0.00
   -8   14    4      0.25      0.00
   -7   14    4     -0.46      0.00
   -6   14    4     -0.37      0.00
   -5   14    4      1.21      0.00
   -4   14    4     -0.84      0.00
   -3   14    4      0.97      0.00
   -2   14    4     -0.75      0.00
   -1   14    4      0.27      0.00
    0   14    4     -0.58      0.00
  -15   15    4     -0.38      0.00
  -14   15    4     -0.44      0.00
  -13   15    4      0.59      0.00
  -12   15    4      0.03      0.00
  -11   15    4     -1.27      0.00
  -10   15    4      1.87      0.00
   -9   15    4     -0.90      0.00
   -8   15    4     -0.62      0.00
   -7   15    4      1.75      0.00
   -6   15    4     -2.39      0.00
   -5   15    4      1.76      0.00
   -4   15    4     -0.85      0.00
   -3   15    4      0.93      0.00
   -2   15    4     -0.82      0.00
  -14   16    4     -0.17      0.00
  -13   16    4     -0.05      0.00
  -12   16    4      1.13      0.00
  -11   16    4     -1.34      0.00
  -10   16    4      0.35      0.00
   -9   16    4      0.51      0.00
   -8   16    4     -1.09      0.00
   -7   16    4      0.33      0.00
   -6   16    4      0.45      0.00
   -5   16    4     -0.34      0.00
   -4   16    4      0.54      0.00
  -11   17    4      1.25      0.00
  -10   17    4     -0.95      0.00
   -9   17    4      0.36      0.00
   -8   17    4     -0.30      0.00
    4  -18    5     -0.31      0.00
    5  -18    5     -0.04      0.00
    6  -18    5      0.33      0.00
    7  -18    5     -0.31      0.00
    8  -18    5      0.45      0.00
    9  -18    5     -0.42      0.00
   10  -18    5      0.16      0.00
   11  -18    5     -0.53      0.00
    1  -17    5      1.32      0.00
    2  -17    5     -0.94      0.00
    3  -17    5      0.66      0.00
    4  -17    5     -0.70      0.00
    5  -17    5      1.20      0.00
    6  -17    5     -1.20      0.00
    7  -17    5     -0.09      0.00
    8  -17    5      1.10      0.00
    9  -17    5     -0.81      0.00
   10  -17    5      0.53      0.00
   11  -17    5     -0.75      0.00
   12  -17    5      0.61      0.00
   13  -17    5     -0.34      0.00
    0  -16    5      1.03      0.00
    1  -16    5     -1.83      0.00
    2  -16    5      1.79      0.00
    3  -16    5     -1.35      0.00
    4  -16    5      0.82      0.00
    5  -16    5     -0.01      0.00
    6  -16    5     -0.17      0.00
    7  -16    5     -0.06      0.00
    8  -16    5     -0.26      0.00
    9  -16    5      0.91      0.00
   10  -16    5     -1.48      0.00
   11  -16    5      1.12      0.00
   12  -16    5     -0.41      0.00
   13  -16    5      0.25      0.00
   14  -16    5     -0.22      0.00
   -2  -15    5     -0.11      0.00
   -1  -15    5      0.24      0.00
    0  -15    5     -0.40      0.00
    1  -15    5      1.19      0.00
    2  -15    5     -0.99      0.00
    3  -15    5      0.31      0.00
    4  -15    5     -0.13      0.00
    5  -15    5      0.22      0.00
    6  -15    5     -0.36      0.00
    7  -15    5     -0.02      0.00
    8  -15    5      0.44      0.00
    9  -15    5      0.03      0.00
   10  -15    5     -0.44      0.00
   11  -15    5     -0.31      0.00
   12  -15    5      1.09      0.00
   13  -15    5     -1.02      0.00
   14  -15    5      0.45      0.00
   15  -15    5     -0.15      0.00
   -4  -14    5      0.01      0.00
   -3  -14    5      0.36      0.00
   -2  -14    5     -0.12      0.00
   -1  -14    5      0.16      0.00
    0  -14    5     -0.31      0.00
    1  -14    5      0.10      0.00
    2  -14    5      0.30      0.00
    3  -14    5     -0.39      0.00
    4  -14    5      0.96      0.00
    5  -14    5     -1.37      0.00
    6  -14    5      0.79      0.00
    7  -14    5     -0.36      0.00
    8  -14    5      0.25      0.00
    9  -14    5     -0.08      0.00
   10  -14    5     -0.21      0.00
   11  -14    5      0.24      0.00
   12  -14    5     -0.05      0.00
   13  -14    5      0.06      0.00
   14  -14    5      0.22      0.00
   15  -14    5     -0.78      0.00
   -5  -13    5      0.75      0.00
   -4  -13    5     -1.01      0.00
   -3  -13    5     -0.09      0.00
   -2  -13    5      1.14      0.00
   -1  -13    5     -0.80      0.00
    0  -13    5     -0.02      0.00
    1  -13    5      1.12      0.00
    2  -13    5     -1.19      0.00
    3  -13    5     -0.02      0.00
    4  -13    5      1.16      0.00
    5  -13    5     -1.27      0.00
    6  -13    5      0.05      0.00
    7  -13    5      0.64      0.00
    8  -13    5      0.07      0.00
    9  -13    5     -0.59      0.00
   10  -13    5      0.43      0.00
   11  -13    5     -0.34      0.00
   12  -13    5      0.14      0.00
   13  -13    5      0.40      0.00
   14  -13    5     -0.90      0.00
   15  -13    5      1.17      0.00
   16  -13    5     -0.89      0.00
   -7  -12    5     -0.29      0.00
   -6  -12    5      0.15      0.00
   -5  -12    5     -0.29      0.00
   -4  -12    5      0.40      0.00
   -3  -12    5     -0.46      0.00
   -2  -12    5      0.06      0.00
   -1  -12    5      0.43      0.00
    0  -12    5     -0.28      0.00
    1  -12    5     -0.01      0.00
    2  -12    5      0.42      0.00
    3  -12    5     -0.07      0.00
    4  -12    5     -0.60      0.00
    5  -12    5      0.52      0.00
    6  -12    5     -0.67      0.00
    7  -12    5      0.60      0.00
    8  -12    5     -0.13      0.00
    9  -12    5      0.32      0.00
   10  -12    5     -0.82      0.00
   11  -12    5      0.73      0.00
   12  -12    5     -0.66      0.00
   13  -12    5      1.11      0.00
   14  -12    5     -0.92      0.00
   15  -12    5      0.03      0.00
   16  -12    5      0.45      0.00
   -8  -11    5     -0.20      0.00
   -7  -11    5      0.33      0.00
   -6  -11    5      0.06      0.00
   -5  -11    5     -0.91      0.00
   -4  -11    5      0.85      0.00
   -3  -11    5     -0.06      0.00
   -2  -11    5     -0.14      0.00
   -1  -11    5     -0.19      0.00
    0  -11    5      0.75      0.00
    1  -11    5     -0.37      0.00
    2  -11    5     -0.49      0.00
    3  -11    5      1.01      0.00
    4  -11    5     -1.42      0.00
    5  -11    5      1.46      0.00
    6  -11    5     -1.55      0.00
    7  -11    5      1.62      0.00
    8  -11    5     -1.38      0.00
    9  -11    5      1.04      0.00
   10  -11    5     -0.05      0.00
   11  -11    5     -1.01      0.00
   12  -11    5      1.02      0.00
   13  -11    5     -0.86      0.00
   14  -11    5      1.33      0.00
   15  -11    5     -1.50      0.00
   16  -11    5      0.49      0.00
   -9  -10    5      0.33      0.00
   -8  -10    5     -0.78      0.00
   -7  -10    5      0.65      0.00
   -6  -10    5     -0.04      0.00
   -5  -10    5     -0.20      0.00
   -4  -10    5     -0.14      0.00
   -3  -10    5     -0.31      0.00
   -2  -10    5      1.15      0.00
   -1  -10    5     -1.38      0.00
    0  -10    5      1.08      0.00
    1  -10    5     -0.06      0.00
    2  -10    5      0.06      0.00
    3  -10    5     -0.70      0.00
    4  -10    5      0.29      0.00
    5  -10    5     -0.12      0.00
    6  -10    5      0.28      0.00
    7  -10    5      0.07      0.00
    8  -10    5      0.00      0.00
    9  -10    5     -0.56      0.00
   10  -10    5      0.15      0.00
   11  -10    5      0.52      0.00
   12  -10    5     -0.12      0.00
   13  -10    5     -0.34      0.00
   14  -10    5      0.35      0.00
   15  -10    5      0.16      0.00
   16  -10    5     -1.04      0.00
  -10   -9    5     -0.61      0.00
   -9   -9    5     -0.02      0.00
   -8   -9    5      0.51      0.00
   -7   -9    5     -0.62      0.00
   -6   -9    5      0.12      0.00
   -5   -9    5      0.52      0.00
   -4   -9    5     -0.36      0.00
   -3   -9    5      0.07      0.00
   -2   -9    5     -0.31      0.00
   -1   -9    5      0.69      0.00
    0   -9    5     -0.47      0.00
    1   -9    5      0.10      0.00
    2   -9    5      0.17      0.00
    3   -9    5     -0.47      0.00
    4   -9    5      0.64      0.00
    5   -9    5     -0.96      0.00
    6   -9    5      1.23      0.00
    7   -9    5     -1.54      0.00
    8   -9    5      1.81      0.00
    9   -9    5     -0.90      0.00
   10   -9    5     -0.43      0.00
   11   -9    5      0.44      0.00
   12   -9    5      0.30      0.00
   13   -9    5     -0.79      0.00
   14   -9    5      0.46      0.00
   15   -9    5      0.08      0.00
   16   -9    5      0.11      0.00
  -11   -8    5      0.35      0.00
  -10   -8    5     -0.23      0.00
   -9   -8    5      0.35      0.00
   -8   -8    5     -0.21      0.00
   -7   -8    5      0.59      0.00
   -6   -8    5     -0.90      0.00
   -5   -8    5      1.02      0.00
   -4   -8    5     -1.99      0.00
   -3   -8    5      2.74      0.00
   -2   -8    5     -2.51      0.00
   -1   -8    5      1.28      0.00
    0   -8    5      0.32      0.00
    1   -8    5     -0.34      0.00
    2   -8    5     -0.01      0.00
    3   -8    5     -0.46      0.00
    4   -8    5      0.19      0.00
    5   -8    5      0.80      0.00
    6   -8    5     -0.95      0.00
    7   -8    5      0.56      0.00
    8   -8    5     -0.42      0.00
    9   -8    5     -0.46      0.00
   10   -8    5      0.83      0.00
   11   -8    5     -0.03      0.00
   12   -8    5     -0.09      0.00
   13   -8    5      0.57      0.00
   14   -8    5     -1.79      0.00
   15   -8    5      1.93      0.00
   16   -8    5     -1.37      0.00
  -12   -7    5      0.14      0.00
  -11   -7    5     -0.52      0.00
  -10   -7    5      0.19      0.00
   -9   -7    5     -0.62      0.00
   -8   -7    5      0.89      0.00
   -7   -7    5     -0.63      0.00
   -6   -7    5      0.69      0.00
   -5   -7    5     -0.70      0.00
   -4   -7    5      1.22      0.00
   -3   -7    5     -1.97      0.00
   -2   -7    5      1.40      0.00
   -1   -7    5     -0.06      0.00
    0   -7    5     -0.35      0.00
    1   -7    5     -0.92      0.00
    2   -7    5      3.19      0.00
    3   -7    5     -3.87      0.00
    4   -7    5      2.33      0.00
    5   -7    5     -0.62      0.00
    6   -7    5     -0.34      0.00
    7   -7    5      0.70      0.00
    8   -7    5     -0.45      0.00
    9   -7    5     -0.10      0.00
   10   -7    5      0.20      0.00
   11   -7    5     -0.43      0.00
   12   -7    5      0.69      0.00
   13   -7    5     -1.00      0.00
   14   -7    5      1.57      0.00
   15   -7    5     -1.61      0.00
   16   -7    5      1.38      0.00
  -12   -6    5     -0.84      0.00
  -11   -6    5     -0.26      0.00
  -10   -6    5      0.72      0.00
   -9   -6    5      0.55      0.00
   -8   -6    5     -1.17      0.00
   -7   -6    5      1.17      0.00
   -6   -6    5     -0.39      0.00
   -5   -6    5     -1.43      0.00
   -4   -6    5      2.07      0.00
   -3   -6    5     -0.88      0.00
   -2   -6    5     -1.60      0.00
   -1   -6    5      3.44      0.00
    0   -6    5     -3.63      0.00
    1   -6    5      4.03      0.00
    2   -6    5     -4.22      0.00
    3   -6    5      3.74      0.00
    4   -6    5     -2.03      0.00
    5   -6    5     -0.48      0.00
    6   -6    5      1.57      0.00
    7   -6    5     -1.19      0.00
    8   -6    5     -0.51      0.00
    9   -6    5      1.10      0.00
   10   -6    5     -0.17      0.00
   11   -6    5      0.19      0.00
   12   -6    5     -0.16      0.00
   13   -6    5     -0.23      0.00
   14   -6    5      0.27      0.00
   15   -6    5     -0.43      0.00
   16   -6    5      0.33      0.00
  -13   -5    5      0.44      0.00
  -12   -5    5      0.60      0.00
  -11   -5    5     -1.44      0.00
  -10   -5    5      0.25      0.00
   -9   -5    5      0.56      0.00
   -8   -5    5      0.02      0.00
   -7   -5    5     -0.11      0.00
   -6   -5    5     -0.40      0.00
   -5   -5    5      1.48      0.00
   -4   -5    5     -1.68      0.00
   -3   -5    5     -1.06      0.00
   -2   -5    5      4.41      0.00
   -1   -5    5     -5.14      0.00
    0   -5    5      2.26      0.00
    1   -5    5      2.46      0.00
    2   -5    5     -4.70      0.00
    3   -5    5      4.21      0.00
    4   -5    5     -2.36      0.00
    5   -5    5      0.12      0.00
    6   -5    5      0.91      0.00
    7   -5    5     -0.84      0.00
    8   -5    5      0.22      0.00
    9   -5    5     -0.14      0.00
   10   -5    5      0.29      0.00
   11   -5    5     -0.42      0.00
   12   -5    5      0.44      0.00
   13   -5    5      0.09      0.00
   14   -5    5     -0.26      0.00
   15   -5    5      0.52      0.00
   16   -5    5     -0.18      0.00
  -14   -4    5      0.63      0.00
  -13   -4    5     -0.83      0.00
  -12   -4    5      0.51      0.00
  -11   -4    5     -0.90      0.00
  -10   -4    5      1.89      0.00
   -9   -4    5     -1.87      0.00
   -8   -4    5      1.70      0.00
   -7   -4    5     -0.77      0.00
   -6   -4    5     -0.61      0.00
   -5   -4    5      0.74      0.00
   -4   -4    5     -0.44      0.00
   -3   -4    5     -0.14      0.00
   -2   -4    5     -0.47      0.00
   -1   -4    5      0.57      0.00
    0   -4    5      2.79      0.00
    1   -4    5     -5.76      0.00
    2   -4    5      6.11      0.00
    3   -4    5     -2.33      0.00
    4   -4    5     -3.10      0.00
    5   -4    5      4.75      0.00
    6   -4    5     -4.04      0.00
    7   -4    5      2.07      0.00
    8   -4    5     -0.24      0.00
    9   -4    5     -0.33      0.00
   10   -4    5      0.43      0.00
   11   -4    5      0.25      0.00
   12   -4    5     -0.57      0.00
   13   -4    5      0.72      0.00
   14   -4    5     -0.99      0.00
   15   -4    5      0.64      0.00
  -14   -3    5     -0.19      0.00
  -13   -3    5      1.22      0.00
  -12   -3    5     -1.79      0.00
  -11   -3    5      1.44      0.00
  -10   -3    5     -1.55      0.00
   -9   -3    5      2.06      0.00
   -8   -3    5     -1.60      0.00
   -7   -3    5     -0.22      0.00
   -6   -3    5      3.00      0.00
   -5   -3    5     -3.72      0.00
   -4   -3    5     -0.08      0.00
   -3   -3    5      5.14      0.00
   -2   -3    5     -8.15      0.00
   -1   -3    5      7.22      0.00
    0   -3    5     -2.71      0.00
    1   -3    5     -0.74      0.00
    2   -3    5      1.80      0.00
    3   -3    5     -1.43      0.00
    4   -3    5      1.46      0.00
    5   -3    5     -1.82      0.00
    6   -3    5      0.36      0.00
    7   -3    5      0.55      0.00
    8   -3    5     -0.14      0.00
    9   -3    5     -0.28      0.00
   10   -3    5     -0.03      0.00
   11   -3    5      0.81      0.00
   12   -3    5     -1.17      0.00
   13   -3    5      1.51      0.00
   14   -3    5     -0.70      0.00
   15   -3    5      0.13      0.00
  -15   -2    5      0.08      0.00
  -14   -2    5     -0.29      0.00
  -13   -2    5      0.32      0.00
  -12   -2    5     -0.63      0.00
  -11   -2    5      0.85      0.00
  -10   -2    5     -0.42      0.00
   -9   -2    5      0.43      0.00
   -8   -2    5      0.02      0.00
   -7   -2    5     -0.29      0.00
   -6   -2    5     -0.58      0.00
   -5   -2    5      0.42      0.00
   -4   -2    5      1.95      0.00
   -3   -2    5     -6.75      0.00
   -2   -2    5      6.98      0.00
   -1   -2    5      0.41      0.00
    0   -2    5     -6.02      0.00
    1   -2    5      7.30      0.00
    2   -2    5     -4.14      0.00
    3   -2    5     -1.86      0.00
    4   -2    5      5.09      0.00
    5   -2    5     -5.25      0.00
    6   -2    5      2.80      0.00
    7   -2    5     -0.71      0.00
    8   -2    5      0.38      0.00
    9   -2    5     -0.29      0.00
   10   -2    5      0.73      0.00
   11   -2    5     -0.66      0.00
   12   -2    5      0.43      0.00
   13   -2    5     -0.19      0.00
   14   -2    5     -0.16      0.00
  -15   -1    5      0.30      0.00
  -14   -1    5      0.18      0.00
  -13   -1    5     -0.80      0.00
  -12   -1    5      1.39      0.00
  -11   -1    5     -1.99      0.00
  -10   -1    5      2.36      0.00
   -9   -1    5     -1.87      0.00
   -8   -1    5     -0.34      0.00
   -7   -1    5      4.16      0.00
   -6   -1    5     -7.21      0.00
   -5   -1    5      6.60      0.00
   -4   -1    5     -3.22      0.00
   -3   -1    5     -0.16      0.00
   -2   -1    5      1.68      0.00
   -1   -1    5     -3.16      0.00
    0   -1    5      6.19      0.00
    1   -1    5     -5.94      0.00
    2   -1    5      1.90      0.00
    3   -1    5      2.11      0.00
    4   -1    5     -3.34      0.00
    5   -1    5      1.54      0.00
    6   -1    5     -0.37      0.00
    7   -1    5      0.05      0.00
    8   -1    5     -0.48      0.00
    9   -1    5      1.22      0.00
   10   -1    5     -1.03      0.00
   11   -1    5      0.88      0.00
   12   -1    5     -0.70      0.00
   13   -1    5      0.96      0.00
   14   -1    5     -0.61      0.00
  -16    0    5      0.24      0.00
  -15    0    5     -0.18      0.00
  -14    0    5      0.12      0.00
  -13    0    5     -0.02      0.00
  -12    0    5     -0.33      0.00
  -11    0    5      0.77      0.00
  -10    0    5     -0.68      0.00
   -9    0    5      0.28      0.00
   -8    0    5      2.07      0.00
   -7    0    5     -5.62      0.00
   -6    0    5      6.28      0.00
   -5    0    5     -3.71      0.00
   -4    0    5     -0.50      0.00
   -3    0    5     -0.77      0.00
   -2    0    5      9.23      0.00
   -1    0    5    -15.29      0.00
    0    0    5     16.14      0.00
    1    0    5    -11.62      0.00
    2    0    5      5.22      0.00
    3    0    5     -2.39      0.00
    4    0    5      0.93      0.00
    5    0    5     -0.03      0.00
    6    0    5     -0.52      0.00
    7    0    5      0.28      0.00
    8    0    5      0.67      0.00
    9    0    5     -0.97      0.00
   10    0    5      1.41      0.00
   11    0    5     -1.37      0.00
   12    0    5      1.57      0.00
   13    0    5     -2.14      0.00
  -16    1    5      0.55      0.00
  -15    1    5     -1.03      0.00
  -14    1    5      1.23      0.00
  -13    1    5     -0.43      0.00
  -12    1    5     -0.66      0.00
  -11    1    5      1.55      0.00
  -10    1    5     -2.22      0.00
   -9    1    5      1.22      0.00
   -8    1    5      1.11      0.00
   -7    1    5     -2.62      0.00
   -6    1    5      2.27      0.00
   -5    1    5     -1.39      0.00
   -4    1    5     -0.04      0.00
   -3    1    5      4.97      0.00
   -2    1    5    -14.88      0.00
   -1    1    5     24.57      0.00
    0    1    5    -25.61      0.00
    1    1    5     18.20      0.00
    2    1    5     -8.08      0.00
    3    1    5      1.60      0.00
    4    1    5     -1.00      0.00
    5    1    5      1.76      0.00
    6    1    5     -1.75      0.00
    7    1    5      0.40      0.00
    8    1    5      0.62      0.00
    9    1    5     -0.19      0.00
   10    1    5      0.09      0.00
   11    1    5     -0.27      0.00
   12    1    5      0.95      0.00
   13    1    5     -0.80      0.00
  -17    2    5     -0.37      0.00
  -16    2    5      0.64      0.00
  -15    2    5     -0.50      0.00
  -14    2    5      0.06      0.00
  -13    2    5     -0.54      0.00
  -12    2    5      1.93      0.00
  -11    2    5     -2.76      0.00
  -10    2    5      2.28      0.00
   -9    2    5      0.45      0.00
   -8    2    5     -4.19      0.00
   -7    2    5      5.58      0.00
   -6    2    5     -3.63      0.00
   -5    2    5     -0.85      0.00
   -4    2    5      1.55      0.00
   -3    2    5      3.79      0.00
   -2    2    5     -7.55      0.00
   -1    2    5      7.26      0.00
    0    2    5     -4.12      0.00
    1    2    5      1.27      0.00
    2    2    5     -0.58      0.00
    3    2    5      0.03      0.00
    4    2    5      0.16      0.00
    5    2    5     -0.89      0.00
    6    2    5      1.33      0.00
    7    2    5     -0.51      0.00
    8    2    5     -0.55      0.00
    9    2    5      1.34      0.00
   10    2    5     -0.85      0.00
   11    2    5      0.32      0.00
   12    2    5     -0.36      0.00
  -17    3    5      1.43      0.00
  -16    3    5     -1.53      0.00
  -15    3    5      1.70      0.00
  -14    3    5     -0.57      0.00
  -13    3    5     -1.02      0.00
  -12    3    5      1.38      0.00
  -11    3    5     -0.65      0.00
  -10    3    5     -0.77      0.00
   -9    3    5      0.83      0.00
   -8    3    5      0.39      0.00
   -7    3    5     -0.34      0.00
   -6    3    5     -1.47      0.00
   -5    3    5      2.85      0.00
   -4    3    5      0.14      0.00
   -3    3    5     -9.27      0.00
   -2    3    5     19.55      0.00
   -1    3    5    -23.25      0.00
    0    3    5     18.73      0.00
    1    3    5    -10.58      0.00
    2    3    5      5.04      0.00
    3    3    5     -2.68      0.00
    4    3    5      1.08      0.00
    5    3    5     -0.88      0.00
    6    3    5      0.42      0.00
    7    3    5      0.31      0.00
    8    3    5     -0.29      0.00
    9    3    5      0.07      0.00
   10    3    5      0.13      0.00
   11    3    5      0.52      0.00
   12    3    5     -0.59      0.00
  -17    4    5     -0.17      0.00
  -16    4    5      0.05      0.00
  -15    4    5      0.22      0.00
  -14    4    5     -1.11      0.00
  -13    4    5      2.29      0.00
  -12    4    5     -3.30      0.00
  -11    4    5      3.54      0.00
  -10    4    5     -1.80      0.00
   -9    4    5     -1.12      0.00
   -8    4    5      1.90      0.00
   -7    4    5     -0.20      0.00
   -6    4    5     -1.94      0.00
   -5    4    5      2.02      0.00
   -4    4    5     -0.04      0.00
   -3    4    5     -0.63      0.00
   -2    4    5     -0.83      0.00
   -1    4    5      3.18      0.00
    0    4    5     -3.85      0.00
    1    4    5      2.60      0.00
    2    4    5     -1.77      0.00
    3    4    5      1.85      0.00
    4    4    5     -2.22      0.00
    5    4    5      1.27      0.00
    6    4    5     -0.21      0.00
    7    4    5     -0.19      0.00
    8    4    5      1.00      0.00
    9    4    5     -1.17      0.00
   10    4    5      0.67      0.00
   11    4    5     -0.40      0.00
  -18    5    5      0.25      0.00
  -17    5    5     -0.44      0.00
  -16    5    5      0.88      0.00
  -15    5    5     -0.79      0.00
  -14    5    5      0.78      0.00
  -13    5    5     -1.36      0.00
  -12    5    5      1.59      0.00
  -11    5    5     -2.33      0.00
  -10    5    5      2.32      0.00
   -9    5    5     -0.75      0.00
   -8    5    5      0.14      0.00
   -7    5    5     -1.75      0.00
   -6    5    5      4.57      0.00
   -5    5    5     -4.82      0.00
   -4    5    5      0.59      0.00
   -3    5    5      4.54      0.00
   -2    5    5     -7.32      0.00
   -1    5    5      6.74      0.00
    0    5    5     -3.63      0.00
    1    5    5      1.16      0.00
    2    5    5      0.14      0.00
    3    5    5     -0.71      0.00
    4    5    5      0.47      0.00
    5    5    5     -0.72      0.00
    6    5    5      0.48      0.00
    7    5    5     -0.23      0.00
    8    5    5      0.31      0.00
    9    5    5      0.29      0.00
   10    5    5     -0.46      0.00
  -18    6    5      0.00      0.00
  -17    6    5      0.27      0.00
  -16    6    5     -0.57      0.00
  -15    6    5      0.31      0.00
  -14    6    5      0.04      0.00
  -13    6    5     -0.27      0.00
  -12    6    5      0.50      0.00
  -11    6    5     -0.58      0.00
  -10    6    5     -0.28      0.00
   -9    6    5      1.28      0.00
   -8    6    5     -1.40      0.00
   -7    6    5      1.05      0.00
   -6    6    5     -0.64      0.00
   -5    6    5      0.71      0.00
   -4    6    5     -0.22      0.00
   -3    6    5     -1.38      0.00
   -2    6    5      1.85      0.00
   -1    6    5     -0.61      0.00
    0    6    5     -0.02      0.00
    1    6    5     -0.11      0.00
    2    6    5      0.26      0.00
    3    6    5     -0.65      0.00
    4    6    5      0.73      0.00
    5    6    5     -0.63      0.00
    6    6    5     -0.01      0.00
    7    6    5      0.54      0.00
    8    6    5     -0.17      0.00
    9    6    5     -0.08      0.00
  -18    7    5      0.72      0.00
  -17    7    5     -0.57      0.00
  -16    7    5      0.38      0.00
  -15    7    5     -0.51      0.00
  -14    7    5     -0.06      0.00
  -13    7    5      0.69      0.00
  -12    7    5     -1.59      0.00
  -11    7    5      1.24      0.00
  -10    7    5      0.36      0.00
   -9    7    5     -0.63      0.00
   -8    7    5      0.30      0.00
   -7    7    5      0.28      0.00
   -6    7    5     -0.81      0.00
   -5    7    5      0.15      0.00
   -4    7    5      0.81      0.00
   -3    7    5     -1.56      0.00
   -2    7    5      1.64      0.00
   -1    7    5     -1.54      0.00
    0    7    5      1.95      0.00
    1    7    5     -1.20      0.00
    2    7    5      0.11      0.00
    3    7    5      0.08      0.00
    4    7    5     -0.34      0.00
    5    7    5      0.17      0.00
    6    7    5      0.01      0.00
    7    7    5     -0.58      0.00
    8    7    5      1.21      0.00
  -18    8    5     -0.34      0.00
  -17    8    5      1.15      0.00
  -16    8    5     -1.56      0.00
  -15    8    5      0.71      0.00
  -14    8    5     -0.01      0.00
  -13    8    5     -0.04      0.00
  -12    8    5     -0.24      0.00
  -11    8    5      0.08      0.00
  -10    8    5      0.08      0.00
   -9    8    5     -0.05      0.00
   -8    8    5      0.90      0.00
   -7    8    5     -1.29      0.00
   -6    8    5      0.81      0.00
   -5    8    5      0.16      0.00
   -4    8    5     -1.66      0.00
   -3    8    5      1.88      0.00
   -2    8    5     -0.92      0.00
   -1    8    5      0.27      0.00
    0    8    5     -0.20      0.00
    1    8    5      0.98      0.00
    2    8    5     -1.38      0.00
    3    8    5      0.98      0.00
    4    8    5     -0.75      0.00
    5    8    5     -0.05      0.00
    6    8    5      0.60      0.00
    7    8    5     -0.19      0.00
  -18    9    5      0.73      0.00
  -17    9    5     -0.04      0.00
  -16    9    5     -0.64      0.00
  -15    9    5     -0.08      0.00
  -14    9    5      0.52      0.00
  -13    9    5     -0.99      0.00
  -12    9    5      0.98      0.00
  -11    9    5     -0.17      0.00
  -10    9    5      0.27      0.00
   -9    9    5      0.01      0.00
   -8    9    5     -0.60      0.00
   -7    9    5      0.81      0.00
   -6    9    5     -1.30      0.00
   -5    9    5      1.34      0.00
   -4    9    5     -0.88      0.00
   -3    9    5      0.28      0.00
   -2    9    5     -0.17      0.00
   -1    9    5      0.71      0.00
    0    9    5     -0.77      0.00
    1    9    5      0.42      0.00
    2    9    5      0.35      0.00
    3    9    5     -0.84      0.00
    4    9    5      0.34      0.00
    5    9    5     -0.46      0.00
    6    9    5      0.48      0.00
  -18   10    5     -0.40      0.00
  -17   10    5      0.31      0.00
  -16   10    5     -0.43      0.00
  -15   10    5      0.26      0.00
  -14   10    5     -0.45      0.00
  -13   10    5      0.57      0.00
  -12   10    5     -0.47      0.00
  -11   10    5      0.31      0.00
  -10   10    5     -0.09      0.00
   -9   10    5      0.56      0.00
   -8   10    5     -0.75      0.00
   -7   10    5      0.47      0.00
   -6   10    5      0.41      0.00
   -5   10    5     -1.66      0.00
   -4   10    5      1.77      0.00
   -3   10    5     -1.46      0.00
   -2   10    5      1.07      0.00
   -1   10    5     -0.77      0.00
    0   10    5      1.23      0.00
    1   10    5     -0.87      0.00
    2   10    5      0.01      0.00
    3   10    5      0.34      0.00
    4   10    5     -0.67      0.00
    5   10    5      0.14      0.00
  -17   11    5     -0.60      0.00
  -16   11    5     -0.53      0.00
  -15   11    5      0.84      0.00
  -14   11    5     -0.87      0.00
  -13   11    5      0.83      0.00
  -12   11    5     -0.48      0.00
  -11   11    5      1.07      0.00
  -10   11    5     -1.06      0.00
   -9   11    5      0.45      0.00
   -8   11    5     -0.05      0.00
   -7   11    5     -0.71      0.00
   -6   11    5      0.85      0.00
   -5   11    5      0.15      0.00
   -4   11    5     -0.99      0.00
   -3   11    5      0.84      0.00
   -2   11    5     -0.47      0.00
   -1   11    5      0.26      0.00
    0   11    5     -0.05      0.00
    1   11    5      0.32      0.00
    2   11    5     -0.37      0.00
    3   11    5      0.15      0.00
    4   11    5     -0.46      0.00
  -17   12    5      0.68      0.00
  -16   12    5     -0.98      0.00
  -15   12    5      0.09      0.00
  -14   12    5      0.42      0.00
  -13   12    5     -0.11      0.00
  -12   12    5      0.20      0.00
  -11   12    5     -0.47      0.00
  -10   12    5      0.44      0.00
   -9   12    5     -0.19      0.00
   -8   12    5      0.47      0.00
   -7   12    5     -0.22      0.00
   -6   12    5     -0.32      0.00
   -5   12    5      0.09      0.00
   -4   12    5     -0.08      0.00
   -3   12    5     -0.16      0.00
   -2   12    5     -0.05      0.00
   -1   12    5      0.90      0.00
    0   12    5     -0.27      0.00
    1   12    5     -0.60      0.00
    2   12    5      0.48      0.00
    3   12    5     -0.13      0.00
  -17   13    5     -0.54      0.00
  -16   13    5      0.53      0.00
  -15   13    5     -0.03      0.00
  -14   13    5     -0.81      0.00
  -13   13    5      0.79      0.00
  -12   13    5      1.14      0.00
  -11   13    5     -1.80      0.00
  -10   13    5      0.46      0.00
   -9   13    5      0.42      0.00
   -8   13    5     -0.58      0.00
   -7   13    5      0.55      0.00
   -6   13    5     -0.27      0.00
   -5   13    5      0.40      0.00
   -4   13    5     -0.46      0.00
   -3   13    5     -0.29      0.00
   -2   13    5      0.21      0.00
   -1   13    5      0.62      0.00
    0   13    5     -0.70      0.00
    1   13    5      0.53      0.00
  -15   14    5     -0.60      0.00
  -14   14    5     -0.16      0.00
  -13   14    5      0.29      0.00
  -12   14    5      0.18      0.00
  -11   14    5     -0.63      0.00
  -10   14    5      0.70      0.00
   -9   14    5     -0.14      0.00
   -8   14    5     -0.09      0.00
   -7   14    5      0.95      0.00
   -6   14    5     -2.10      0.00
   -5   14    5      1.75      0.00
   -4   14    5     -1.29      0.00
   -3   14    5      0.59      0.00
   -2   14    5      0.18      0.00
   -1   14    5      0.14      0.00
  -15   15    5     -0.74      0.00
  -14   15    5      0.69      0.00
  -13   15    5     -0.39      0.00
  -12   15    5      0.67      0.00
  -11   15    5     -1.04      0.00
  -10   15    5      0.18      0.00
   -9   15    5      1.06      0.00
   -8   15    5     -1.21      0.00
   -7   15    5      0.52      0.00
   -6   15    5      0.75      0.00
   -5   15    5     -1.34      0.00
   -4   15    5      0.56      0.00
   -3   15    5     -0.39      0.00
  -13   16    5      0.11      0.00
  -12   16    5     -0.87      0.00
  -11   16    5      1.75      0.00
  -10   16    5     -1.55      0.00
   -9   16    5      1.08      0.00
   -8   16    5      0.19      0.00
   -7   16    5     -1.42      0.00
   -6   16    5      1.18      0.00
   -5   16    5     -0.94      0.00
    4  -18    6     -0.35      0.00
    5  -18    6      0.83      0.00
    6  -18    6     -0.53      0.00
    7  -18    6     -0.57      0.00
    8  -18    6      1.33      0.00
    9  -18    6     -0.99      0.00
   10  -18    6      0.76      0.00
   11  -18    6     -0.62      0.00
    1  -17    6      0.11      0.00
    2  -17    6      0.80      0.00
    3  -17    6     -1.06      0.00
    4  -17    6      0.29      0.00
    5  -17    6      0.74      0.00
    6  -17    6     -0.79      0.00
    7  -17    6      0.54      0.00
    8  -17    6     -0.73      0.00
    9  -17    6      0.71      0.00
   10  -17    6     -0.39      0.00
   11  -17    6      0.65      0.00
   12  -17    6     -0.65      0.00
   13  -17    6      0.27      0.00
    0  -16    6      0.35      0.00
    1  -16    6      0.09      0.00
    2  -16    6     -0.51      0.00
    3  -16    6     -0.05      0.00
    4  -16    6      0.73      0.00
    5  -16    6     -0.78      0.00
    6  -16    6      0.23      0.00
    7  -16    6      0.52      0.00
    8  -16    6     -0.56      0.00
    9  -16    6      0.42      0.00
   10  -16    6     -0.32      0.00
   11  -16    6      0.33      0.00
   12  -16    6     -0.30      0.00
   13  -16    6     -0.32      0.00
   14  -16    6      0.57      0.00
   -3  -15    6      0.34      0.00
   -2  -15    6      0.05      0.00
   -1  -15    6      0.09      0.00
    0  -15    6     -1.27      0.00
    1  -15    6      1.39      0.00
    2  -15    6     -0.56      0.00
    3  -15    6     -0.09      0.00
    4  -15    6      0.51      0.00
    5  -15    6     -0.41      0.00
    6  -15    6      0.16      0.00
    7  -15    6     -0.24      0.00
    8  -15    6      0.44      0.00
    9  -15    6     -0.64      0.00
   10  -15    6      1.00      0.00
   11  -15    6     -0.85      0.00
   12  -15    6      0.43      0.00
   13  -15    6     -0.42      0.00
   14  -15    6      0.41      0.00
   15  -15    6     -0.76      0.00
   -4  -14    6     -0.75      0.00
   -3  -14    6     -0.25      0.00
   -2  -14    6      0.95      0.00
   -1  -14    6     -1.04      0.00
    0  -14    6      0.97      0.00
    1  -14    6     -0.82      0.00
    2  -14    6      0.01      0.00
    3  -14    6      0.21      0.00
    4  -14    6      0.30      0.00
    5  -14    6     -0.09      0.00
    6  -14    6     -0.24      0.00
    7  -14    6      0.42      0.00
    8  -14    6     -0.32      0.00
    9  -14    6     -0.12      0.00
   10  -14    6      0.41      0.00
   11  -14    6     -0.01      0.00
   12  -14    6     -0.93      0.00
   13  -14    6      0.84      0.00
   14  -14    6     -0.10      0.00
   15  -14    6      0.25      0.00
   -5  -13    6      0.49      0.00
   -4  -13    6      0.09      0.00
   -3  -13    6     -0.50      0.00
   -2  -13    6      0.36      0.00
   -1  -13    6     -0.30      0.00
    0  -13    6     -0.08      0.00
    1  -13    6      0.07      0.00
    2  -13    6      0.35      0.00
    3  -13    6      0.00      0.00
    4  -13    6     -0.94      0.00
    5  -13    6      1.63      0.00
    6  -13    6     -1.26      0.00
    7  -13    6      0.32      0.00
    8  -13    6      0.12      0.00
    9  -13    6     -0.11      0.00
   10  -13    6      0.07      0.00
   11  -13    6      0.28      0.00
   12  -13    6     -0.66      0.00
   13  -13    6      0.37      0.00
   14  -13    6     -0.47      0.00
   15  -13    6      0.84      0.00
   -7  -12    6      0.18      0.00
   -6  -12    6      0.53      0.00
   -5  -12    6     -0.99      0.00
   -4  -12    6      0.76      0.00
   -3  -12    6      0.11      0.00
   -2  -12    6     -0.65      0.00
   -1  -12    6      0.15      0.00
    0  -12    6      0.52      0.00
    1  -12    6     -1.24      0.00
    2  -12    6      0.79      0.00
    3  -12    6      0.82      0.00
    4  -12    6     -1.46      0.00
    5  -12    6      1.30      0.00
    6  -12    6     -0.42      0.00
    7  -12    6     -0.43      0.00
    8  -12    6      0.10      0.00
    9  -12    6      0.56      0.00
   10  -12    6     -0.43      0.00
   11  -12    6     -0.19      0.00
   12  -12    6      0.48      0.00
   13  -12    6     -0.96      0.00
   14  -12    6      1.43      0.00
   15  -12    6     -1.02      0.00
   16  -12    6      0.27      0.00
   -8  -11    6      0.42      0.00
   -7  -11    6     -0.15      0.00
   -6  -11    6      0.06      0.00
   -5  -11    6     -0.26      0.00
   -4  -11    6      0.13      0.00
   -3  -11    6     -0.24      0.00
   -2  -11    6      0.75      0.00
   -1  -11    6     -1.10      0.00
    0  -11    6      0.48      0.00
    1  -11    6      0.35      0.00
    2  -11    6     -0.46      0.00
    3  -11    6      0.34      0.00
    4  -11    6      0.05      0.00
    5  -11    6     -0.33      0.00
    6  -11    6      0.25      0.00
    7  -11    6      0.15      0.00
    8  -11    6     -0.59      0.00
    9  -11    6      0.36      0.00
   10  -11    6      0.08      0.00
   11  -11    6     -0.01      0.00
   12  -11    6     -0.01      0.00
   13  -11    6     -0.55      0.00
   14  -11    6      0.58      0.00
   15  -11    6      0.51      0.00
   16  -11    6     -0.94      0.00
   -9  -10    6      0.18      0.00
   -8  -10    6     -0.14      0.00
   -7  -10    6      0.24      0.00
   -6  -10    6     -0.67      0.00
   -5  -10    6      1.21      0.00
   -4  -10    6     -0.91      0.00
   -3  -10    6      0.31      0.00
   -2  -10    6     -0.02      0.00
   -1  -10    6     -0.24      0.00
    0  -10    6     -0.24      0.00
    1  -10    6      0.14      0.00
    2  -10    6      0.82      0.00
    3  -10    6     -1.05      0.00
    4  -10    6      1.65      0.00
    5  -10    6     -2.20      0.00
    6  -10    6      1.71      0.00
    7  -10    6     -1.35      0.00
    8  -10    6      1.48      0.00
    9  -10    6     -0.86      0.00
   10  -10    6     -0.23      0.00
   11  -10    6      0.30      0.00
   12  -10    6     -0.02      0.00
   13  -10    6     -0.05      0.00
   14  -10    6     -0.05      0.00
   15  -10    6      0.41      0.00
   16  -10    6     -0.09      0.00
  -10   -9    6      0.03      0.00
   -9   -9    6      0.24      0.00
   -8   -9    6     -0.38      0.00
   -7   -9    6      0.22      0.00
   -6   -9    6     -0.64      0.00
   -5   -9    6      0.64      0.00
   -4   -9    6     -0.72      0.00
   -3   -9    6      1.61      0.00
   -2   -9    6     -2.21      0.00
   -1   -9    6      1.70      0.00
    0   -9    6     -0.69      0.00
    1   -9    6     -0.05      0.00
    2   -9    6      0.09      0.00
    3   -9    6      0.50      0.00
    4   -9    6     -0.76      0.00
    5   -9    6      0.74      0.00
    6   -9    6     -0.63      0.00
    7   -9    6      0.43      0.00
    8   -9    6     -0.51      0.00
    9   -9    6      0.40      0.00
   10   -9    6      0.17      0.00
   11   -9    6     -0.32      0.00
   12   -9    6     -0.34      0.00
   13   -9    6      1.01      0.00
   14   -9    6     -0.88      0.00
   15   -9    6      0.31      0.00
   16   -9    6     -0.15      0.00
  -11   -8    6     -0.65      0.00
  -10   -8    6      0.21      0.00
   -9   -8    6      0.07      0.00
   -8   -8    6     -0.61      0.00
   -7   -8    6      0.56      0.00
   -6   -8    6      0.16      0.00
   -5   -8    6     -0.37      0.00
   -4   -8    6      0.40      0.00
   -3   -8    6     -0.38      0.00
   -2   -8    6      0.27      0.00
   -1   -8    6     -0.63      0.00
    0   -8    6      0.38      0.00
    1   -8    6     -0.13      0.00
    2   -8    6      0.81      0.00
    3   -8    6     -0.67      0.00
    4   -8    6     -0.03      0.00
    5   -8    6      0.05      0.00
    6   -8    6     -0.17      0.00
    7   -8    6      0.97      0.00
    8   -8    6     -0.86      0.00
    9   -8    6      0.06      0.00
   10   -8    6      0.11      0.00
   11   -8    6     -0.39      0.00
   12   -8    6      0.19      0.00
   13   -8    6      0.28      0.00
   14   -8    6      0.18      0.00
   15   -8    6     -0.28      0.00
   16   -8    6     -0.29      0.00
  -12   -7    6     -0.02      0.00
  -11   -7    6      0.25      0.00
  -10   -7    6      0.58      0.00
   -9   -7    6     -0.79      0.00
   -8   -7    6      0.03      0.00
   -7   -7    6     -0.58      0.00
   -6   -7    6      1.21      0.00
   -5   -7    6     -1.82      0.00
   -4   -7    6      2.98      0.00
   -3   -7    6     -3.09      0.00
   -2   -7    6      1.81      0.00
   -1   -7    6     -0.09      0.00
    0   -7    6     -0.93      0.00
    1   -7    6      0.68      0.00
    2   -7    6     -0.53      0.00
    3   -7    6      0.93      0.00
    4   -7    6     -0.55      0.00
    5   -7    6     -0.36      0.00
    6   -7    6      0.72      0.00
    7   -7    6     -0.30      0.00
    8   -7    6     -0.39      0.00
    9   -7    6      0.89      0.00
   10   -7    6     -0.86      0.00
   11   -7    6      0.62      0.00
   12   -7    6     -0.37      0.00
   13   -7    6     -0.31      0.00
   14   -7    6      1.05      0.00
   15   -7    6     -1.49      0.00
   16   -7    6      0.90      0.00
  -12   -6    6      0.65      0.00
  -11   -6    6     -0.65      0.00
  -10   -6    6     -0.47      0.00
   -9   -6    6      0.52      0.00
   -8   -6    6     -0.21      0.00
   -7   -6    6      0.18      0.00
   -6   -6    6     -0.31      0.00
   -5   -6    6      1.52      0.00
   -4   -6    6     -2.51      0.00
   -3   -6    6      1.93      0.00
   -2   -6    6     -0.13      0.00
   -1   -6    6     -1.56      0.00
    0   -6    6      0.76      0.00
    1   -6    6      1.97      0.00
    2   -6    6     -4.24      0.00
    3   -6    6      4.30      0.00
    4   -6    6     -2.30      0.00
    5   -6    6      0.39      0.00
    6   -6    6      0.77      0.00
    7   -6    6     -0.69      0.00
    8   -6    6      0.41      0.00
    9   -6    6     -0.57      0.00
   10   -6    6     -0.05      0.00
   11   -6    6      0.20      0.00
   12   -6    6     -0.06      0.00
   13   -6    6      0.67      0.00
   14   -6    6     -1.11      0.00
   15   -6    6      1.27      0.00
  -13   -5    6     -0.98      0.00
  -12   -5    6      0.60      0.00
  -11   -5    6      1.02      0.00
  -10   -5    6     -0.70      0.00
   -9   -5    6     -1.34      0.00
   -8   -5    6      1.86      0.00
   -7   -5    6     -1.67      0.00
   -6   -5    6      0.37      0.00
   -5   -5    6      1.78      0.00
   -4   -5    6     -1.62      0.00
   -3   -5    6     -0.57      0.00
   -2   -5    6      2.76      0.00
   -1   -5    6     -3.95      0.00
    0   -5    6      4.13      0.00
    1   -5    6     -4.43      0.00
    2   -5    6      4.03      0.00
    3   -5    6     -2.44      0.00
    4   -5    6      0.54      0.00
    5   -5    6      1.37      0.00
    6   -5    6     -1.73      0.00
    7   -5    6      0.62      0.00
    8   -5    6      0.53      0.00
    9   -5    6     -0.74      0.00
   10   -5    6      0.39      0.00
   11   -5    6     -0.29      0.00
   12   -5    6     -0.11      0.00
   13   -5    6      0.32      0.00
   14   -5    6     -0.37      0.00
   15   -5    6     -0.08      0.00
  -14   -4    6      0.54      0.00
  -13   -4    6      0.04      0.00
  -12   -4    6     -0.65      0.00
  -11   -4    6      0.64      0.00
  -10   -4    6     -1.04      0.00
   -9   -4    6      0.88      0.00
   -8   -4    6     -0.54      0.00
   -7   -4    6      0.16      0.00
   -6   -4    6      1.15      0.00
   -5   -4    6     -1.70      0.00
   -4   -4    6      0.17      0.00
   -3   -4    6      3.73      0.00
   -2   -4    6     -7.18      0.00
   -1   -4    6      6.21      0.00
    0   -4    6     -2.69      0.00
    1   -4    6     -1.00      0.00
    2   -4    6      2.73      0.00
    3   -4    6     -2.00      0.00
    4   -4    6      1.23      0.00
    5   -4    6     -0.01      0.00
    6   -4    6     -0.53      0.00
    7   -4    6      0.29      0.00
    8   -4    6     -0.31      0.00
    9   -4    6     -0.13      0.00
   10   -4    6      0.00      0.00
   11   -4    6      0.44      0.00
   12   -4    6     -0.80      0.00
   13   -4    6      0.74      0.00
   14   -4    6      0.22      0.00
   15   -4    6     -0.53      0.00
  -14   -3    6     -0.03      0.00
  -13   -3    6     -0.33      0.00
  -12   -3    6      0.34      0.00
  -11   -3    6      0.85      0.00
  -10   -3    6     -1.79      0.00
   -9   -3    6      1.30      0.00
   -8   -3    6     -0.88      0.00
   -7   -3    6     -0.01      0.00
   -6   -3    6      1.05      0.00
   -5   -3    6     -0.81      0.00
   -4   -3    6      1.05      0.00
   -3   -3    6     -2.10      0.00
   -2   -3    6      2.48      0.00
   -1   -3    6     -1.05      0.00
    0   -3    6     -2.64      0.00
    1   -3    6      4.82      0.00
    2   -3    6     -3.12      0.00
    3   -3    6     -0.96      0.00
    4   -3    6      4.42      0.00
    5   -3    6     -4.40      0.00
    6   -3    6      2.90      0.00
    7   -3    6     -1.31      0.00
    8   -3    6     -0.11      0.00
    9   -3    6      0.45      0.00
   10   -3    6     -0.27      0.00
   11   -3    6     -0.10      0.00
   12   -3    6      0.12      0.00
   13   -3    6     -0.41      0.00
   14   -3    6      0.20      0.00
  -15   -2    6     -0.11      0.00
  -14   -2    6      0.68      0.00
  -13   -2    6     -1.29      0.00
  -12   -2    6      1.45      0.00
  -11   -2    6     -1.58      0.00
  -10   -2    6      1.46      0.00
   -9   -2    6     -1.74      0.00
   -8   -2    6      1.04      0.00
   -7   -2    6      2.04      0.00
   -6   -2    6     -4.69      0.00
   -5   -2    6      4.27      0.00
   -4   -2    6      0.07      0.00
   -3   -2    6     -4.30      0.00
   -2   -2    6      4.61      0.00
   -1   -2    6     -3.64      0.00
    0   -2    6      1.51      0.00
    1   -2    6      0.27      0.00
    2   -2    6     -0.34      0.00
    3   -2    6      1.34      0.00
    4   -2    6     -1.98      0.00
    5   -2    6      1.64      0.00
    6   -2    6     -0.36      0.00
    7   -2    6     -0.56      0.00
    8   -2    6     -0.26      0.00
    9   -2    6      0.60      0.00
   10   -2    6     -0.37      0.00
   11   -2    6     -0.39      0.00
   12   -2    6      1.19      0.00
   13   -2    6     -0.80      0.00
   14   -2    6      0.24      0.00
  -15   -1    6      0.30      0.00
  -14   -1    6     -0.22      0.00
  -13   -1    6      0.10      0.00
  -12   -1    6     -0.07      0.00
  -11   -1    6      0.25      0.00
  -10   -1    6     -0.21      0.00
   -9   -1    6     -0.12      0.00
   -8   -1    6      0.01      0.00
   -7   -1    6     -0.50      0.00
   -6   -1    6      1.94      0.00
   -5   -1    6     -1.49      0.00
   -4   -1    6     -1.52      0.00
   -3   -1    6      3.73      0.00
   -2   -1    6     -1.06      0.00
   -1   -1    6     -5.75      0.00
    0   -1    6      9.67      0.00
    1   -1    6     -8.32      0.00
    2   -1    6      4.14      0.00
    3   -1    6      0.36      0.00
    4   -1    6     -2.59      0.00
    5   -1    6      2.99      0.00
    6   -1    6     -1.66      0.00
    7   -1    6      0.35      0.00
    8   -1    6     -0.42      0.00
    9   -1    6      0.33      0.00
   10   -1    6     -0.35      0.00
   11   -1    6      0.16      0.00
   12   -1    6      0.09      0.00
   13   -1    6     -0.65      0.00
  -16    0    6      0.41      0.00
  -15    0    6     -1.04      0.00
  -14    0    6      0.95      0.00
  -13    0    6     -0.16      0.00
  -12    0    6     -0.75      0.00
  -11    0    6      1.57      0.00
  -10    0    6     -2.60      0.00
   -9    0    6      1.91      0.00
   -8    0    6      1.28      0.00
   -7    0    6     -4.32      0.00
   -6    0    6      5.71      0.00
   -5    0    6     -4.23      0.00
   -4    0    6      1.73      0.00
   -3    0    6     -0.15      0.00
   -2    0    6     -3.02      0.00
   -1    0    6      6.52      0.00
    0    0    6     -8.63      0.00
    1    0    6      7.51      0.00
    2    0    6     -2.61      0.00
    3    0    6     -0.63      0.00
    4    0    6      1.11      0.00
    5    0    6     -0.36      0.00
    6    0    6     -0.17      0.00
    7    0    6     -0.19      0.00
    8    0    6      0.42      0.00
    9    0    6     -1.19      0.00
   10    0    6      1.32      0.00
   11    0    6     -0.94      0.00
   12    0    6      1.21      0.00
   13    0    6     -0.93      0.00
  -16    1    6      0.04      0.00
  -15    1    6     -0.10      0.00
  -14    1    6      0.00      0.00
  -13    1    6     -0.17      0.00
  -12    1    6      0.58      0.00
  -11    1    6     -0.43      0.00
  -10    1    6      0.19      0.00
   -9    1    6      0.43      0.00
   -8    1    6     -3.02      0.00
   -7    1    6      6.04      0.00
   -6    1    6     -5.84      0.00
   -5    1    6      2.52      0.00
   -4    1    6     -0.70      0.00
   -3    1    6      3.83      0.00
   -2    1    6     -9.59      0.00
   -1    1    6     12.38      0.00
    0    1    6    -11.04      0.00
    1    1    6      7.31      0.00
    2    1    6     -3.90      0.00
    3    1    6      2.31      0.00
    4    1    6     -0.71      0.00
    5    1    6     -0.19      0.00
    6    1    6      0.33      0.00
    7    1    6      0.01      0.00
    8    1    6     -1.02      0.00
    9    1    6      1.12      0.00
   10    1    6     -0.82      0.00
   11    1    6      0.47      0.00
   12    1    6     -0.74      0.00
  -17    2    6     -0.15      0.00
  -16    2    6     -0.77      0.00
  -15    2    6      1.56      0.00
  -14    2    6     -0.97      0.00
  -13    2    6     -0.43      0.00
  -12    2    6      1.52      0.00
  -11    2    6     -2.14      0.00
  -10    2    6      1.75      0.00
   -9    2    6     -0.30      0.00
   -8    2    6     -0.69      0.00
   -7    2    6      0.79      0.00
   -6    2    6     -0.21      0.00
   -5    2    6      0.20      0.00
   -4    2    6      0.50      0.00
   -3    2    6     -6.29      0.00
   -2    2    6     14.70      0.00
   -1    2    6    -19.70      0.00
    0    2    6     17.86      0.00
    1    2    6    -11.20      0.00
    2    2    6      5.29      0.00
    3    2    6     -2.00      0.00
    4    2    6      1.81      0.00
    5    2    6     -2.37      0.00
    6    2    6      1.62      0.00
    7    2    6     -0.73      0.00
    8    2    6     -0.09      0.00
    9    2    6      0.12      0.00
   10    2    6     -0.21      0.00
   11    2    6      1.05      0.00
   12    2    6     -1.23      0.00
  -17    3    6     -0.25      0.00
  -16    3    6     -0.48      0.00
  -15    3    6      0.68      0.00
  -14    3    6     -0.53      0.00
  -13    3    6      1.47      0.00
  -12    3    6     -2.54      0.00
  -11    3    6      2.89      0.00
  -10    3    6     -1.88      0.00
   -9    3    6     -0.61      0.00
   -8    3    6      2.75      0.00
   -7    3    6     -2.62      0.00
   -6    3    6     -0.07      0.00
   -5    3    6      2.08      0.00
   -4    3    6     -0.27      0.00
   -3    3    6     -3.06      0.00
   -2    3    6      3.88      0.00
   -1    3    6     -2.21      0.00
    0    3    6      0.28      0.00
    1    3    6      0.13      0.00
    2    3    6     -0.24      0.00
    3    3    6      1.18      0.00
    4    3    6     -1.20      0.00
    5    3    6      1.30      0.00
    6    3    6     -1.28      0.00
    7    3    6      0.03      0.00
    8    3    6      0.89      0.00
    9    3    6     -0.90      0.00
   10    3    6      0.03      0.00
   11    3    6      0.19      0.00
  -17    4    6     -1.05      0.00
  -16    4    6      1.64      0.00
  -15    4    6     -1.56      0.00
  -14    4    6      0.74      0.00
  -13    4    6      0.43      0.00
  -12    4    6     -0.77      0.00
  -11    4    6     -0.31      0.00
  -10    4    6      1.49      0.00
   -9    4    6     -0.98      0.00
   -8    4    6     -0.26      0.00
   -7    4    6      0.02      0.00
   -6    4    6      1.77      0.00
   -5    4    6     -2.72      0.00
   -4    4    6     -0.44      0.00
   -3    4    6      7.16      0.00
   -2    4    6    -12.46      0.00
   -1    4    6     12.19      0.00
    0    4    6     -8.06      0.00
    1    4    6      4.03      0.00
    2    4    6     -1.60      0.00
    3    4    6      0.95      0.00
    4    4    6     -0.45      0.00
    5    4    6     -0.07      0.00
    6    4    6      0.38      0.00
    7    4    6     -1.04      0.00
    8    4    6      0.69      0.00
    9    4    6      0.28      0.00
   10    4    6     -0.28      0.00
  -17    5    6      0.72      0.00
  -16    5    6     -0.74      0.00
  -15    5    6      0.41      0.00
  -14    5    6      0.61      0.00
  -13    5    6     -1.20      0.00
  -12    5    6      1.88      0.00
  -11    5    6     -2.22      0.00
  -10    5    6      0.83      0.00
   -9    5    6      0.76      0.00
   -8    5    6     -0.94      0.00
   -7    5    6     -0.43      0.00
   -6    5    6      1.16      0.00
   -5    5    6     -0.12      0.00
   -4    5    6     -0.39      0.00
   -3    5    6     -0.39      0.00
   -2    5    6      1.75      0.00
   -1    5    6     -2.95      0.00
    0    5    6      2.55      0.00
    1    5    6     -1.68      0.00
    2    5    6      1.31      0.00
    3    5    6     -0.74      0.00
    4    5    6      0.66      0.00
    5    5    6     -0.39      0.00
    6    5    6     -0.06      0.00
    7    5    6      0.46      0.00
    8    5    6     -1.16      0.00
    9    5    6      0.85      0.00
   10    5    6     -0.24      0.00
  -18    6    6      0.00      0.00
  -17    6    6      0.30      0.00
  -16    6    6     -0.50      0.00
  -15    6    6      0.87      0.00
  -14    6    6     -1.18      0.00
  -13    6    6      1.51      0.00
  -12    6    6     -1.87      0.00
  -11    6    6      2.17      0.00
  -10    6    6     -1.75      0.00
   -9    6    6      0.46      0.00
   -8    6    6     -0.23      0.00
   -7    6    6      1.27      0.00
   -6    6    6     -2.37      0.00
   -5    6    6      1.83      0.00
   -4    6    6      0.97      0.00
   -3    6    6     -3.10      0.00
   -2    6    6      3.21      0.00
   -1    6    6     -2.77      0.00
    0    6    6      1.50      0.00
    1    6    6      0.06      0.00
    2    6    6     -0.45      0.00
    3    6    6      0.44      0.00
    4    6    6     -0.35      0.00
    5    6    6      0.50      0.00
    6    6    6     -0.81      0.00
    7    6    6      0.65      0.00
    8    6    6     -0.21      0.00
    9    6    6     -0.28      0.00
  -18    7    6      0.15      0.00
  -17    7    6     -0.08      0.00
  -16    7    6      0.21      0.00
  -15    7    6      0.20      0.00
  -14    7    6     -0.25      0.00
  -13    7    6      0.33      0.00
  -12    7    6     -0.41      0.00
  -11    7    6     -0.24      0.00
  -10    7    6      0.47      0.00
   -9    7    6     -0.72      0.00
   -8    7    6      0.80      0.00
   -7    7    6     -0.59      0.00
   -6    7    6      0.78      0.00
   -5    7    6     -0.44      0.00
   -4    7    6     -0.38      0.00
   -3    7    6      0.94      0.00
   -2    7    6     -0.73      0.00
   -1    7    6     -0.04      0.00
    0    7    6     -0.34      0.00
    1    7    6      0.78      0.00
    2    7    6     -0.44      0.00
    3    7    6      0.69      0.00
    4    7    6     -0.77      0.00
    5    7    6      0.33      0.00
    6    7    6      0.46      0.00
    7    7    6     -0.61      0.00
    8    7    6     -0.38      0.00
  -18    8    6     -0.07      0.00
  -17    8    6      0.02      0.00
  -16    8    6      0.24      0.00
  -15    8    6      0.18      0.00
  -14    8    6     -0.18      0.00
  -13    8    6     -0.66      0.00
  -12    8    6      1.27      0.00
  -11    8    6     -0.70      0.00
  -10    8    6     -0.51      0.00
   -9    8    6      0.50      0.00
   -8    8    6     -0.37      0.00
   -7    8    6      0.57      0.00
   -6    8    6     -0.48      0.00
   -5    8    6      1.03      0.00
   -4    8    6     -1.16      0.00
   -3    8    6      0.85      0.00
   -2    8    6     -1.12      0.00
   -1    8    6      1.24      0.00
    0    8    6     -1.19      0.00
    1    8    6      0.57      0.00
    2    8    6      0.08      0.00
    3    8    6      0.29      0.00
    4    8    6     -0.05      0.00
    5    8    6     -0.55      0.00
    6    8    6      0.28      0.00
    7    8    6      0.40      0.00
  -18    9    6      0.01      0.00
  -17    9    6     -0.50      0.00
  -16    9    6      1.27      0.00
  -15    9    6     -0.74      0.00
  -14    9    6      0.24      0.00
  -13    9    6     -0.34      0.00
  -12    9    6     -0.17      0.00
  -11    9    6      0.03      0.00
  -10    9    6      0.26      0.00
   -9    9    6     -0.15      0.00
   -8    9    6     -0.19      0.00
   -7    9    6      1.00      0.00
   -6    9    6     -0.98      0.00
   -5    9    6     -0.14      0.00
   -4    9    6      1.28      0.00
   -3    9    6     -1.39      0.00
   -2    9    6      0.67      0.00
   -1    9    6     -0.48      0.00
    0    9    6      0.79      0.00
    1    9    6     -1.32      0.00
    2    9    6      1.36      0.00
    3    9    6     -0.60      0.00
    4    9    6      0.30      0.00
    5    9    6      0.18      0.00
    6    9    6     -0.53      0.00
  -17   10    6     -0.21      0.00
  -16   10    6      1.14      0.00
  -15   10    6     -0.71      0.00
  -14   10    6     -0.37      0.00
  -13   10    6      0.74      0.00
  -12   10    6     -0.58      0.00
  -11   10    6      0.33      0.00
  -10   10    6     -0.73      0.00
   -9   10    6      0.56      0.00
   -8   10    6      0.15      0.00
   -7   10    6     -0.70      0.00
   -6   10    6      1.28      0.00
   -5   10    6     -0.88      0.00
   -4   10    6      0.38      0.00
   -3   10    6     -0.09      0.00
   -2   10    6     -0.32      0.00
   -1   10    6     -0.06      0.00
    0   10    6      0.09      0.00
    1   10    6      0.06      0.00
    2   10    6      0.32      0.00
    3   10    6     -0.11      0.00
    4   10    6     -0.07      0.00
    5   10    6      0.18      0.00
  -17   11    6      0.06      0.00
  -16   11    6      0.42      0.00
  -15   11    6     -0.22      0.00
  -14   11    6     -0.44      0.00
  -13   11    6     -0.10      0.00
  -12   11    6      0.23      0.00
  -11   11    6     -0.05      0.00
  -10   11    6      0.17      0.00
   -9   11    6     -0.41      0.00
   -8   11    6      1.13      0.00
   -7   11    6     -1.07      0.00
   -6   11    6     -0.33      0.00
   -5   11    6      1.28      0.00
   -4   11    6     -0.91      0.00
   -3   11    6      0.58      0.00
   -2   11    6     -0.61      0.00
   -1   11    6      0.69      0.00
    0   11    6     -1.07      0.00
    1   11    6      0.66      0.00
    2   11    6      0.18      0.00
    3   11    6     -0.10      0.00
  -17   12    6      0.08      0.00
  -16   12    6      0.81      0.00
  -15   12    6     -0.89      0.00
  -14   12    6      0.17      0.00
  -13   12    6     -0.21      0.00
  -12   12    6      0.67      0.00
  -11   12    6     -0.82      0.00
  -10   12    6      0.30      0.00
   -9   12    6      0.07      0.00
   -8   12    6     -0.39      0.00
   -7   12    6      0.48      0.00
   -6   12    6      0.29      0.00
   -5   12    6     -0.25      0.00
   -4   12    6      0.27      0.00
   -3   12    6     -0.82      0.00
   -2   12    6      0.59      0.00
   -1   12    6     -0.35      0.00
    0   12    6     -0.22      0.00
    1   12    6      0.83      0.00
    2   12    6     -0.43      0.00
  -15   13    6     -0.39      0.00
  -14   13    6     -0.34      0.00
  -13   13    6     -0.02      0.00
  -12   13    6      0.10      0.00
  -11   13    6      0.34      0.00
  -10   13    6     -0.19      0.00
   -9   13    6      0.42      0.00
   -8   13    6     -0.97      0.00
   -7   13    6      0.77      0.00
   -6   13    6     -0.94      0.00
   -5   13    6      1.59      0.00
   -4   13    6     -0.91      0.00
   -3   13    6      0.06      0.00
   -2   13    6      0.26      0.00
   -1   13    6     -0.66      0.00
    0   13    6      0.26      0.00
  -15   14    6     -1.05      0.00
  -14   14    6      1.33      0.00
  -13   14    6     -0.60      0.00
  -12   14    6     -0.26      0.00
  -11   14    6     -0.15      0.00
  -10   14    6      0.61      0.00
   -9   14    6     -0.60      0.00
   -8   14    6      0.04      0.00
   -7   14    6      0.36      0.00
   -6   14    6      0.77      0.00
   -5   14    6     -1.12      0.00
   -4   14    6      0.38      0.00
   -3   14    6     -0.11      0.00
   -2   14    6      0.03      0.00
   -1   14    6     -0.50      0.00
  -14   15    6      0.00      0.00
  -13   15    6      0.54      0.00
  -12   15    6     -1.00      0.00
  -11   15    6      1.45      0.00
  -10   15    6     -1.30      0.00
   -9   15    6      0.50      0.00
   -8   15    6      0.06      0.00
   -7   15    6     -0.85      0.00
   -6   15    6      1.52      0.00
   -5   15    6     -0.86      0.00
   -4   15    6      0.42      0.00
  -12   16    6     -1.09      0.00
  -11   16    6      0.69      0.00
  -10   16    6      0.26      0.00
   -9   16    6     -1.13      0.00
   -8   16    6      1.23      0.00
   -7   16    6      0.19      0.00
    4  -18    7     -0.08      0.00
    5  -18    7      0.32      0.00
    6  -18    7     -0.74      0.00
    7  -18    7      0.67      0.00
    8  -18    7     -0.12      0.00
    9  -18    7     -0.91      0.00
   10  -18    7      1.27      0.00
    1  -17    7     -0.16      0.00
    2  -17    7     -0.20      0.00
    3  -17    7      0.17      0.00
    4  -17    7      0.41      0.00
    5  -17    7     -0.99      0.00
    6  -17    7      0.50      0.00
    7  -17    7      0.73      0.00
    8  -17    7     -1.08      0.00
    9  -17    7      0.38      0.00
   10  -17    7     -0.39      0.00
   11  -17    7      0.72      0.00
   12  -17    7     -0.58      0.00
    0  -16    7      0.13      0.00
    1  -16    7      0.48      0.00
    2  -16    7     -0.47      0.00
    3  -16    7      0.21      0.00
    4  -16    7     -0.08      0.00
    5  -16    7     -0.43      0.00
    6  -16    7      0.71      0.00
    7  -16    7     -0.67      0.00
    8  -16    7      0.45      0.00
    9  -16    7     -0.61      0.00
   10  -16    7      0.97      0.00
   11  -16    7     -0.85      0.00
   12  -16    7      0.84      0.00
   13  -16    7     -0.44      0.00
   -3  -15    7     -0.23      0.00
   -2  -15    7      0.71      0.00
    0  -15    7      0.78      0.00
    1  -15    7     -1.41      0.00
    2  -15    7      0.78      0.00
    3  -15    7      0.32      0.00
    4  -15    7     -0.75      0.00
    5  -15    7      0.23      0.00
    6  -15    7      0.34      0.00
    7  -15    7     -0.17      0.00
    8  -15    7     -0.35      0.00
    9  -15    7      0.13      0.00
   10  -15    7      0.04      0.00
   11  -15    7      0.51      0.00
   12  -15    7     -0.86      0.00
   13  -15    7      1.08      0.00
   14  -15    7     -0.33      0.00
   -4  -14    7      0.36      0.00
   -3  -14    7     -0.17      0.00
   -2  -14    7      0.08      0.00
   -1  -14    7     -0.45      0.00
    0  -14    7      0.81      0.00
    1  -14    7     -0.25      0.00
    2  -14    7     -0.04      0.00
    3  -14    7     -0.32      0.00
    4  -14    7     -0.13      0.00
    5  -14    7      0.45      0.00
    6  -14    7     -0.34      0.00
    7  -14    7      0.33      0.00
    8  -14    7     -0.24      0.00
    9  -14    7     -0.03      0.00
   10  -14    7      0.18      0.00
   11  -14    7      0.35      0.00
   12  -14    7     -0.32      0.00
   13  -14    7     -0.15      0.00
   14  -14    7     -0.25      0.00
   15  -14    7      0.81      0.00
   -5  -13    7     -0.12      0.00
   -4  -13    7      0.06      0.00
   -3  -13    7      0.30      0.00
   -2  -13    7     -0.46      0.00
   -1  -13    7      0.65      0.00
    0  -13    7     -0.35      0.00
    1  -13    7     -0.54      0.00
    2  -13    7      0.64      0.00
    3  -13    7      0.16      0.00
    4  -13    7     -0.84      0.00
    5  -13    7      0.56      0.00
    6  -13    7      0.02      0.00
    7  -13    7     -0.12      0.00
    8  -13    7     -0.27      0.00
    9  -13    7      0.74      0.00
   10  -13    7     -0.96      0.00
   11  -13    7      0.82      0.00
   12  -13    7      0.03      0.00
   13  -13    7     -0.09      0.00
   14  -13    7     -0.42      0.00
   15  -13    7     -0.19      0.00
   -7  -12    7     -0.91      0.00
   -6  -12    7      0.62      0.00
   -5  -12    7     -0.36      0.00
   -4  -12    7      0.16      0.00
   -3  -12    7     -0.07      0.00
   -2  -12    7      0.40      0.00
   -1  -12    7     -0.48      0.00
    0  -12    7      0.47      0.00
    1  -12    7      0.25      0.00
    2  -12    7     -1.32      0.00
    3  -12    7      0.50      0.00
    4  -12    7      0.86      0.00
    5  -12    7     -1.50      0.00
    6  -12    7      1.26      0.00
    7  -12    7     -0.03      0.00
    8  -12    7     -0.93      0.00
    9  -12    7      0.85      0.00
   10  -12    7      0.09      0.00
   11  -12    7     -0.61      0.00
   12  -12    7      0.60      0.00
   13  -12    7     -0.60      0.00
   14  -12    7      0.40      0.00
   15  -12    7     -0.20      0.00
   -8  -11    7     -0.08      0.00
   -7  -11    7      0.57      0.00
   -6  -11    7     -0.61      0.00
   -5  -11    7      0.80      0.00
   -4  -11    7     -0.75      0.00
   -3  -11    7      0.03      0.00
   -2  -11    7      0.47      0.00
   -1  -11    7     -0.09      0.00
    0  -11    7     -0.55      0.00
    1  -11    7      0.68      0.00
    2  -11    7     -0.32      0.00
    3  -11    7     -0.71      0.00
    4  -11    7      1.54      0.00
    5  -11    7     -1.48      0.00
    6  -11    7      0.66      0.00
    7  -11    7      0.10      0.00
    8  -11    7      0.02      0.00
    9  -11    7     -0.41      0.00
   10  -11    7      0.26      0.00
   11  -11    7      0.65      0.00
   12  -11    7     -1.13      0.00
   13  -11    7      0.95      0.00
   14  -11    7     -0.96      0.00
   15  -11    7      0.35      0.00
   -9  -10    7      1.02      0.00
   -8  -10    7     -0.93      0.00
   -7  -10    7      0.34      0.00
   -6  -10    7     -0.17      0.00
   -5  -10    7      0.21      0.00
   -4  -10    7     -0.62      0.00
   -3  -10    7      1.23      0.00
   -2  -10    7     -1.17      0.00
   -1  -10    7      1.14      0.00
    0  -10    7     -0.45      0.00
    1  -10    7     -0.93      0.00
    2  -10    7      0.89      0.00
    3  -10    7     -0.49      0.00
    4  -10    7      0.18      0.00
    5  -10    7      0.42      0.00
    6  -10    7     -0.15      0.00
    7  -10    7     -0.60      0.00
    8  -10    7      0.74      0.00
    9  -10    7     -0.39      0.00
   10  -10    7      0.54      0.00
   11  -10    7     -0.56      0.00
   12  -10    7      0.14      0.00
   13  -10    7     -0.04      0.00
   14  -10    7      0.07      0.00
   15  -10    7     -0.44      0.00
  -10   -9    7     -0.22      0.00
   -9   -9    7      0.43      0.00
   -8   -9    7      0.27      0.00
   -7   -9    7     -0.17      0.00
   -6   -9    7      0.25      0.00
   -5   -9    7     -0.47      0.00
   -4   -9    7     -0.05      0.00
   -3   -9    7      0.30      0.00
   -2   -9    7     -0.24      0.00
   -1   -9    7      0.21      0.00
    0   -9    7      0.07      0.00
    1   -9    7     -0.29      0.00
    2   -9    7     -0.25      0.00
    3   -9    7      1.08      0.00
    4   -9    7     -1.78      0.00
    5   -9    7      1.93      0.00
    6   -9    7     -1.41      0.00
    7   -9    7      1.02      0.00
    8   -9    7     -0.81      0.00
    9   -9    7      0.45      0.00
   10   -9    7      0.06      0.00
   11   -9    7     -0.02      0.00
   12   -9    7     -0.57      0.00
   13   -9    7      0.66      0.00
   14   -9    7     -0.51      0.00
   15   -9    7      0.64      0.00
  -11   -8    7      0.71      0.00
  -10   -8    7      0.27      0.00
   -9   -8    7     -0.88      0.00
   -8   -8    7      1.10      0.00
   -7   -8    7     -1.09      0.00
   -6   -8    7      0.73      0.00
   -5   -8    7     -1.07      0.00
   -4   -8    7      2.04      0.00
   -3   -8    7     -2.65      0.00
   -2   -8    7      2.85      0.00
   -1   -8    7     -1.76      0.00
    0   -8    7      0.11      0.00
    1   -8    7     -0.02      0.00
    2   -8    7      0.28      0.00
    3   -8    7     -0.45      0.00
    4   -8    7      1.00      0.00
    5   -8    7     -1.03      0.00
    6   -8    7      0.62      0.00
    7   -8    7     -0.57      0.00
    8   -8    7      0.40      0.00
    9   -8    7      0.44      0.00
   10   -8    7     -0.52      0.00
   11   -8    7     -0.02      0.00
   12   -8    7      0.46      0.00
   13   -8    7     -1.21      0.00
   14   -8    7      1.33      0.00
   15   -8    7     -0.83      0.00
  -12   -7    7     -0.79      0.00
  -11   -7    7      0.33      0.00
  -10   -7    7      0.22      0.00
   -9   -7    7     -0.04      0.00
   -8   -7    7      1.10      0.00
   -7   -7    7     -0.99      0.00
   -6   -7    7     -0.38      0.00
   -5   -7    7      0.82      0.00
   -4   -7    7     -1.11      0.00
   -3   -7    7      1.20      0.00
   -2   -7    7     -0.80      0.00
   -1   -7    7      0.39      0.00
    0   -7    7     -0.32      0.00
    1   -7    7      0.98      0.00
    2   -7    7     -1.70      0.00
    3   -7    7      1.42      0.00
    4   -7    7     -0.78      0.00
    5   -7    7      0.38      0.00
    6   -7    7      0.00      0.00
    7   -7    7     -0.39      0.00
    8   -7    7      0.52      0.00
    9   -7    7     -0.19      0.00
   10   -7    7     -0.16      0.00
   11   -7    7      0.38      0.00
   12   -7    7     -0.60      0.00
   13   -7    7      0.73      0.00
   14   -7    7     -0.54      0.00
   15   -7    7      0.50      0.00
  -12   -6    7      0.95      0.00
  -11   -6    7      0.82      0.00
  -10   -6    7     -0.99      0.00
   -9   -6    7      0.05      0.00
   -8   -6    7      0.54      0.00
   -7   -6    7     -0.37      0.00
   -6   -6    7     -0.89      0.00
   -5   -6    7      2.16      0.00
   -4   -6    7     -2.56      0.00
   -3   -6    7      1.97      0.00
   -2   -6    7     -0.17      0.00
   -1   -6    7     -1.46      0.00
    0   -6    7      1.65      0.00
    1   -6    7     -1.39      0.00
    2   -6    7      1.30      0.00
    3   -6    7     -1.06      0.00
    4   -6    7      0.35      0.00
    5   -6    7      0.19      0.00
    6   -6    7     -0.43      0.00
    7   -6    7      0.12      0.00
    8   -6    7      0.64      0.00
    9   -6    7     -0.56      0.00
   10   -6    7      0.55      0.00
   11   -6    7     -0.85      0.00
   12   -6    7      0.64      0.00
   13   -6    7     -0.35      0.00
   14   -6    7     -0.13      0.00
   15   -6    7      0.39      0.00
  -13   -5    7      0.14      0.00
  -12   -5    7     -1.34      0.00
  -11   -5    7      1.01      0.00
  -10   -5    7      0.48      0.00
   -9   -5    7      0.05      0.00
   -8   -5    7     -0.33      0.00
   -7   -5    7     -0.09      0.00
   -6   -5    7      0.51      0.00
   -5   -5    7     -2.14      0.00
   -4   -5    7      2.63      0.00
   -3   -5    7     -0.53      0.00
   -2   -5    7     -2.14      0.00
   -1   -5    7      2.95      0.00
    0   -5    7     -0.95      0.00
    1   -5    7     -1.93      0.00
    2   -5    7      3.68      0.00
    3   -5    7     -3.48      0.00
    4   -5    7      1.47      0.00
    5   -5    7      0.03      0.00
    6   -5    7     -0.31      0.00
    7   -5    7      0.40      0.00
    8   -5    7     -0.35      0.00
    9   -5    7      0.06      0.00
   10   -5    7      0.36      0.00
   11   -5    7     -0.23      0.00
   12   -5    7     -0.02      0.00
   13   -5    7     -0.02      0.00
   14   -5    7      0.57      0.00
   15   -5    7     -1.13      0.00
  -14   -4    7     -0.23      0.00
  -13   -4    7      0.23      0.00
  -12   -4    7      0.66      0.00
  -11   -4    7     -0.28      0.00
  -10   -4    7     -0.65      0.00
   -9   -4    7      1.65      0.00
   -8   -4    7     -2.43      0.00
   -7   -4    7      1.73      0.00
   -6   -4    7      0.17      0.00
   -5   -4    7     -1.68      0.00
   -4   -4    7      1.09      0.00
   -3   -4    7      0.99      0.00
   -2   -4    7     -2.29      0.00
   -1   -4    7      3.15      0.00
    0   -4    7     -3.83      0.00
    1   -4    7      3.66      0.00
    2   -4    7     -2.58      0.00
    3   -4    7      0.64      0.00
    4   -4    7      0.88      0.00
    5   -4    7     -1.98      0.00
    6   -4    7      1.88      0.00
    7   -4    7     -0.24      0.00
    8   -4    7     -0.45      0.00
    9   -4    7      0.51      0.00
   10   -4    7     -0.68      0.00
   11   -4    7      0.79      0.00
   12   -4    7     -0.40      0.00
   13   -4    7     -0.63      0.00
   14   -4    7      0.51      0.00
  -14   -3    7     -0.26      0.00
  -13   -3    7     -0.22      0.00
  -12   -3    7      0.50      0.00
  -11   -3    7     -0.78      0.00
  -10   -3    7      1.75      0.00
   -9   -3    7     -1.48      0.00
   -8   -3    7      0.72      0.00
   -7   -3    7      0.22      0.00
   -6   -3    7     -2.06      0.00
   -5   -3    7      1.91      0.00
   -4   -3    7      1.24      0.00
   -3   -3    7     -5.21      0.00
   -2   -3    7      7.09      0.00
   -1   -3    7     -5.12      0.00
    0   -3    7      1.74      0.00
    1   -3    7      0.64      0.00
    2   -3    7     -1.52      0.00
    3   -3    7      1.13      0.00
    4   -3    7     -0.95      0.00
    5   -3    7      0.47      0.00
    6   -3    7      0.04      0.00
    7   -3    7      0.11      0.00
    8   -3    7     -0.03      0.00
    9   -3    7      0.19      0.00
   10   -3    7     -0.18      0.00
   11   -3    7     -0.38      0.00
   12   -3    7      1.18      0.00
   13   -3    7     -0.84      0.00
   14   -3    7     -0.47      0.00
  -15   -2    7      0.03      0.00
  -14   -2    7     -0.51      0.00
  -13   -2    7      0.89      0.00
  -12   -2    7     -0.50      0.00
  -11   -2    7      0.20      0.00
  -10   -2    7      0.27      0.00
   -9   -2    7     -0.61      0.00
   -8   -2    7      0.00      0.00
   -7   -2    7      0.80      0.00
   -6   -2    7     -1.19      0.00
   -5   -2    7      1.07      0.00
   -4   -2    7     -1.71      0.00
   -3   -2    7      3.17      0.00
   -2   -2    7     -2.29      0.00
   -1   -2    7     -0.82      0.00
    0   -2    7      3.84      0.00
    1   -2    7     -4.43      0.00
    2   -2    7      1.23      0.00
    3   -2    7      2.25      0.00
    4   -2    7     -3.90      0.00
    5   -2    7      3.44      0.00
    6   -2    7     -1.79      0.00
    7   -2    7      0.93      0.00
    8   -2    7     -0.28      0.00
    9   -2    7      0.30      0.00
   10   -2    7     -0.50      0.00
   11   -2    7      0.35      0.00
   12   -2    7     -0.66      0.00
   13   -2    7      0.34      0.00
  -15   -1    7      0.01      0.00
  -14   -1    7     -0.39      0.00
  -13   -1    7      0.97      0.00
  -12   -1    7     -1.21      0.00
  -11   -1    7      1.28      0.00
  -10   -1    7     -1.28      0.00
   -9   -1    7      1.62      0.00
   -8   -1    7     -0.25      0.00
   -7   -1    7     -3.27      0.00
   -6   -1    7      5.11      0.00
   -5   -1    7     -3.52      0.00
   -4   -1    7      0.19      0.00
   -3   -1    7      1.85      0.00
   -2   -1    7     -1.26      0.00
   -1   -1    7      0.39      0.00
    0   -1    7     -0.23      0.00
    1   -1    7      0.22      0.00
    2   -1    7      0.04      0.00
    3   -1    7     -1.18      0.00
    4   -1    7      1.42      0.00
    5   -1    7     -0.84      0.00
    6   -1    7      0.16      0.00
    7   -1    7      0.49      0.00
    8   -1    7      0.22      0.00
    9   -1    7     -1.16      0.00
   10   -1    7      1.49      0.00
   11   -1    7     -0.99      0.00
   12   -1    7      0.38      0.00
  -16    0    7      0.67      0.00
  -15    0    7     -0.76      0.00
  -14    0    7      0.66      0.00
  -13    0    7     -0.75      0.00
  -12    0    7      0.82      0.00
  -11    0    7     -0.14      0.00
  -10    0    7     -0.33      0.00
   -9    0    7      0.13      0.00
   -8    0    7     -0.56      0.00
   -7    0    7      1.81      0.00
   -6    0    7     -3.04      0.00
   -5    0    7      2.43      0.00
   -4    0    7     -0.20      0.00
   -3    0    7      0.42      0.00
   -2    0    7     -4.07      0.00
   -1    0    7      8.36      0.00
    0    0    7     -9.48      0.00
    1    0    7      6.63      0.00
    2    0    7     -3.47      0.00
    3    0    7      0.69      0.00
    4    0    7      1.15      0.00
    5    0    7     -1.32      0.00
    6    0    7      0.85      0.00
    7    0    7     -0.03      0.00
    8    0    7      0.03      0.00
    9    0    7      0.06      0.00
   10    0    7     -0.52      0.00
   11    0    7      0.26      0.00
   12    0    7     -0.39      0.00
  -16    1    7     -0.64      0.00
  -15    1    7      1.44      0.00
  -14    1    7     -1.23      0.00
  -13    1    7      0.35      0.00
  -12    1    7      0.54      0.00
  -11    1    7     -1.54      0.00
  -10    1    7      2.41      0.00
   -9    1    7     -1.14      0.00
   -8    1    7     -1.72      0.00
   -7    1    7      3.25      0.00
   -6    1    7     -2.88      0.00
   -5    1    7      1.85      0.00
   -4    1    7     -0.92      0.00
   -3    1    7     -0.72      0.00
   -2    1    7      3.99      0.00
   -1    1    7     -7.29      0.00
    0    1    7      8.45      0.00
    1    1    7     -6.31      0.00
    2    1    7      2.47      0.00
    3    1    7     -0.65      0.00
    4    1    7      0.26      0.00
    5    1    7     -0.40      0.00
    6    1    7      1.00      0.00
    7    1    7     -0.73      0.00
    8    1    7     -0.01      0.00
    9    1    7      1.02      0.00
   10    1    7     -1.35      0.00
   11    1    7      1.11      0.00
   12    1    7     -0.93      0.00
  -17    2    7     -0.05      0.00
  -16    2    7     -0.44      0.00
  -15    2    7      0.43      0.00
  -14    2    7     -0.32      0.00
  -13    2    7      0.45      0.00
  -12    2    7     -0.51      0.00
  -11    2    7      0.64      0.00
  -10    2    7     -0.56      0.00
   -9    2    7     -0.69      0.00
   -8    2    7      3.10      0.00
   -7    2    7     -4.78      0.00
   -6    2    7      3.64      0.00
   -5    2    7     -1.20      0.00
   -4    2    7      1.61      0.00
   -3    2    7     -4.94      0.00
   -2    2    7      7.73      0.00
   -1    2    7     -7.76      0.00
    0    2    7      6.07      0.00
    1    2    7     -4.23      0.00
    2    2    7      1.95      0.00
    3    2    7     -0.64      0.00
    4    2    7      0.08      0.00
    5    2    7      0.55      0.00
    6    2    7     -0.03      0.00
    7    2    7     -0.69      0.00
    8    2    7      1.10      0.00
    9    2    7     -0.93      0.00
   10    2    7      0.09      0.00
   11    2    7      0.22      0.00
  -17    3    7      0.04      0.00
  -16    3    7      0.78      0.00
  -15    3    7     -1.45      0.00
  -14    3    7      0.43      0.00
  -13    3    7      1.17      0.00
  -12    3    7     -1.93      0.00
  -11    3    7      2.05      0.00
  -10    3    7     -1.17      0.00
   -9    3    7     -0.12      0.00
   -8    3    7      0.26      0.00
   -7    3    7      0.85      0.00
   -6    3    7     -1.09      0.00
   -5    3    7      0.08      0.00
   -4    3    7     -1.56      0.00
   -3    3    7      6.75      0.00
   -2    3    7    -11.62      0.00
   -1    3    7     12.66      0.00
    0    3    7     -9.73      0.00
    1    3    7      5.94      0.00
    2    3    7     -3.48      0.00
    3    3    7      1.73      0.00
    4    3    7     -1.54      0.00
    5    3    7      1.84      0.00
    6    3    7     -0.92      0.00
    7    3    7      0.30      0.00
    8    3    7     -0.33      0.00
    9    3    7      0.43      0.00
   10    3    7      0.28      0.00
   11    3    7     -1.03      0.00
  -17    4    7      0.48      0.00
  -16    4    7      0.01      0.00
  -15    4    7     -0.35      0.00
  -14    4    7      0.69      0.00
  -13    4    7     -1.81      0.00
  -12    4    7      2.98      0.00
  -11    4    7     -2.75      0.00
  -10    4    7      1.31      0.00
   -9    4    7      0.49      0.00
   -8    4    7     -1.34      0.00
   -7    4    7      0.38      0.00
   -6    4    7      1.55      0.00
   -5    4    7     -1.86      0.00
   -4    4    7     -0.36      0.00
   -3    4    7      1.55      0.00
   -2    4    7      0.27      0.00
   -1    4    7     -1.73      0.00
    0    4    7      1.51      0.00
    1    4    7     -1.30      0.00
    2    4    7      0.88      0.00
    3    4    7     -0.59      0.00
    4    4    7      0.65      0.00
    5    4    7     -0.66      0.00
    6    4    7      0.63      0.00
    7    4    7      0.29      0.00
    8    4    7     -1.10      0.00
    9    4    7      0.44      0.00
   10    4    7      0.59      0.00
  -17    5    7      0.69      0.00
  -16    5    7     -1.66      0.00
  -15    5    7      2.06      0.00
  -14    5    7     -1.53      0.00
  -13    5    7      0.47      0.00
  -12    5    7      0.07      0.00
  -11    5    7      0.91      0.00
  -10    5    7     -1.60      0.00
   -9    5    7      0.79      0.00
   -8    5    7      0.27      0.00
   -7    5    7      0.21      0.00
   -6    5    7     -1.68      0.00
   -5    5    7      1.22      0.00
   -4    5    7      1.46      0.00
   -3    5    7     -4.68      0.00
   -2    5    7      6.47      0.00
   -1    5    7     -5.19      0.00
    0    5    7      2.87      0.00
    1    5    7     -1.23      0.00
    2    5    7     -0.04      0.00
    3    5    7      0.22      0.00
    4    5    7     -0.19      0.00
    5    5    7      0.64      0.00
    6    5    7     -1.24      0.00
    7    5    7      1.58      0.00
    8    5    7     -0.66      0.00
    9    5    7     -0.18      0.00
  -18    6    7      1.09      0.00
  -17    6    7     -1.51      0.00
  -16    6    7      1.32      0.00
  -15    6    7     -0.76      0.00
  -14    6    7     -0.04      0.00
  -13    6    7      0.78      0.00
  -12    6    7     -1.27      0.00
  -11    6    7      1.36      0.00
  -10    6    7     -0.44      0.00
   -9    6    7     -0.20      0.00
   -8    6    7     -0.05      0.00
   -7    6    7      0.40      0.00
   -6    6    7     -0.23      0.00
   -5    6    7     -0.88      0.00
   -4    6    7      0.75      0.00
   -3    6    7      0.72      0.00
   -2    6    7     -1.04      0.00
   -1    6    7      1.18      0.00
    0    6    7     -1.54      0.00
    1    6    7      1.01      0.00
    2    6    7     -0.43      0.00
    3    6    7      0.05      0.00
    4    6    7      0.00      0.00
    5    6    7      0.16      0.00
    6    6    7      0.19      0.00
    7    6    7     -0.81      0.00
    8    6    7      1.08      0.00
  -18    7    7     -0.63      0.00
  -17    7    7      0.06      0.00
  -16    7    7      0.42      0.00
  -15    7    7     -0.58      0.00
  -14    7    7      0.68      0.00
  -13    7    7     -0.96      0.00
  -12    7    7      1.77      0.00
  -11    7    7     -1.59      0.00
  -10    7    7      0.71      0.00
   -9    7    7     -0.33      0.00
   -8    7    7      0.59      0.00
   -7    7    7     -1.15      0.00
   -6    7    7      0.87      0.00
   -5    7    7      0.03      0.00
   -4    7    7     -1.12      0.00
   -3    7    7      1.92      0.00
   -2    7    7     -1.89      0.00
   -1    7    7      1.72      0.00
    0    7    7     -0.81      0.00
    1    7    7     -0.47      0.00
    2    7    7      0.51      0.00
    3    7    7     -0.18      0.00
    4    7    7      0.15      0.00
    5    7    7     -0.55      0.00
    6    7    7      0.71      0.00
    7    7    7     -0.07      0.00
  -18    8    7      0.23      0.00
  -17    8    7     -0.76      0.00
  -16    8    7      0.90      0.00
  -15    8    7     -1.09      0.00
  -14    8    7      1.53      0.00
  -13    8    7     -1.47      0.00
  -12    8    7      0.71      0.00
  -11    8    7      0.47      0.00
  -10    8    7     -0.54      0.00
   -9    8    7      0.22      0.00
   -8    8    7     -0.51      0.00
   -7    8    7      0.85      0.00
   -6    8    7     -1.62      0.00
   -5    8    7      1.28      0.00
   -4    8    7     -0.12      0.00
   -3    8    7      0.05      0.00
   -2    8    7     -0.05      0.00
   -1    8    7     -0.21      0.00
    0    8    7      0.71      0.00
    1    8    7     -1.07      0.00
    2    8    7      0.71      0.00
    3    8    7     -0.90      0.00
    4    8    7      0.84      0.00
    5    8    7      0.13      0.00
    6    8    7     -0.60      0.00
  -17    9    7      0.39      0.00
  -16    9    7     -0.05      0.00
  -15    9    7     -0.38      0.00
  -14    9    7      0.50      0.00
  -13    9    7      0.63      0.00
  -12    9    7     -0.93      0.00
  -11    9    7      0.26      0.00
  -10    9    7      0.05      0.00
   -9    9    7     -0.27      0.00
   -8    9    7      0.52      0.00
   -7    9    7     -1.00      0.00
   -6    9    7      1.43      0.00
   -5    9    7     -1.51      0.00
   -4    9    7      1.06      0.00
   -3    9    7     -0.56      0.00
   -2    9    7      0.65      0.00
   -1    9    7     -0.66      0.00
    0    9    7      0.54      0.00
    1    9    7     -0.34      0.00
    2    9    7      0.25      0.00
    3    9    7     -0.58      0.00
    4    9    7     -0.03      0.00
    5    9    7      0.65      0.00
  -17   10    7     -0.33      0.00
  -16   10    7     -0.09      0.00
  -15   10    7      0.55      0.00
  -14   10    7     -0.55      0.00
  -13   10    7      0.44      0.00
  -12   10    7     -0.04      0.00
  -11   10    7      0.22      0.00
  -10   10    7     -0.55      0.00
   -9   10    7      0.34      0.00
   -8   10    7      0.39      0.00
   -7   10    7     -1.55      0.00
   -6   10    7      1.07      0.00
   -5   10    7      0.22      0.00
   -4   10    7     -0.77      0.00
   -3   10    7      0.95      0.00
   -2   10    7     -0.41      0.00
   -1   10    7      0.48      0.00
    0   10    7     -1.12      0.00
    1   10    7      1.09      0.00
    2   10    7     -1.05      0.00
    3   10    7      0.62      0.00
    4   10    7     -0.21      0.00
  -17   11    7      0.26      0.00
  -16   11    7     -0.89      0.00
  -15   11    7      1.08      0.00
  -14   11    7     -0.03      0.00
  -13   11    7     -0.06      0.00
  -12   11    7     -0.41      0.00
  -11   11    7      0.01      0.00
  -10   11    7      0.30      0.00
   -9   11    7     -0.29      0.00
   -8   11    7      0.04      0.00
   -7   11    7      0.47      0.00
   -6   11    7     -0.43      0.00
   -5   11    7     -0.23      0.00
   -4   11    7      0.22      0.00
   -3   11    7     -0.09      0.00
   -2   11    7      0.53      0.00
   -1   11    7     -0.42      0.00
    0   11    7      0.15      0.00
    1   11    7      0.23      0.00
    2   11    7     -0.95      0.00
    3   11    7      0.75      0.00
  -16   12    7     -0.17      0.00
  -14   12    7      0.58      0.00
  -13   12    7     -0.33      0.00
  -12   12    7      0.01      0.00
  -11   12    7     -0.14      0.00
  -10   12    7      0.24      0.00
   -9   12    7      0.73      0.00
   -8   12    7     -2.07      0.00
   -7   12    7      1.52      0.00
   -6   12    7     -0.73      0.00
   -5   12    7      0.32      0.00
   -4   12    7      0.31      0.00
   -3   12    7     -0.29      0.00
   -2   12    7      0.55      0.00
   -1   12    7     -0.84      0.00
    0   12    7      0.61      0.00
    1   12    7     -0.50      0.00
  -15   13    7     -0.12      0.00
  -14   13    7      0.74      0.00
  -13   13    7     -0.56      0.00
  -12   13    7     -0.06      0.00
  -11   13    7     -0.57      0.00
  -10   13    7      1.13      0.00
   -9   13    7     -0.51      0.00
   -8   13    7     -0.14      0.00
   -7   13    7      0.82      0.00
   -6   13    7     -1.12      0.00
   -5   13    7     -0.14      0.00
   -4   13    7      0.54      0.00
   -3   13    7      0.59      0.00
   -2   13    7     -0.69      0.00
   -1   13    7      0.03      0.00
  -15   14    7      0.02      0.00
  -14   14    7     -0.03      0.00
  -13   14    7      0.41      0.00
  -12   14    7     -0.41      0.00
  -11   14    7      0.45      0.00
  -10   14    7     -0.03      0.00
   -9   14    7     -0.76      0.00
   -8   14    7      0.65      0.00
   -7   14    7     -1.02      0.00
   -6   14    7      1.42      0.00
   -5   14    7     -1.11      0.00
   -4   14    7      0.70      0.00
   -3   14    7      0.13      0.00
  -13   15    7      0.48      0.00
  -12   15    7     -0.89      0.00
  -11   15    7      1.32      0.00
  -10   15    7     -0.61      0.00
   -9   15    7     -0.15      0.00
   -8   15    7      0.36      0.00
   -7   15    7      0.00      0.00
   -6   15    7     -1.09      0.00
   -5   15    7      0.91      0.00
    5  -18    8     -0.15      0.00
    6  -18    8      0.29      0.00
    7  -18    8     -0.06      0.00
    8  -18    8     -0.08      0.00
    9  -18    8     -0.09      0.00
    2  -17    8      0.06      0.00
    3  -17    8     -0.01      0.00
    4  -17    8      0.29      0.00
    5  -17    8     -0.92      0.00
    6  -17    8      1.26      0.00
    7  -17    8     -0.85      0.00
    8  -17    8      0.11      0.00
    9  -17    8      0.94      0.00
   10  -17    8     -1.32      0.00
   11  -17    8      0.65      0.00
    0  -16    8      0.55      0.00
    1  -16    8     -1.06      0.00
    2  -16    8      1.16      0.00
    3  -16    8     -0.12      0.00
    4  -16    8     -0.48      0.00
    5  -16    8      0.41      0.00
    6  -16    8     -0.12      0.00
    7  -16    8      0.04      0.00
    8  -16    8     -0.03      0.00
    9  -16    8     -0.06      0.00
   10  -16    8     -0.08      0.00
   11  -16    8     -0.24      0.00
   12  -16    8      0.21      0.00
   13  -16    8      0.35      0.00
   -2  -15    8     -0.82      0.00
    0  -15    8      0.25      0.00
    1  -15    8      0.37      0.00
    2  -15    8     -0.73      0.00
    3  -15    8     -0.03      0.00
    4  -15    8      0.63      0.00
    5  -15    8     -0.13      0.00
    6  -15    8     -0.48      0.00
    7  -15    8      0.53      0.00
    8  -15    8     -0.16      0.00
    9  -15    8      0.31      0.00
   10  -15    8     -1.05      0.00
   11  -15    8      0.93      0.00
   12  -15    8     -0.83      0.00
   13  -15    8      0.36      0.00
   14  -15    8      0.47      0.00
   -4  -14    8     -0.27      0.00
   -3  -14    8      0.41      0.00
   -2  -14    8     -0.27      0.00
   -1  -14    8      0.14      0.00
    0  -14    8     -0.54      0.00
    1  -14    8      0.33      0.00
    2  -14    8      1.00      0.00
    3  -14    8     -1.12      0.00
    4  -14    8      0.34      0.00
    5  -14    8      0.28      0.00
    6  -14    8     -0.50      0.00
    7  -14    8      0.28      0.00
    8  -14    8     -0.26      0.00
    9  -14    8      0.29      0.00
   10  -14    8     -0.39      0.00
   11  -14    8     -0.30      0.00
   12  -14    8      1.09      0.00
   13  -14    8     -0.42      0.00
   14  -14    8     -0.48      0.00
   -5  -13    8      0.24      0.00
   -4  -13    8      0.03      0.00
   -3  -13    8     -0.15      0.00
   -2  -13    8     -0.24      0.00
   -1  -13    8      0.24      0.00
    0  -13    8      0.28      0.00
    1  -13    8      0.20      0.00
    2  -13    8     -1.40      0.00
    3  -13    8      1.62      0.00
    4  -13    8     -0.49      0.00
    5  -13    8     -0.45      0.00
    6  -13    8      0.63      0.00
    7  -13    8     -0.33      0.00
    8  -13    8     -0.33      0.00
    9  -13    8      0.72      0.00
   10  -13    8     -0.71      0.00
   11  -13    8     -0.11      0.00
   12  -13    8      0.18      0.00
   13  -13    8      0.51      0.00
   14  -13    8      0.24      0.00
   -7  -12    8     -0.21      0.00
   -6  -12    8      0.58      0.00
   -5  -12    8     -0.55      0.00
   -4  -12    8      0.13      0.00
   -3  -12    8     -0.05      0.00
   -2  -12    8      0.05      0.00
   -1  -12    8     -0.30      0.00
    0  -12    8      0.06      0.00
    1  -12    8      0.90      0.00
    2  -12    8     -0.31      0.00
    3  -12    8     -0.81      0.00
    4  -12    8      1.17      0.00
    5  -12    8     -1.10      0.00
    6  -12    8      0.53      0.00
    7  -12    8     -0.28      0.00
    8  -12    8      0.35      0.00
    9  -12    8     -0.86      0.00
   10  -12    8      1.07      0.00
   11  -12    8     -0.57      0.00
   12  -12    8      0.26      0.00
   13  -12    8     -0.06      0.00
   14  -12    8      0.06      0.00
   15  -12    8     -0.02      0.00
   -8  -11    8     -1.33      0.00
   -7  -11    8      0.65      0.00
   -6  -11    8     -0.11      0.00
   -5  -11    8      0.25      0.00
   -4  -11    8     -0.04      0.00
   -3  -11    8      0.23      0.00
   -2  -11    8     -0.90      0.00
   -1  -11    8      0.99      0.00
    0  -11    8     -0.15      0.00
    1  -11    8     -0.76      0.00
    2  -11    8      1.16      0.00
    3  -11    8     -0.57      0.00
    4  -11    8     -0.45      0.00
    5  -11    8      0.95      0.00
    6  -11    8     -0.48      0.00
    7  -11    8     -0.80      0.00
    8  -11    8      1.60      0.00
    9  -11    8     -1.48      0.00
   10  -11    8      0.44      0.00
   11  -11    8      0.16      0.00
   12  -11    8      0.15      0.00
   13  -11    8      0.27      0.00
   14  -11    8     -0.35      0.00
   15  -11    8     -0.26      0.00
   -9  -10    8     -0.17      0.00
   -8  -10    8      0.81      0.00
   -7  -10    8     -0.65      0.00
   -6  -10    8      0.38      0.00
   -5  -10    8      0.01      0.00
   -4  -10    8     -0.51      0.00
   -3  -10    8      0.58      0.00
   -2  -10    8     -0.86      0.00
   -1  -10    8      0.70      0.00
    0  -10    8      0.56      0.00
    1  -10    8     -0.70      0.00
    2  -10    8      0.19      0.00
    3  -10    8      0.46      0.00
    4  -10    8     -1.58      0.00
    5  -10    8      1.72      0.00
    6  -10    8     -1.13      0.00
    7  -10    8      0.54      0.00
    8  -10    8     -0.45      0.00
    9  -10    8      0.42      0.00
   10  -10    8      0.10      0.00
   11  -10    8     -0.74      0.00
   12  -10    8      1.10      0.00
   13  -10    8     -0.46      0.00
   14  -10    8     -0.25      0.00
   15  -10    8      0.39      0.00
  -10   -9    8      0.04      0.00
   -9   -9    8     -1.52      0.00
   -8   -9    8      1.06      0.00
   -7   -9    8     -0.04      0.00
   -6   -9    8     -0.11      0.00
   -5   -9    8     -0.02      0.00
   -4   -9    8      1.14      0.00
   -3   -9    8     -1.88      0.00
   -2   -9    8      1.38      0.00
   -1   -9    8     -0.71      0.00
    0   -9    8      0.23      0.00
    1   -9    8      0.38      0.00
    2   -9    8     -0.44      0.00
    3   -9    8     -0.22      0.00
    4   -9    8      0.84      0.00
    5   -9    8     -0.97      0.00
    6   -9    8      0.46      0.00
    7   -9    8      0.11      0.00
    8   -9    8     -0.55      0.00
    9   -9    8      0.48      0.00
   10   -9    8     -0.24      0.00
   11   -9    8      0.23      0.00
   12   -9    8      0.35      0.00
   13   -9    8     -0.65      0.00
   14   -9    8      0.23      0.00
   15   -9    8     -0.13      0.00
  -11   -8    8     -0.31      0.00
  -10   -8    8      0.45      0.00
   -9   -8    8     -0.58      0.00
   -8   -8    8      0.45      0.00
   -7   -8    8      0.16      0.00
   -6   -8    8     -0.05      0.00
   -5   -8    8     -0.52      0.00
   -4   -8    8      0.40      0.00
   -3   -8    8     -0.14      0.00
   -2   -8    8     -0.15      0.00
   -1   -8    8      0.76      0.00
    0   -8    8     -0.53      0.00
    1   -8    8      0.51      0.00
    2   -8    8     -0.49      0.00
    3   -8    8     -0.64      0.00
    4   -8    8      1.31      0.00
    5   -8    8     -1.13      0.00
    6   -8    8      0.68      0.00
    7   -8    8     -0.36      0.00
    8   -8    8      0.17      0.00
    9   -8    8     -0.13      0.00
   10   -8    8     -0.08      0.00
   11   -8    8      0.40      0.00
   12   -8    8     -0.09      0.00
   13   -8    8     -0.04      0.00
   14   -8    8     -0.11      0.00
   15   -8    8     -0.21      0.00
  -12   -7    8      1.37      0.00
  -11   -7    8     -1.46      0.00
  -10   -7    8     -0.35      0.00
   -9   -7    8      0.44      0.00
   -8   -7    8     -0.45      0.00
   -7   -7    8      1.00      0.00
   -6   -7    8     -0.60      0.00
   -5   -7    8      1.28      0.00
   -4   -7    8     -2.49      0.00
   -3   -7    8      2.76      0.00
   -2   -7    8     -2.09      0.00
   -1   -7    8      0.99      0.00
    0   -7    8     -0.21      0.00
    1   -7    8     -0.01      0.00
    2   -7    8     -0.19      0.00
    3   -7    8      0.56      0.00
    4   -7    8     -0.67      0.00
    5   -7    8      0.53      0.00
    6   -7    8     -0.52      0.00
    7   -7    8      0.28      0.00
    8   -7    8      0.15      0.00
    9   -7    8     -0.65      0.00
   10   -7    8      0.88      0.00
   11   -7    8     -0.37      0.00
   12   -7    8     -0.16      0.00
   13   -7    8      0.33      0.00
   14   -7    8     -0.68      0.00
   15   -7    8      0.81      0.00
  -12   -6    8     -0.58      0.00
  -11   -6    8      0.30      0.00
  -10   -6    8     -0.27      0.00
   -9   -6    8      0.80      0.00
   -8   -6    8     -0.95      0.00
   -7   -6    8      0.54      0.00
   -6   -6    8      0.46      0.00
   -5   -6    8     -1.53      0.00
   -4   -6    8      1.93      0.00
   -3   -6    8     -1.60      0.00
   -2   -6    8      0.79      0.00
   -1   -6    8      0.21      0.00
    0   -6    8      0.29      0.00
    1   -6    8     -1.69      0.00
    2   -6    8      1.98      0.00
    3   -6    8     -1.66      0.00
    4   -6    8      1.34      0.00
    5   -6    8     -0.69      0.00
    6   -6    8      0.00      0.00
    7   -6    8      0.12      0.00
    8   -6    8     -0.11      0.00
    9   -6    8     -0.05      0.00
   10   -6    8      0.28      0.00
   11   -6    8     -0.34      0.00
   12   -6    8      0.59      0.00
   13   -6    8     -0.47      0.00
   14   -6    8      0.27      0.00
  -13   -5    8      1.55      0.00
  -12   -5    8     -0.40      0.00
  -11   -5    8     -1.65      0.00
  -10   -5    8      0.44      0.00
   -9   -5    8      0.98      0.00
   -8   -5    8     -1.11      0.00
   -7   -5    8      1.08      0.00
   -6   -5    8      0.40      0.00
   -5   -5    8     -1.69      0.00
   -4   -5    8      1.58      0.00
   -3   -5    8     -0.47      0.00
   -2   -5    8     -0.98      0.00
   -1   -5    8      1.86      0.00
    0   -5    8     -2.21      0.00
    1   -5    8      1.89      0.00
    2   -5    8     -1.22      0.00
    3   -5    8      0.82      0.00
    4   -5    8     -0.08      0.00
    5   -5    8     -0.53      0.00
    6   -5    8      0.19      0.00
    7   -5    8      0.19      0.00
    8   -5    8     -0.28      0.00
    9   -5    8      0.17      0.00
   10   -5    8     -0.12      0.00
   11   -5    8      0.30      0.00
   12   -5    8     -0.41      0.00
   13   -5    8     -0.10      0.00
   14   -5    8      0.72      0.00
  -14   -4    8     -0.56      0.00
  -13   -4    8     -0.42      0.00
  -12   -4    8      0.80      0.00
  -11   -4    8     -0.79      0.00
  -10   -4    8      0.44      0.00
   -9   -4    8     -0.05      0.00
   -8   -4    8      0.16      0.00
   -7   -4    8      0.06      0.00
   -6   -4    8     -1.28      0.00
   -5   -4    8      2.50      0.00
   -4   -4    8     -1.54      0.00
   -3   -4    8     -1.50      0.00
   -2   -4    8      3.86      0.00
   -1   -4    8     -3.43      0.00
    0   -4    8      1.00      0.00
    1   -4    8      1.51      0.00
    2   -4    8     -2.86      0.00
    3   -4    8      2.45      0.00
    4   -4    8     -0.68      0.00
    5   -4    8     -0.24      0.00
    6   -4    8     -0.28      0.00
    7   -4    8      0.20      0.00
    8   -4    8     -0.11      0.00
    9   -4    8      0.74      0.00
   10   -4    8     -1.19      0.00
   11   -4    8      0.84      0.00
   12   -4    8      0.16      0.00
   13   -4    8      0.03      0.00
   14   -4    8     -0.98      0.00
  -14   -3    8     -0.30      0.00
  -13   -3    8      0.52      0.00
  -12   -3    8     -0.66      0.00
  -11   -3    8     -0.66      0.00
  -10   -3    8      1.21      0.00
   -9   -3    8     -1.55      0.00
   -8   -3    8      2.01      0.00
   -7   -3    8     -0.55      0.00
   -6   -3    8     -1.19      0.00
   -5   -3    8      1.75      0.00
   -4   -3    8     -0.96      0.00
   -3   -3    8     -0.30      0.00
   -2   -3    8      1.18      0.00
   -1   -3    8     -2.45      0.00
    0   -3    8      3.24      0.00
    1   -3    8     -2.54      0.00
    2   -3    8      1.05      0.00
    3   -3    8      0.83      0.00
    4   -3    8     -1.93      0.00
    5   -3    8      1.93      0.00
    6   -3    8     -1.24      0.00
    7   -3    8     -0.12      0.00
    8   -3    8      0.48      0.00
    9   -3    8     -0.19      0.00
   10   -3    8      0.72      0.00
   11   -3    8     -1.33      0.00
   12   -3    8      0.57      0.00
   13   -3    8      0.77      0.00
  -15   -2    8     -0.53      0.00
  -14   -2    8      0.37      0.00
  -13   -2    8      0.05      0.00
  -12   -2    8     -0.73      0.00
  -11   -2    8      0.86      0.00
  -10   -2    8     -0.94      0.00
   -9   -2    8      1.28      0.00
   -8   -2    8     -0.80      0.00
   -7   -2    8     -0.89      0.00
   -6   -2    8      2.52      0.00
   -5   -2    8     -1.62      0.00
   -4   -2    8     -1.83      0.00
   -3   -2    8      4.83      0.00
   -2   -2    8     -4.97      0.00
   -1   -2    8      2.42      0.00
    0   -2    8      0.23      0.00
    1   -2    8     -1.09      0.00
    2   -2    8      1.12      0.00
    3   -2    8     -0.63      0.00
    4   -2    8      0.16      0.00
    5   -2    8     -0.14      0.00
    6   -2    8     -0.16      0.00
    7   -2    8      0.08      0.00
    8   -2    8     -0.06      0.00
    9   -2    8     -0.07      0.00
   10   -2    8      0.46      0.00
   11   -2    8      0.17      0.00
   12   -2    8     -0.58      0.00
   13   -2    8      0.15      0.00
  -15   -1    8     -0.47      0.00
  -14   -1    8      0.58      0.00
  -13   -1    8     -0.78      0.00
  -12   -1    8      0.65      0.00
  -11   -1    8     -0.70      0.00
  -10   -1    8      0.04      0.00
   -9   -1    8      0.41      0.00
   -8   -1    8      0.38      0.00
   -7   -1    8     -0.64      0.00
   -6   -1    8      0.44      0.00
   -5   -1    8     -0.56      0.00
   -4   -1    8      1.25      0.00
   -3   -1    8     -1.62      0.00
   -2   -1    8     -0.16      0.00
   -1   -1    8      3.03      0.00
    0   -1    8     -4.48      0.00
    1   -1    8      3.19      0.00
    2   -1    8      0.08      0.00
    3   -1    8     -2.19      0.00
    4   -1    8      2.68      0.00
    5   -1    8     -2.41      0.00
    6   -1    8      1.30      0.00
    7   -1    8     -0.86      0.00
    8   -1    8      0.92      0.00
    9   -1    8     -0.91      0.00
   10   -1    8      0.86      0.00
   11   -1    8     -0.86      0.00
  -16    0    8     -0.01      0.00
  -15    0    8      0.17      0.00
  -14    0    8      0.26      0.00
  -13    0    8     -0.70      0.00
  -12    0    8      0.57      0.00
  -11    0    8     -0.94      0.00
  -10    0    8      1.68      0.00
   -9    0    8     -1.37      0.00
   -8    0    8     -0.62      0.00
   -7    0    8      3.29      0.00
   -6    0    8     -4.08      0.00
   -5    0    8      2.39      0.00
   -4    0    8     -0.35      0.00
   -3    0    8     -0.21      0.00
   -2    0    8     -0.38      0.00
   -1    0    8      0.24      0.00
    0    0    8      0.48      0.00
    1    0    8     -0.17      0.00
    2    0    8     -0.21      0.00
    3    0    8      0.51      0.00
    4    0    8     -0.81      0.00
    5    0    8      0.27      0.00
    6    0    8      0.19      0.00
    7    0    8     -0.52      0.00
    8    0    8     -0.12      0.00
    9    0    8      1.77      0.00
   10    0    8     -2.25      0.00
   11    0    8      1.68      0.00
  -16    1    8     -0.69      0.00
  -15    1    8      0.72      0.00
  -14    1    8     -0.91      0.00
  -13    1    8      0.75      0.00
  -12    1    8     -0.40      0.00
  -11    1    8     -0.24      0.00
  -10    1    8      0.25      0.00
   -9    1    8      0.00      0.00
   -8    1    8      1.09      0.00
   -7    1    8     -2.61      0.00
   -6    1    8      3.05      0.00
   -5    1    8     -2.15      0.00
   -4    1    8      1.57      0.00
   -3    1    8     -3.16      0.00
   -2    1    8      6.13      0.00
   -1    1    8     -8.03      0.00
    0    1    8      6.93      0.00
    1    1    8     -4.09      0.00
    2    1    8      2.23      0.00
    3    1    8     -0.69      0.00
    4    1    8     -0.42      0.00
    5    1    8      0.06      0.00
    6    1    8      0.44      0.00
    7    1    8     -0.80      0.00
    8    1    8      0.81      0.00
    9    1    8     -0.69      0.00
   10    1    8      0.65      0.00
   11    1    8     -0.30      0.00
  -17    2    8      0.49      0.00
  -16    2    8      0.52      0.00
  -15    2    8     -0.95      0.00
  -14    2    8      0.59      0.00
  -13    2    8      0.13      0.00
  -12    2    8     -1.24      0.00
  -11    2    8      1.93      0.00
  -10    2    8     -1.62      0.00
   -9    2    8      0.23      0.00
   -8    2    8      1.13      0.00
   -7    2    8     -1.05      0.00
   -6    2    8      0.35      0.00
   -5    2    8     -0.12      0.00
   -4    2    8     -0.14      0.00
   -3    2    8      1.68      0.00
   -2    2    8     -4.47      0.00
   -1    2    8      6.14      0.00
    0    2    8     -5.87      0.00
    1    2    8      4.86      0.00
    2    2    8     -2.80      0.00
    3    2    8      1.08      0.00
    4    2    8     -1.03      0.00
    5    2    8      1.04      0.00
    6    2    8     -1.10      0.00
    7    2    8      0.94      0.00
    8    2    8      0.06      0.00
    9    2    8     -0.88      0.00
   10    2    8      1.06      0.00
   11    2    8     -0.92      0.00
  -17    3    8      0.35      0.00
  -16    3    8      0.67      0.00
  -15    3    8     -0.95      0.00
  -14    3    8      0.65      0.00
  -13    3    8     -1.09      0.00
  -12    3    8      1.44      0.00
  -11    3    8     -1.48      0.00
  -10    3    8      1.23      0.00
   -9    3    8      0.39      0.00
   -8    3    8     -2.60      0.00
   -7    3    8      2.75      0.00
   -6    3    8     -0.67      0.00
   -5    3    8      0.05      0.00
   -4    3    8     -1.91      0.00
   -3    3    8      3.67      0.00
   -2    3    8     -3.95      0.00
   -1    3    8      3.02      0.00
    0    3    8     -2.19      0.00
    1    3    8      1.56      0.00
    2    3    8     -0.44      0.00
    3    3    8      0.16      0.00
    4    3    8     -0.34      0.00
    5    3    8     -0.01      0.00
    6    3    8     -0.45      0.00
    7    3    8      1.17      0.00
    8    3    8     -1.09      0.00
    9    3    8      0.45      0.00
   10    3    8     -0.06      0.00
  -17    4    8      0.07      0.00
  -16    4    8     -0.98      0.00
  -15    4    8      1.69      0.00
  -14    4    8     -0.73      0.00
  -13    4    8     -1.02      0.00
  -12    4    8      1.52      0.00
  -11    4    8     -1.31      0.00
  -10    4    8      0.65      0.00
   -9    4    8      0.09      0.00
   -8    4    8      0.34      0.00
   -7    4    8     -1.25      0.00
   -6    4    8      1.18      0.00
   -5    4    8     -0.34      0.00
   -4    4    8      1.99      0.00
   -3    4    8     -5.98      0.00
   -2    4    8      7.36      0.00
   -1    4    8     -6.19      0.00
    0    4    8      5.18      0.00
    1    4    8     -3.47      0.00
    2    4    8      1.72      0.00
    3    4    8     -1.29      0.00
    4    4    8      1.29      0.00
    5    4    8     -0.83      0.00
    6    4    8      0.02      0.00
    7    4    8      0.01      0.00
    8    4    8      0.75      0.00
    9    4    8     -0.92      0.00
  -17    5    8     -0.49      0.00
  -16    5    8      0.30      0.00
  -15    5    8     -0.59      0.00
  -14    5    8     -0.01      0.00
  -13    5    8      1.42      0.00
  -12    5    8     -2.63      0.00
  -11    5    8      2.53      0.00
  -10    5    8     -1.09      0.00
   -9    5    8     -0.29      0.00
   -8    5    8      0.40      0.00
   -7    5    8      0.59      0.00
   -6    5    8     -0.98      0.00
   -5    5    8      0.39      0.00
   -4    5    8      0.40      0.00
   -3    5    8     -0.16      0.00
   -2    5    8     -1.37      0.00
   -1    5    8      1.75      0.00
    0    5    8     -1.17      0.00
    1    5    8      1.27      0.00
    2    5    8     -0.84      0.00
    3    5    8      0.12      0.00
    4    5    8     -0.24      0.00
    5    5    8      0.80      0.00
    6    5    8     -0.78      0.00
    7    5    8     -0.26      0.00
    8    5    8      0.64      0.00
  -17    6    8     -0.08      0.00
  -16    6    8      1.34      0.00
  -15    6    8     -2.09      0.00
  -14    6    8      1.38      0.00
  -13    6    8     -0.59      0.00
  -12    6    8      0.44      0.00
  -11    6    8     -1.07      0.00
  -10    6    8      1.13      0.00
   -9    6    8     -0.41      0.00
   -8    6    8      0.27      0.00
   -7    6    8     -0.50      0.00
   -6    6    8      0.91      0.00
   -5    6    8     -0.06      0.00
   -4    6    8     -2.03      0.00
   -3    6    8      2.85      0.00
   -2    6    8     -3.10      0.00
   -1    6    8      2.84      0.00
    0    6    8     -1.22      0.00
    1    6    8     -0.16      0.00
    2    6    8      0.81      0.00
    3    6    8     -1.02      0.00
    4    6    8      1.08      0.00
    5    6    8     -1.31      0.00
    6    6    8      1.44      0.00
    7    6    8     -1.20      0.00
  -17    7    8      0.85      0.00
  -16    7    8     -0.95      0.00
  -15    7    8      0.24      0.00
  -14    7    8      0.73      0.00
  -13    7    8     -1.54      0.00
  -12    7    8      1.40      0.00
  -11    7    8     -0.44      0.00
  -10    7    8     -0.13      0.00
   -9    7    8      0.09      0.00
   -8    7    8      0.11      0.00
   -7    7    8      0.12      0.00
   -6    7    8     -0.53      0.00
   -5    7    8      0.96      0.00
   -4    7    8     -1.00      0.00
   -3    7    8      0.49      0.00
   -2    7    8     -0.42      0.00
   -1    7    8     -0.09      0.00
    0    7    8      0.93      0.00
    1    7    8     -0.67      0.00
    2    7    8      0.16      0.00
    3    7    8      0.03      0.00
    4    7    8      0.09      0.00
    5    7    8      0.09      0.00
    6    7    8     -0.70      0.00
  -17    8    8      0.12      0.00
  -16    8    8     -0.69      0.00
  -15    8    8      0.20      0.00
  -14    8    8     -0.13      0.00
  -13    8    8      0.77      0.00
  -12    8    8     -1.35      0.00
  -11    8    8      0.65      0.00
  -10    8    8      0.09      0.00
   -9    8    8      0.36      0.00
   -8    8    8     -0.48      0.00
   -7    8    8      0.48      0.00
   -6    8    8      0.00      0.00
   -5    8    8     -0.69      0.00
   -4    8    8      0.56      0.00
   -3    8    8     -1.00      0.00
   -2    8    8      1.42      0.00
   -1    8    8     -1.12      0.00
    0    8    8      0.60      0.00
    1    8    8      0.12      0.00
    2    8    8     -0.11      0.00
    3    8    8      0.11      0.00
    4    8    8     -0.57      0.00
    5    8    8      0.52      0.00
  -17    9    8      0.39      0.00
  -16    9    8     -0.87      0.00
  -15    9    8      1.02      0.00
  -14    9    8     -1.62      0.00
  -13    9    8      1.48      0.00
  -12    9    8     -0.25      0.00
  -11    9    8     -0.35      0.00
  -10    9    8      0.16      0.00
   -9    9    8      0.08      0.00
   -8    9    8      0.36      0.00
   -7    9    8     -1.30      0.00
   -6    9    8      1.86      0.00
   -5    9    8     -1.23      0.00
   -4    9    8      0.21      0.00
   -3    9    8      0.03      0.00
   -2    9    8     -0.28      0.00
   -1    9    8      0.51      0.00
    0    9    8     -0.68      0.00
    1    9    8      0.97      0.00
    2    9    8     -0.97      0.00
    3    9    8      1.23      0.00
    4    9    8     -0.79      0.00
  -17   10    8     -0.10      0.00
  -16   10    8     -0.71      0.00
  -15   10    8      0.93      0.00
  -14   10    8     -0.79      0.00
  -13   10    8      0.23      0.00
  -12   10    8     -0.11      0.00
  -11   10    8      0.20      0.00
  -10   10    8     -0.06      0.00
   -9   10    8      0.32      0.00
   -8   10    8     -0.44      0.00
   -7   10    8      1.00      0.00
   -6   10    8     -1.11      0.00
   -5   10    8      0.20      0.00
   -4   10    8     -0.04      0.00
   -3   10    8     -0.01      0.00
   -2   10    8     -0.06      0.00
   -1   10    8      0.24      0.00
    0   10    8      0.08      0.00
    1   10    8      0.23      0.00
    2   10    8     -0.61      0.00
    3   10    8      0.60      0.00
  -16   11    8     -0.57      0.00
  -15   11    8     -0.45      0.00
  -14   11    8      0.94      0.00
  -13   11    8     -0.71      0.00
  -12   11    8      0.88      0.00
  -11   11    8     -0.87      0.00
  -10   11    8      0.66      0.00
   -9   11    8     -0.11      0.00
   -8   11    8     -1.25      0.00
   -7   11    8      2.02      0.00
   -6   11    8     -1.03      0.00
   -5   11    8      0.16      0.00
   -4   11    8     -0.09      0.00
   -3   11    8     -0.17      0.00
   -2   11    8      0.19      0.00
   -1   11    8     -0.49      0.00
    0   11    8      0.93      0.00
    1   11    8     -0.73      0.00
    2   11    8      0.78      0.00
  -14   12    8      0.44      0.00
  -13   12    8     -0.55      0.00
  -12   12    8      0.82      0.00
  -11   12    8     -0.67      0.00
  -10   12    8      0.22      0.00
   -9   12    8      0.45      0.00
   -8   12    8     -0.34      0.00
   -7   12    8      0.72      0.00
   -6   12    8     -1.30      0.00
   -5   12    8      0.48      0.00
   -4   12    8      0.03      0.00
   -3   12    8      0.01      0.00
   -2   12    8     -0.26      0.00
   -1   12    8      0.56      0.00
    0   12    8     -0.07      0.00
  -15   13    8     -0.02      0.00
  -14   13    8     -0.13      0.00
  -13   13    8      0.15      0.00
  -12   13    8      0.30      0.00
  -11   13    8     -0.11      0.00
  -10   13    8     -0.15      0.00
   -9   13    8     -1.09      0.00
   -8   13    8      2.01      0.00
   -7   13    8     -1.28      0.00
   -6   13    8      1.08      0.00
   -5   13    8     -0.90      0.00
   -4   13    8     -0.22      0.00
   -3   13    8      0.48      0.00
   -2   13    8     -0.36      0.00
  -14   14    8     -0.96      0.00
  -13   14    8      0.76      0.00
  -12   14    8     -1.08      0.00
  -11   14    8      1.69      0.00
  -10   14    8     -1.22      0.00
   -9   14    8      0.58      0.00
   -8   14    8      0.50      0.00
   -7   14    8     -1.04      0.00
   -6   14    8      0.00      0.00
   -5   14    8      0.69      0.00
   -4   14    8     -0.49      0.00
  -11   15    8     -0.92      0.00
  -10   15    8      0.16      0.00
   -9   15    8      0.64      0.00
   -8   15    8     -0.35      0.00
   -7   15    8      0.51      0.00
    2  -17    9      0.34      0.00
    3  -17    9     -0.05      0.00
    4  -17    9     -0.34      0.00
    5  -17    9      0.69      0.00
    6  -17    9     -0.75      0.00
    7  -17    9      0.10      0.00
    8  -17    9      0.09      0.00
    9  -17    9      0.46      0.00
   10  -17    9     -0.46      0.00
   11  -17    9      0.59      0.00
    0  -16    9      0.29      0.00
    1  -16    9     -0.46      0.00
    2  -16    9     -0.02      0.00
    3  -16    9     -0.20      0.00
    4  -16    9      0.34      0.00
    5  -16    9      0.42      0.00
    6  -16    9     -0.90      0.00
    7  -16    9      0.36      0.00
    8  -16    9      0.36      0.00
    9  -16    9     -0.06      0.00
   10  -16    9      0.08      0.00
   11  -16    9     -0.34      0.00
   12  -16    9      0.17      0.00
    0  -15    9     -1.04      0.00
    1  -15    9      1.41      0.00
    2  -15    9     -0.48      0.00
    3  -15    9     -0.28      0.00
    4  -15    9     -0.08      0.00
    5  -15    9      0.29      0.00
    6  -15    9      0.01      0.00
    7  -15    9     -0.34      0.00
    8  -15    9      0.28      0.00
    9  -15    9      0.27      0.00
   10  -15    9      0.09      0.00
   11  -15    9     -0.27      0.00
   12  -15    9      0.27      0.00
   13  -15    9     -0.74      0.00
   -4  -14    9      1.20      0.00
   -3  -14    9     -1.23      0.00
   -2  -14    9      0.92      0.00
   -1  -14    9     -0.42      0.00
    0  -14    9      0.62      0.00
    1  -14    9     -1.50      0.00
    2  -14    9      0.60      0.00
    3  -14    9      0.87      0.00
    4  -14    9     -0.75      0.00
    5  -14    9     -0.15      0.00
    6  -14    9      0.60      0.00
    7  -14    9     -0.20      0.00
    8  -14    9      0.09      0.00
    9  -14    9      0.02      0.00
   10  -14    9      0.06      0.00
   11  -14    9     -0.56      0.00
   12  -14    9      0.29      0.00
   13  -14    9      0.12      0.00
   -5  -13    9     -0.82      0.00
   -4  -13    9      0.59      0.00
   -3  -13    9      0.27      0.00
   -2  -13    9     -0.37      0.00
   -1  -13    9     -0.16      0.00
    0  -13    9     -0.23      0.00
    1  -13    9      1.46      0.00
    2  -13    9     -1.83      0.00
    3  -13    9      0.85      0.00
    4  -13    9      0.12      0.00
    5  -13    9     -0.60      0.00
    6  -13    9      0.82      0.00
    7  -13    9     -0.76      0.00
    8  -13    9      0.95      0.00
    9  -13    9     -0.71      0.00
   10  -13    9      0.55      0.00
   11  -13    9     -0.33      0.00
   12  -13    9     -0.15      0.00
   13  -13    9     -0.74      0.00
   14  -13    9      0.86      0.00
   -7  -12    9     -0.31      0.00
   -6  -12    9      0.78      0.00
   -5  -12    9     -0.67      0.00
   -4  -12    9      0.48      0.00
   -3  -12    9     -0.19      0.00
   -2  -12    9      0.00      0.00
   -1  -12    9      0.24      0.00
    0  -12    9     -0.55      0.00
    1  -12    9     -0.82      0.00
    2  -12    9      2.11      0.00
    3  -12    9     -1.58      0.00
    4  -12    9      0.63      0.00
    5  -12    9      0.18      0.00
    6  -12    9     -0.20      0.00
    7  -12    9     -0.16      0.00
    8  -12    9      0.89      0.00
    9  -12    9     -1.31      0.00
   10  -12    9      0.60      0.00
   11  -12    9     -0.17      0.00
   12  -12    9      0.04      0.00
   13  -12    9      0.28      0.00
   14  -12    9     -0.69      0.00
   -8  -11    9      0.12      0.00
   -7  -11    9      0.41      0.00
   -6  -11    9     -1.30      0.00
   -5  -11    9      0.73      0.00
   -4  -11    9     -0.32      0.00
   -3  -11    9      0.71      0.00
   -2  -11    9     -0.79      0.00
   -1  -11    9      0.36      0.00
    0  -11    9      0.16      0.00
    1  -11    9     -0.46      0.00
    2  -11    9      0.14      0.00
    3  -11    9      0.51      0.00
    4  -11    9     -0.93      0.00
    5  -11    9      1.08      0.00
    6  -11    9     -0.78      0.00
    7  -11    9      0.49      0.00
    8  -11    9     -0.09      0.00
    9  -11    9      0.22      0.00
   10  -11    9     -0.34      0.00
   11  -11    9     -0.51      0.00
   12  -11    9      0.44      0.00
   13  -11    9     -0.20      0.00
   14  -11    9      0.45      0.00
   -9  -10    9     -1.40      0.00
   -8  -10    9      1.02      0.00
   -7  -10    9     -0.39      0.00
   -6  -10    9     -0.17      0.00
   -5  -10    9      0.52      0.00
   -4  -10    9     -0.19      0.00
   -3  -10    9     -0.12      0.00
   -2  -10    9      0.16      0.00
   -1  -10    9     -0.55      0.00
    0  -10    9     -0.06      0.00
    1  -10    9      0.64      0.00
    2  -10    9     -0.20      0.00
    3  -10    9      0.01      0.00
    4  -10    9      0.46      0.00
    5  -10    9     -0.52      0.00
    6  -10    9      0.07      0.00
    7  -10    9      0.71      0.00
    8  -10    9     -1.51      0.00
    9  -10    9      1.29      0.00
   10  -10    9     -0.73      0.00
   11  -10    9      0.30      0.00
   12  -10    9     -0.13      0.00
   13  -10    9     -0.20      0.00
   14  -10    9      0.52      0.00
  -10   -9    9      0.82      0.00
   -9   -9    9      0.21      0.00
   -8   -9    9     -0.97      0.00
   -7   -9    9      0.43      0.00
   -6   -9    9     -0.22      0.00
   -5   -9    9     -0.74      0.00
   -4   -9    9      1.42      0.00
   -3   -9    9     -1.01      0.00
   -2   -9    9      0.65      0.00
   -1   -9    9     -0.32      0.00
    0   -9    9     -0.40      0.00
    1   -9    9      0.73      0.00
    2   -9    9     -0.12      0.00
    3   -9    9     -0.70      0.00
    4   -9    9      1.36      0.00
    5   -9    9     -1.54      0.00
    6   -9    9      1.19      0.00
    7   -9    9     -0.36      0.00
    8   -9    9      0.10      0.00
    9   -9    9     -0.21      0.00
   10   -9    9     -0.62      0.00
   11   -9    9      0.86      0.00
   12   -9    9     -0.39      0.00
   13   -9    9      0.06      0.00
   14   -9    9      0.37      0.00
  -11   -8    9     -0.75      0.00
  -10   -8    9      0.27      0.00
   -9   -8    9      0.37      0.00
   -8   -8    9     -0.76      0.00
   -7   -8    9     -0.06      0.00
   -6   -8    9      0.60      0.00
   -5   -8    9      0.57      0.00
   -4   -8    9     -1.83      0.00
   -3   -8    9      1.72      0.00
   -2   -8    9     -1.33      0.00
   -1   -8    9      0.61      0.00
    0   -8    9     -0.41      0.00
    1   -8    9      0.83      0.00
    2   -8    9     -0.57      0.00
    3   -8    9      0.94      0.00
    4   -8    9     -1.40      0.00
    5   -8    9      1.20      0.00
    6   -8    9     -0.62      0.00
    7   -8    9     -0.28      0.00
    8   -8    9      0.79      0.00
    9   -8    9     -0.81      0.00
   10   -8    9      0.53      0.00
   11   -8    9     -0.15      0.00
   12   -8    9     -0.65      0.00
   13   -8    9      1.29      0.00
   14   -8    9     -0.89      0.00
  -11   -7    9      0.62      0.00
  -10   -7    9     -0.69      0.00
   -9   -7    9      0.82      0.00
   -8   -7    9     -0.89      0.00
   -7   -7    9     -0.58      0.00
   -6   -7    9      0.37      0.00
   -5   -7    9      0.59      0.00
   -4   -7    9     -0.22      0.00
   -3   -7    9     -0.66      0.00
   -2   -7    9      0.96      0.00
   -1   -7    9     -0.85      0.00
    0   -7    9      1.09      0.00
    1   -7    9     -1.12      0.00
    2   -7    9      0.66      0.00
    3   -7    9     -0.09      0.00
    4   -7    9     -0.33      0.00
    5   -7    9      0.45      0.00
    6   -7    9     -0.07      0.00
    7   -7    9      0.00      0.00
    8   -7    9     -0.28      0.00
    9   -7    9     -0.07      0.00
   10   -7    9      0.36      0.00
   11   -7    9     -0.58      0.00
   12   -7    9      1.00      0.00
   13   -7    9     -1.01      0.00
   14   -7    9      0.76      0.00
  -12   -6    9     -0.97      0.00
  -11   -6    9      0.44      0.00
  -10   -6    9     -0.02      0.00
   -9   -6    9     -0.21      0.00
   -8   -6    9      0.15      0.00
   -7   -6    9     -0.32      0.00
   -6   -6    9      0.85      0.00
   -5   -6    9     -1.59      0.00
   -4   -6    9      1.97      0.00
   -3   -6    9     -1.83      0.00
   -2   -6    9      0.82      0.00
   -1   -6    9     -0.24      0.00
    0   -6    9      0.27      0.00
    1   -6    9      0.33      0.00
    2   -6    9      0.05      0.00
    3   -6    9     -0.85      0.00
    4   -6    9      0.56      0.00
    5   -6    9     -0.15      0.00
    6   -6    9      0.30      0.00
    7   -6    9     -0.33      0.00
    8   -6    9     -0.29      0.00
    9   -6    9      0.98      0.00
   10   -6    9     -1.02      0.00
   11   -6    9      0.56      0.00
   12   -6    9     -0.53      0.00
   13   -6    9      0.41      0.00
   14   -6    9      0.33      0.00
  -13   -5    9      0.11      0.00
  -12   -5    9      0.94      0.00
  -11   -5    9     -0.09      0.00
  -10   -5    9     -0.17      0.00
   -9   -5    9     -0.30      0.00
   -8   -5    9     -0.48      0.00
   -7   -5    9      0.57      0.00
   -6   -5    9     -0.95      0.00
   -5   -5    9      1.98      0.00
   -4   -5    9     -2.39      0.00
   -3   -5    9      1.46      0.00
   -2   -5    9      0.20      0.00
   -1   -5    9     -0.47      0.00
    0   -5    9     -0.43      0.00
    1   -5    9      1.48      0.00
    2   -5    9     -2.23      0.00
    3   -5    9      2.01      0.00
    4   -5    9     -1.24      0.00
    5   -5    9      0.58      0.00
    6   -5    9      0.08      0.00
    7   -5    9     -0.02      0.00
    8   -5    9     -0.69      0.00
    9   -5    9      0.76      0.00
   10   -5    9     -0.49      0.00
   11   -5    9      0.39      0.00
   12   -5    9     -0.01      0.00
   13   -5    9     -0.49      0.00
  -14   -4    9      0.99      0.00
  -13   -4    9     -1.07      0.00
  -12   -4    9      0.58      0.00
  -11   -4    9     -0.49      0.00
  -10   -4    9      1.38      0.00
   -9   -4    9     -2.32      0.00
   -8   -4    9      2.03      0.00
   -7   -4    9     -0.88      0.00
   -6   -4    9     -0.42      0.00
   -5   -4    9      0.84      0.00
   -4   -4    9     -0.58      0.00
   -3   -4    9     -0.35      0.00
   -2   -4    9      1.42      0.00
   -1   -4    9     -2.03      0.00
    0   -4    9      2.45      0.00
    1   -4    9     -1.79      0.00
    2   -4    9      0.77      0.00
    3   -4    9     -0.38      0.00
    4   -4    9     -0.27      0.00
    5   -4    9      0.77      0.00
    6   -4    9     -0.05      0.00
    7   -4    9     -0.60      0.00
    8   -4    9      0.31      0.00
    9   -4    9      0.24      0.00
   10   -4    9     -0.22      0.00
   11   -4    9     -0.44      0.00
   12   -4    9      0.00      0.00
   13   -4    9      1.22      0.00
  -14   -3    9      0.91      0.00
  -13   -3    9      0.23      0.00
  -12   -3    9     -0.52      0.00
  -11   -3    9      0.89      0.00
  -10   -3    9     -0.85      0.00
   -9   -3    9      0.34      0.00
   -8   -3    9     -0.94      0.00
   -7   -3    9      0.29      0.00
   -6   -3    9      1.42      0.00
   -5   -3    9     -1.78      0.00
   -4   -3    9     -0.34      0.00
   -3   -3    9      3.43      0.00
   -2   -3    9     -4.23      0.00
   -1   -3    9      3.00      0.00
    0   -3    9     -0.91      0.00
    1   -3    9     -1.24      0.00
    2   -3    9      1.71      0.00
    3   -3    9     -0.71      0.00
    4   -3    9     -0.28      0.00
    5   -3    9      0.43      0.00
    6   -3    9      0.40      0.00
    7   -3    9     -0.66      0.00
    8   -3    9      0.41      0.00
    9   -3    9     -1.05      0.00
   10   -3    9      1.58      0.00
   11   -3    9     -0.85      0.00
   12   -3    9     -0.12      0.00
   13   -3    9     -0.36      0.00
  -15   -2    9     -0.51      0.00
  -14   -2    9      0.62      0.00
  -13   -2    9     -0.55      0.00
  -12   -2    9      0.61      0.00
  -11   -2    9     -0.04      0.00
  -10   -2    9     -0.75      0.00
   -9   -2    9      0.97      0.00
   -8   -2    9     -0.60      0.00
   -7   -2    9     -0.59      0.00
   -6   -2    9      1.45      0.00
   -5   -2    9     -1.47      0.00
   -4   -2    9      0.71      0.00
   -3   -2    9      0.06      0.00
   -2   -2    9     -0.56      0.00
   -1   -2    9      1.93      0.00
    0   -2    9     -2.67      0.00
    1   -2    9      1.40      0.00
    2   -2    9      0.31      0.00
    3   -2    9     -1.55      0.00
    4   -2    9      2.08      0.00
    5   -2    9     -1.43      0.00
    6   -2    9      0.50      0.00
    7   -2    9      0.19      0.00
    8   -2    9     -0.12      0.00
    9   -2    9     -0.30      0.00
   10   -2    9     -0.42      0.00
   11   -2    9      0.72      0.00
   12   -2    9      0.12      0.00
  -15   -1    9      0.61      0.00
  -14   -1    9     -0.25      0.00
  -13   -1    9     -0.01      0.00
  -12   -1    9      0.32      0.00
  -11   -1    9     -0.11      0.00
  -10   -1    9      0.25      0.00
   -9   -1    9     -1.20      0.00
   -8   -1    9      0.35      0.00
   -7   -1    9      1.51      0.00
   -6   -1    9     -2.39      0.00
   -5   -1    9      1.32      0.00
   -4   -1    9      1.29      0.00
   -3   -1    9     -3.02      0.00
   -2   -1    9      2.67      0.00
   -1   -1    9     -0.51      0.00
    0   -1    9     -1.32      0.00
    1   -1    9      1.28      0.00
    2   -1    9     -0.81      0.00
    3   -1    9      0.24      0.00
    4   -1    9      0.56      0.00
    5   -1    9     -0.44      0.00
    6   -1    9      0.19      0.00
    7   -1    9     -0.23      0.00
    8   -1    9      0.03      0.00
    9   -1    9      0.47      0.00
   10   -1    9     -1.04      0.00
  -16    0    9     -0.45      0.00
  -15    0    9      0.33      0.00
  -14    0    9     -0.44      0.00
  -13    0    9      0.78      0.00
  -12    0    9     -0.40      0.00
  -11    0    9      0.03      0.00
  -10    0    9      0.04      0.00
   -9    0    9     -0.03      0.00
   -8    0    9     -0.31      0.00
   -7    0    9      0.14      0.00
   -6    0    9      0.09      0.00
   -5    0    9     -0.01      0.00
   -4    0    9     -0.13      0.00
   -3    0    9     -0.44      0.00
   -2    0    9      2.66      0.00
   -1    0    9     -4.24      0.00
    0    0    9      3.40      0.00
    1    0    9     -1.72      0.00
    2    0    9     -0.08      0.00
    3    0    9      1.39      0.00
    4    0    9     -1.45      0.00
    5    0    9      1.33      0.00
    6    0    9     -0.83      0.00
    7    0    9      0.17      0.00
    8    0    9     -0.30      0.00
    9    0    9      0.46      0.00
   10    0    9     -0.58      0.00
   11    0    9      0.71      0.00
  -16    1    9     -0.06      0.00
  -15    1    9      0.16      0.00
  -14    1    9     -0.02      0.00
  -13    1    9      0.26      0.00
  -12    1    9     -0.59      0.00
  -11    1    9      0.97      0.00
  -10    1    9     -1.39      0.00
   -9    1    9      0.45      0.00
   -8    1    9      1.18      0.00
   -7    1    9     -2.39      0.00
   -6    1    9      2.45      0.00
   -5    1    9     -1.52      0.00
   -4    1    9      0.61      0.00
   -3    1    9     -0.16      0.00
   -2    1    9      0.13      0.00
   -1    1    9      0.37      0.00
    0    1    9     -0.85      0.00
    1    1    9      0.30      0.00
    2    1    9     -0.04      0.00
    3    1    9      0.14      0.00
    4    1    9      0.12      0.00
    5    1    9      0.17      0.00
    6    1    9     -0.55      0.00
    7    1    9      0.41      0.00
    8    1    9      0.35      0.00
    9    1    9     -1.52      0.00
   10    1    9      1.75      0.00
   11    1    9     -0.95      0.00
  -16    2    9      0.41      0.00
  -15    2    9     -0.96      0.00
  -14    2    9      1.05      0.00
  -13    2    9     -0.01      0.00
  -12    2    9     -0.23      0.00
  -11    2    9     -0.35      0.00
  -10    2    9      0.50      0.00
   -9    2    9      0.10      0.00
   -8    2    9     -1.58      0.00
   -7    2    9      2.39      0.00
   -6    2    9     -2.10      0.00
   -5    2    9      1.49      0.00
   -4    2    9     -1.88      0.00
   -3    2    9      4.15      0.00
   -2    2    9     -5.75      0.00
   -1    2    9      5.48      0.00
    0    2    9     -4.43      0.00
    1    2    9      2.46      0.00
    2    2    9     -0.87      0.00
    3    2    9      0.59      0.00
    4    2    9     -0.25      0.00
    5    2    9      0.41      0.00
    6    2    9     -1.36      0.00
    7    2    9      1.64      0.00
    8    2    9     -1.19      0.00
    9    2    9      0.81      0.00
   10    2    9     -0.60      0.00
  -17    3    9     -0.33      0.00
  -16    3    9     -0.08      0.00
  -15    3    9      0.59      0.00
  -14    3    9      0.13      0.00
  -13    3    9     -1.08      0.00
  -12    3    9      1.60      0.00
  -11    3    9     -2.01      0.00
  -10    3    9      1.21      0.00
   -9    3    9      0.07      0.00
   -8    3    9      0.08      0.00
   -7    3    9     -1.06      0.00
   -6    3    9      0.86      0.00
   -5    3    9     -0.36      0.00
   -4    3    9      1.15      0.00
   -3    3    9     -2.49      0.00
   -2    3    9      3.83      0.00
   -1    3    9     -4.46      0.00
    0    3    9      4.29      0.00
    1    3    9     -3.59      0.00
    2    3    9      2.05      0.00
    3    3    9     -1.19      0.00
    4    3    9      1.52      0.00
    5    3    9     -1.08      0.00
    6    3    9      0.26      0.00
    7    3    9     -0.16      0.00
    8    3    9      0.10      0.00
    9    3    9      0.35      0.00
  -17    4    9      0.03      0.00
  -16    4    9     -1.14      0.00
  -15    4    9      1.04      0.00
  -14    4    9     -0.49      0.00
  -13    4    9      1.56      0.00
  -12    4    9     -2.39      0.00
  -11    4    9      2.05      0.00
  -10    4    9     -1.29      0.00
   -9    4    9     -0.47      0.00
   -8    4    9      1.80      0.00
   -7    4    9     -1.15      0.00
   -6    4    9     -0.62      0.00
   -5    4    9      0.50      0.00
   -4    4    9      1.49      0.00
   -3    4    9     -1.41      0.00
   -2    4    9      0.50      0.00
   -1    4    9     -1.00      0.00
    0    4    9      0.69      0.00
    1    4    9      0.06      0.00
    2    4    9      0.45      0.00
    3    4    9     -0.91      0.00
    4    4    9      0.25      0.00
    5    4    9      0.44      0.00
    6    4    9     -0.22      0.00
    7    4    9     -0.14      0.00
    8    4    9      0.16      0.00
  -17    5    9     -0.02      0.00
  -16    5    9      1.58      0.00
  -15    5    9     -2.16      0.00
  -14    5    9      1.08      0.00
  -13    5    9      0.23      0.00
  -12    5    9     -0.88      0.00
  -11    5    9      0.51      0.00
  -10    5    9     -0.10      0.00
   -9    5    9      0.51      0.00
   -8    5    9     -1.23      0.00
   -7    5    9      1.23      0.00
   -6    5    9     -0.77      0.00
   -5    5    9      0.68      0.00
   -4    5    9     -1.84      0.00
   -3    5    9      3.75      0.00
   -2    5    9     -3.92      0.00
   -1    5    9      3.24      0.00
    0    5    9     -3.00      0.00
    1    5    9      1.68      0.00
    2    5    9     -0.38      0.00
    3    5    9      0.37      0.00
    4    5    9     -0.36      0.00
    5    5    9     -0.40      0.00
    6    5    9      0.86      0.00
    7    5    9      0.02      0.00
    8    5    9     -0.70      0.00
  -17    6    9      0.44      0.00
  -16    6    9     -0.80      0.00
  -15    6    9      1.52      0.00
  -14    6    9     -0.55      0.00
  -13    6    9     -1.16      0.00
  -12    6    9      2.18      0.00
  -11    6    9     -2.03      0.00
  -10    6    9      0.92      0.00
   -9    6    9     -0.28      0.00
   -8    6    9      0.15      0.00
   -7    6    9     -0.76      0.00
   -6    6    9      0.99      0.00
   -5    6    9     -0.03      0.00
   -4    6    9     -0.02      0.00
   -3    6    9     -0.11      0.00
   -2    6    9     -0.15      0.00
   -1    6    9     -0.35      0.00
    0    6    9      0.98      0.00
    1    6    9     -1.35      0.00
    2    6    9      1.11      0.00
    3    6    9     -0.64      0.00
    4    6    9      0.60      0.00
    5    6    9     -0.62      0.00
    6    6    9      0.42      0.00
    7    6    9      0.27      0.00
  -17    7    9     -0.41      0.00
  -16    7    9     -0.63      0.00
  -15    7    9      0.98      0.00
  -14    7    9     -0.62      0.00
  -13    7    9      0.39      0.00
  -12    7    9     -0.91      0.00
  -11    7    9      1.00      0.00
  -10    7    9     -0.59      0.00
   -9    7    9      0.71      0.00
   -8    7    9     -1.08      0.00
   -7    7    9      0.89      0.00
   -6    7    9     -0.74      0.00
   -5    7    9      0.48      0.00
   -4    7    9      0.44      0.00
   -3    7    9     -1.00      0.00
   -2    7    9      1.48      0.00
   -1    7    9     -1.50      0.00
    0    7    9      0.38      0.00
    1    7    9      0.49      0.00
    2    7    9     -1.02      0.00
    3    7    9      1.39      0.00
    4    7    9     -1.61      0.00
    5    7    9      1.46      0.00
    6    7    9     -0.53      0.00
  -17    8    9      0.14      0.00
  -16    8    9      0.26      0.00
  -15    8    9      0.48      0.00
  -14    8    9     -1.51      0.00
  -13    8    9      1.72      0.00
  -12    8    9     -0.72      0.00
  -11    8    9     -0.45      0.00
  -10    8    9      0.57      0.00
   -9    8    9     -0.77      0.00
   -8    8    9      0.72      0.00
   -7    8    9     -0.68      0.00
   -6    8    9      1.01      0.00
   -5    8    9     -0.68      0.00
   -4    8    9      0.84      0.00
   -3    8    9     -1.08      0.00
   -2    8    9      0.66      0.00
   -1    8    9     -0.28      0.00
    0    8    9     -0.20      0.00
    1    8    9      0.17      0.00
    2    8    9     -0.30      0.00
    3    8    9      0.63      0.00
    4    8    9     -0.23      0.00
    5    8    9     -0.12      0.00
  -17    9    9     -0.31      0.00
  -16    9    9      0.75      0.00
  -15    9    9     -0.27      0.00
  -14    9    9      0.02      0.00
  -13    9    9     -0.66      0.00
  -12    9    9      0.51      0.00
  -11    9    9      0.21      0.00
  -10    9    9     -0.19      0.00
   -9    9    9     -0.01      0.00
   -8    9    9     -0.29      0.00
   -7    9    9      0.47      0.00
   -6    9    9     -0.45      0.00
   -5    9    9      0.39      0.00
   -4    9    9     -0.25      0.00
   -3    9    9      0.77      0.00
   -2    9    9     -1.06      0.00
   -1    9    9      0.91      0.00
    0    9    9     -0.93      0.00
    1    9    9      0.53      0.00
    2    9    9     -0.18      0.00
    3    9    9     -0.38      0.00
  -16   10    9      0.43      0.00
  -15   10    9     -0.67      0.00
  -14   10    9      0.93      0.00
  -13   10    9     -0.82      0.00
  -12   10    9      0.19      0.00
  -11   10    9      0.01      0.00
  -10   10    9      0.02      0.00
   -9   10    9     -0.30      0.00
   -8   10    9     -0.26      0.00
   -7   10    9      1.05      0.00
   -6   10    9     -0.63      0.00
   -5   10    9      0.44      0.00
   -4   10    9     -0.04      0.00
   -3   10    9     -0.53      0.00
   -2   10    9      0.57      0.00
   -1   10    9     -0.67      0.00
    0   10    9      0.41      0.00
    1   10    9     -0.53      0.00
    2   10    9      0.96      0.00
  -14   11    9      0.88      0.00
  -13   11    9     -1.23      0.00
  -12   11    9      1.04      0.00
  -11   11    9     -0.43      0.00
  -10   11    9      0.31      0.00
   -9   11    9     -0.17      0.00
   -8   11    9     -0.11      0.00
   -7   11    9      0.00      0.00
   -6   11    9     -0.55      0.00
   -5   11    9      1.27      0.00
   -4   11    9     -0.54      0.00
   -3   11    9     -0.16      0.00
   -2   11    9      0.20      0.00
   -1   11    9      0.06      0.00
    0   11    9     -0.51      0.00
    1   11    9      0.03      0.00
  -14   12    9     -0.80      0.00
  -13   12    9      0.85      0.00
  -12   12    9     -0.84      0.00
  -11   12    9      0.68      0.00
  -10   12    9     -0.68      0.00
   -9   12    9     -0.27      0.00
   -8   12    9      1.18      0.00
   -7   12    9     -0.89      0.00
   -6   12    9      0.83      0.00
   -5   12    9     -0.55      0.00
   -4   12    9      0.31      0.00
   -3   12    9     -0.30      0.00
   -2   12    9     -0.17      0.00
   -1   12    9      0.30      0.00
  -14   13    9     -0.61      0.00
  -13   13    9      0.55      0.00
  -12   13    9     -0.58      0.00
  -11   13    9      0.73      0.00
  -10   13    9      0.00      0.00
   -9   13    9     -0.71      0.00
   -8   13    9      0.56      0.00
   -7   13    9     -1.10      0.00
   -6   13    9      1.27      0.00
   -5   13    9      0.11      0.00
   -4   13    9     -0.58      0.00
   -3   13    9      0.10      0.00
  -12   14    9     -0.39      0.00
  -11   14    9     -0.26      0.00
  -10   14    9     -0.15      0.00
   -9   14    9      1.00      0.00
   -8   14    9     -0.84      0.00
   -7   14    9      0.75      0.00
   -6   14    9     -0.54      0.00
    3  -17   10      0.56      0.00
    4  -17   10     -0.72      0.00
    5  -17   10      1.06      0.00
    6  -17   10     -0.83      0.00
    7  -17   10      0.32      0.00
    8  -17   10     -0.19      0.00
    9  -17   10     -0.30      0.00
    0  -16   10     -0.31      0.00
    1  -16   10      0.88      0.00
    2  -16   10     -0.48      0.00
    3  -16   10     -0.54      0.00
    4  -16   10      1.02      0.00
    5  -16   10     -1.20      0.00
    6  -16   10      1.00      0.00
    7  -16   10     -0.49      0.00
    8  -16   10     -0.08      0.00
    9  -16   10     -0.41      0.00
   10  -16   10      0.83      0.00
   11  -16   10     -0.12      0.00
    0  -15   10     -0.56      0.00
    1  -15   10     -0.06      0.00
    2  -15   10      0.10      0.00
    3  -15   10      0.77      0.00
    4  -15   10     -0.63      0.00
    5  -15   10     -0.04      0.00
    6  -15   10     -0.09      0.00
    7  -15   10      0.33      0.00
    8  -15   10     -0.31      0.00
    9  -15   10     -0.47      0.00
   10  -15   10      0.39      0.00
   11  -15   10      0.30      0.00
   12  -15   10      0.34      0.00
   -4  -14   10      1.14      0.00
   -3  -14   10     -1.14      0.00
   -1  -14   10     -0.03      0.00
    0  -14   10      0.39      0.00
    1  -14   10      0.06      0.00
    2  -14   10     -0.73      0.00
    3  -14   10      0.05      0.00
    4  -14   10      0.67      0.00
    5  -14   10     -0.59      0.00
    6  -14   10      0.01      0.00
    7  -14   10     -0.22      0.00
    8  -14   10      0.39      0.00
    9  -14   10     -0.04      0.00
   10  -14   10      0.09      0.00
   11  -14   10      0.25      0.00
   12  -14   10     -0.36      0.00
   13  -14   10      0.06      0.00
   -5  -13   10      0.76      0.00
   -4  -13   10     -1.37      0.00
   -3  -13   10      0.87      0.00
   -2  -13   10     -0.26      0.00
   -1  -13   10      0.66      0.00
    0  -13   10     -1.34      0.00
    1  -13   10      0.71      0.00
    2  -13   10      0.71      0.00
    3  -13   10     -0.92      0.00
    4  -13   10      0.10      0.00
    5  -13   10      0.37      0.00
    6  -13   10     -0.51      0.00
    7  -13   10      0.20      0.00
    8  -13   10     -0.19      0.00
    9  -13   10     -0.04      0.00
   10  -13   10      0.44      0.00
   11  -13   10      0.16      0.00
   12  -13   10      0.18      0.00
   13  -13   10     -0.27      0.00
   -6  -12   10     -0.46      0.00
   -5  -12   10      0.53      0.00
   -4  -12   10     -0.07      0.00
   -3  -12   10     -0.14      0.00
   -2  -12   10     -0.12      0.00
   -1  -12   10      0.70      0.00
    0  -12   10      0.19      0.00
    1  -12   10     -1.37      0.00
    2  -12   10      0.96      0.00
    3  -12   10     -0.30      0.00
    4  -12   10     -0.22      0.00
    5  -12   10      0.34      0.00
    6  -12   10     -0.55      0.00
    7  -12   10      0.57      0.00
    8  -12   10      0.03      0.00
    9  -12   10     -0.15      0.00
   10  -12   10      0.46      0.00
   11  -12   10     -0.33      0.00
   12  -12   10     -0.44      0.00
   13  -12   10      0.71      0.00
   -8  -11   10      0.33      0.00
   -7  -11   10      0.89      0.00
   -6  -11   10     -1.04      0.00
   -5  -11   10      1.25      0.00
   -4  -11   10     -1.60      0.00
   -3  -11   10      0.89      0.00
   -2  -11   10      0.05      0.00
   -1  -11   10     -0.35      0.00
    0  -11   10      0.04      0.00
    1  -11   10      0.48      0.00
    2  -11   10     -0.81      0.00
    3  -11   10      0.77      0.00
    4  -11   10     -0.73      0.00
    5  -11   10      0.53      0.00
    6  -11   10     -0.52      0.00
    7  -11   10      0.63      0.00
    8  -11   10     -1.18      0.00
    9  -11   10      1.64      0.00
   10  -11   10     -0.75      0.00
   11  -11   10      0.49      0.00
   12  -11   10     -0.11      0.00
   13  -11   10     -1.16      0.00
   14  -11   10      1.18      0.00
   -9  -10   10      0.08      0.00
   -8  -10   10      0.44      0.00
   -7  -10   10     -0.95      0.00
   -6  -10   10      0.75      0.00
   -5  -10   10     -0.67      0.00
   -4  -10   10      0.95      0.00
   -3  -10   10     -0.94      0.00
   -2  -10   10      0.96      0.00
   -1  -10   10     -0.15      0.00
    0  -10   10     -0.59      0.00
    1  -10   10      0.09      0.00
    2  -10   10      0.00      0.00
    3  -10   10     -0.16      0.00
    4  -10   10      0.38      0.00
    5  -10   10     -0.80      0.00
    6  -10   10      1.13      0.00
    7  -10   10     -0.31      0.00
    8  -10   10     -0.18      0.00
    9  -10   10      0.30      0.00
   10  -10   10     -0.50      0.00
   11  -10   10      0.68      0.00
   12  -10   10     -0.60      0.00
   13  -10   10      0.19      0.00
   14  -10   10     -0.23      0.00
  -10   -9   10     -0.61      0.00
   -9   -9   10      1.08      0.00
   -8   -9   10     -0.30      0.00
   -7   -9   10      0.45      0.00
   -6   -9   10      0.08      0.00
   -5   -9   10     -0.56      0.00
   -4   -9   10     -0.05      0.00
   -3   -9   10      0.22      0.00
   -2   -9   10      0.03      0.00
   -1   -9   10      0.03      0.00
    0   -9   10     -0.31      0.00
    1   -9   10      0.30      0.00
    2   -9   10     -0.55      0.00
    3   -9   10      0.97      0.00
    4   -9   10     -1.10      0.00
    5   -9   10      0.86      0.00
    6   -9   10     -0.62      0.00
    7   -9   10     -0.13      0.00
    8   -9   10      1.15      0.00
    9   -9   10     -0.84      0.00
   10   -9   10      0.63      0.00
   11   -9   10     -0.56      0.00
   12   -9   10     -0.28      0.00
   13   -9   10      0.61      0.00
   14   -9   10     -0.48      0.00
  -10   -8   10      0.25      0.00
   -9   -8   10      0.10      0.00
   -8   -8   10      0.58      0.00
   -7   -8   10     -1.30      0.00
   -6   -8   10      0.59      0.00
   -5   -8   10      0.66      0.00
   -4   -8   10     -0.80      0.00
   -3   -8   10      0.71      0.00
   -2   -8   10     -0.17      0.00
   -1   -8   10     -0.43      0.00
    0   -8   10      0.29      0.00
    1   -8   10     -0.73      0.00
    2   -8   10      0.36      0.00
    3   -8   10      0.49      0.00
    4   -8   10     -0.86      0.00
    5   -8   10      0.93      0.00
    6   -8   10     -0.09      0.00
    7   -8   10     -0.29      0.00
    8   -8   10      0.08      0.00
    9   -8   10     -0.23      0.00
   10   -8   10      0.56      0.00
   11   -8   10     -0.42      0.00
   12   -8   10      0.07      0.00
   13   -8   10     -0.37      0.00
   14   -8   10      0.68      0.00
  -11   -7   10      1.22      0.00
  -10   -7   10     -0.97      0.00
   -9   -7   10      0.85      0.00
   -8   -7   10      0.51      0.00
   -7   -7   10     -0.16      0.00
   -6   -7   10     -0.13      0.00
   -5   -7   10     -1.27      0.00
   -4   -7   10      1.90      0.00
   -3   -7   10     -1.05      0.00
   -2   -7   10      0.20      0.00
   -1   -7   10     -0.63      0.00
    0   -7   10      0.92      0.00
    1   -7   10     -0.81      0.00
    2   -7   10      0.99      0.00
    3   -7   10     -1.10      0.00
    4   -7   10      0.97      0.00
    5   -7   10     -0.95      0.00
    6   -7   10      0.43      0.00
    7   -7   10      0.59      0.00
    8   -7   10     -0.86      0.00
    9   -7   10      1.34      0.00
   10   -7   10     -1.75      0.00
   11   -7   10      0.86      0.00
   12   -7   10      0.35      0.00
   13   -7   10     -1.01      0.00
  -12   -6   10      0.06      0.00
  -11   -6   10     -0.74      0.00
  -10   -6   10      1.53      0.00
   -9   -6   10     -1.06      0.00
   -8   -6   10     -0.28      0.00
   -7   -6   10      1.08      0.00
   -6   -6   10     -0.41      0.00
   -5   -6   10     -0.06      0.00
   -4   -6   10     -0.29      0.00
   -3   -6   10      0.99      0.00
   -2   -6   10     -0.91      0.00
   -1   -6   10      0.39      0.00
    0   -6   10     -1.38      0.00
    1   -6   10      1.42      0.00
    2   -6   10     -0.60      0.00
    3   -6   10      0.74      0.00
    4   -6   10     -0.55      0.00
    5   -6   10      0.06      0.00
    6   -6   10      0.25      0.00
    7   -6   10     -0.17      0.00
    8   -6   10     -0.17      0.00
    9   -6   10      0.26      0.00
   10   -6   10     -0.32      0.00
   11   -6   10      0.77      0.00
   12   -6   10     -1.00      0.00
   13   -6   10      0.68      0.00
  -13   -5   10     -0.68      0.00
  -12   -5   10     -0.12      0.00
  -11   -5   10      0.21      0.00
  -10   -5   10      0.63      0.00
   -9   -5   10     -0.29      0.00
   -8   -5   10      0.54      0.00
   -7   -5   10     -0.19      0.00
   -6   -5   10     -0.97      0.00
   -5   -5   10      1.67      0.00
   -4   -5   10     -1.52      0.00
   -3   -5   10      0.48      0.00
   -2   -5   10     -0.15      0.00
   -1   -5   10     -0.14      0.00
    0   -5   10      0.61      0.00
    1   -5   10     -0.24      0.00
    2   -5   10     -0.50      0.00
    3   -5   10      0.95      0.00
    4   -5   10     -0.82      0.00
    5   -5   10      0.27      0.00
    6   -5   10     -0.22      0.00
    7   -5   10      0.41      0.00
    8   -5   10      0.50      0.00
    9   -5   10     -1.10      0.00
   10   -5   10      0.46      0.00
   11   -5   10     -0.20      0.00
   12   -5   10      0.51      0.00
   13   -5   10     -0.17      0.00
  -13   -4   10     -0.87      0.00
  -12   -4   10      0.47      0.00
  -11   -4   10     -0.54      0.00
  -10   -4   10      0.92      0.00
   -9   -4   10     -0.76      0.00
   -8   -4   10      0.57      0.00
   -7   -4   10     -0.47      0.00
   -6   -4   10      1.15      0.00
   -5   -4   10     -1.71      0.00
   -4   -4   10      1.60      0.00
   -3   -4   10     -0.64      0.00
   -2   -4   10     -0.77      0.00
   -1   -4   10      0.37      0.00
    0   -4   10      0.50      0.00
    1   -4   10     -1.18      0.00
    2   -4   10      2.00      0.00
    3   -4   10     -1.36      0.00
    4   -4   10      0.13      0.00
    5   -4   10      0.33      0.00
    6   -4   10     -0.15      0.00
    7   -4   10     -0.51      0.00
    8   -4   10      1.03      0.00
    9   -4   10     -1.09      0.00
   10   -4   10      1.12      0.00
   11   -4   10     -0.44      0.00
   12   -4   10     -0.53      0.00
  -14   -3   10     -0.80      0.00
  -13   -3   10      0.87      0.00
  -12   -3   10     -1.25      0.00
  -11   -3   10      2.07      0.00
  -10   -3   10     -2.34      0.00
   -9   -3   10      2.69      0.00
   -8   -3   10     -1.35      0.00
   -7   -3   10     -0.24      0.00
   -6   -3   10      0.55      0.00
   -5   -3   10     -0.13      0.00
   -4   -3   10     -0.61      0.00
   -3   -3   10      0.83      0.00
   -2   -3   10     -1.68      0.00
   -1   -3   10      2.54      0.00
    0   -3   10     -2.08      0.00
    1   -3   10      1.34      0.00
    2   -3   10     -0.61      0.00
    3   -3   10     -0.14      0.00
    4   -3   10      0.46      0.00
    5   -3   10     -0.43      0.00
    6   -3   10     -0.23      0.00
    7   -3   10      1.03      0.00
    8   -3   10     -0.52      0.00
    9   -3   10     -0.19      0.00
   10   -3   10     -0.31      0.00
   11   -3   10      0.87      0.00
   12   -3   10     -0.04      0.00
  -15   -2   10      1.08      0.00
  -14   -2   10     -0.81      0.00
  -13   -2   10     -0.17      0.00
  -12   -2   10      0.22      0.00
  -11   -2   10      0.13      0.00
  -10   -2   10      0.28      0.00
   -9   -2   10     -0.76      0.00
   -8   -2   10      0.95      0.00
   -7   -2   10      0.19      0.00
   -6   -2   10     -1.28      0.00
   -5   -2   10      0.80      0.00
   -4   -2   10      1.30      0.00
   -3   -2   10     -3.65      0.00
   -2   -2   10      3.28      0.00
   -1   -2   10     -1.72      0.00
    0   -2   10      0.68      0.00
    1   -2   10      0.37      0.00
    2   -2   10     -0.27      0.00
    3   -2   10     -0.72      0.00
    4   -2   10      1.01      0.00
    5   -2   10     -0.43      0.00
    6   -2   10     -0.39      0.00
    7   -2   10      0.49      0.00
    8   -2   10     -0.17      0.00
    9   -2   10      0.77      0.00
   10   -2   10     -1.09      0.00
   11   -2   10      0.46      0.00
  -15   -1   10      0.32      0.00
  -14   -1   10     -0.34      0.00
  -13   -1   10      0.56      0.00
  -12   -1   10     -0.88      0.00
  -11   -1   10      0.60      0.00
  -10   -1   10      0.61      0.00
   -9   -1   10     -0.47      0.00
   -8   -1   10     -0.03      0.00
   -7   -1   10      0.30      0.00
   -6   -1   10     -0.82      0.00
   -5   -1   10      0.73      0.00
   -4   -1   10     -0.33      0.00
   -3   -1   10     -0.24      0.00
   -2   -1   10      0.57      0.00
   -1   -1   10     -1.19      0.00
    0   -1   10      1.81      0.00
    1   -1   10     -0.72      0.00
    2   -1   10     -0.85      0.00
    3   -1   10      1.30      0.00
    4   -1   10     -1.60      0.00
    5   -1   10      1.65      0.00
    6   -1   10     -0.88      0.00
    7   -1   10      0.19      0.00
    8   -1   10     -0.10      0.00
    9   -1   10      0.45      0.00
   10   -1   10     -0.50      0.00
  -15    0   10      0.01      0.00
  -14    0   10     -0.16      0.00
  -13    0   10     -0.16      0.00
  -12    0   10      0.02      0.00
  -11    0   10      0.54      0.00
  -10    0   10     -0.76      0.00
   -9    0   10      0.92      0.00
   -8    0   10      0.17      0.00
   -7    0   10     -1.48      0.00
   -6    0   10      1.92      0.00
   -5    0   10     -1.37      0.00
   -4    0   10     -0.34      0.00
   -3    0   10      1.26      0.00
   -2    0   10     -1.15      0.00
   -1    0   10      0.14      0.00
    0    0   10      1.53      0.00
    1    0   10     -1.72      0.00
    2    0   10      0.83      0.00
    3    0   10     -0.28      0.00
    4    0   10     -0.44      0.00
    5    0   10      0.70      0.00
    6    0   10     -0.17      0.00
    7    0   10      0.05      0.00
    8    0   10      0.06      0.00
    9    0   10     -0.72      0.00
   10    0   10      1.31      0.00
  -16    1   10     -0.22      0.00
  -15    1   10     -0.28      0.00
  -14    1   10      0.53      0.00
  -13    1   10     -0.21      0.00
  -12    1   10      0.06      0.00
  -11    1   10      0.13      0.00
  -10    1   10      0.41      0.00
   -9    1   10     -0.73      0.00
   -8    1   10      0.34      0.00
   -7    1   10      0.09      0.00
   -6    1   10     -0.21      0.00
   -5    1   10      0.18      0.00
   -4    1   10     -0.86      0.00
   -3    1   10      2.04      0.00
   -2    1   10     -3.41      0.00
   -1    1   10      3.81      0.00
    0    1   10     -2.60      0.00
    1    1   10      1.33      0.00
    2    1   10     -0.40      0.00
    3    1   10     -0.52      0.00
    4    1   10      0.90      0.00
    5    1   10     -0.72      0.00
    6    1   10     -0.04      0.00
    7    1   10      1.09      0.00
    8    1   10     -0.93      0.00
    9    1   10     -0.05      0.00
   10    1   10      0.29      0.00
  -16    2   10      0.33      0.00
  -15    2   10     -0.23      0.00
  -14    2   10     -0.37      0.00
  -13    2   10     -0.42      0.00
  -12    2   10      1.35      0.00
  -11    2   10     -0.85      0.00
  -10    2   10      0.36      0.00
   -9    2   10      0.28      0.00
   -8    2   10     -0.78      0.00
   -7    2   10      1.09      0.00
   -6    2   10     -1.17      0.00
   -5    2   10      0.65      0.00
   -4    2   10     -0.58      0.00
   -3    2   10      0.00      0.00
   -2    2   10      0.80      0.00
   -1    2   10     -0.67      0.00
    0    2   10      0.88      0.00
    1    2   10     -0.93      0.00
    2    2   10      0.20      0.00
    3    2   10     -0.20      0.00
    4    2   10      0.60      0.00
    5    2   10     -0.18      0.00
    6    2   10     -0.34      0.00
    7    2   10      0.40      0.00
    8    2   10     -0.62      0.00
    9    2   10      0.88      0.00
  -16    3   10     -1.17      0.00
  -15    3   10      1.57      0.00
  -14    3   10     -0.66      0.00
  -13    3   10     -0.06      0.00
  -12    3   10      0.13      0.00
  -11    3   10      0.86      0.00
  -10    3   10     -1.15      0.00
   -9    3   10     -0.49      0.00
   -8    3   10      1.96      0.00
   -7    3   10     -1.63      0.00
   -6    3   10      0.95      0.00
   -5    3   10     -1.04      0.00
   -4    3   10      1.57      0.00
   -3    3   10     -2.81      0.00
   -2    3   10      3.62      0.00
   -1    3   10     -3.29      0.00
    0    3   10      2.54      0.00
    1    3   10     -1.63      0.00
    2    3   10      1.46      0.00
    3    3   10     -1.51      0.00
    4    3   10      0.60      0.00
    5    3   10     -0.16      0.00
    6    3   10      1.04      0.00
    7    3   10     -1.44      0.00
    8    3   10      0.70      0.00
  -17    4   10      0.32      0.00
  -16    4   10      0.16      0.00
  -15    4   10     -0.77      0.00
  -14    4   10     -0.28      0.00
  -13    4   10      1.12      0.00
  -12    4   10     -1.03      0.00
  -11    4   10      1.36      0.00
  -10    4   10     -0.88      0.00
   -9    4   10      0.42      0.00
   -8    4   10     -1.03      0.00
   -7    4   10      1.62      0.00
   -6    4   10     -1.04      0.00
   -5    4   10     -0.03      0.00
   -4    4   10     -0.93      0.00
   -3    4   10      2.14      0.00
   -2    4   10     -2.16      0.00
   -1    4   10      3.04      0.00
    0    4   10     -3.19      0.00
    1    4   10      1.27      0.00
    2    4   10     -0.28      0.00
    3    4   10      1.53      0.00
    4    4   10     -2.07      0.00
    5    4   10      0.68      0.00
    6    4   10      0.17      0.00
    7    4   10      0.12      0.00
    8    4   10     -0.42      0.00
  -17    5   10     -0.75      0.00
  -16    5   10      0.91      0.00
  -15    5   10      0.15      0.00
  -14    5   10      0.05      0.00
  -13    5   10     -1.32      0.00
  -12    5   10      2.45      0.00
  -11    5   10     -2.30      0.00
  -10    5   10      0.78      0.00
   -9    5   10      0.51      0.00
   -8    5   10     -0.65      0.00
   -7    5   10      0.07      0.00
   -6    5   10      0.63      0.00
   -5    5   10     -0.42      0.00
   -4    5   10     -0.46      0.00
   -3    5   10      0.08      0.00
   -2    5   10      0.05      0.00
   -1    5   10      0.68      0.00
    0    5   10      0.05      0.00
    1    5   10     -0.80      0.00
    2    5   10      0.20      0.00
    3    5   10     -0.03      0.00
    4    5   10      1.09      0.00
    5    5   10     -1.81      0.00
    6    5   10      1.22      0.00
    7    5   10     -0.83      0.00
  -17    6   10     -0.03      0.00
  -16    6   10     -1.51      0.00
  -15    6   10      1.63      0.00
  -14    6   10     -0.73      0.00
  -13    6   10      0.14      0.00
  -12    6   10     -0.01      0.00
  -11    6   10      0.44      0.00
  -10    6   10     -0.19      0.00
   -9    6   10     -0.59      0.00
   -8    6   10      1.30      0.00
   -7    6   10     -1.19      0.00
   -6    6   10     -0.05      0.00
   -5    6   10      0.04      0.00
   -4    6   10      0.78      0.00
   -3    6   10     -1.31      0.00
   -2    6   10      2.09      0.00
   -1    6   10     -2.20      0.00
    0    6   10      1.49      0.00
    1    6   10     -0.36      0.00
    2    6   10     -0.31      0.00
    3    6   10      0.63      0.00
    4    6   10     -1.32      0.00
    5    6   10      1.36      0.00
    6    6   10     -0.76      0.00
  -17    7   10     -0.23      0.00
  -16    7   10      1.06      0.00
  -15    7   10     -1.07      0.00
  -14    7   10      0.09      0.00
  -13    7   10      1.26      0.00
  -12    7   10     -1.63      0.00
  -11    7   10      0.92      0.00
  -10    7   10     -0.50      0.00
   -9    7   10      0.21      0.00
   -8    7   10      0.10      0.00
   -7    7   10      0.61      0.00
   -6    7   10     -1.29      0.00
   -5    7   10      0.84      0.00
   -4    7   10     -0.58      0.00
   -3    7   10      0.01      0.00
   -2    7   10      0.63      0.00
   -1    7   10      0.04      0.00
    0    7   10     -0.87      0.00
    1    7   10      1.27      0.00
    2    7   10     -1.12      0.00
    3    7   10      0.79      0.00
    4    7   10     -0.49      0.00
    5    7   10     -0.22      0.00
  -17    8   10      0.18      0.00
  -16    8   10      0.35      0.00
  -15    8   10     -0.44      0.00
  -14    8   10      0.47      0.00
  -13    8   10     -0.67      0.00
  -12    8   10      0.92      0.00
  -11    8   10     -0.52      0.00
  -10    8   10      0.61      0.00
   -9    8   10     -0.85      0.00
   -8    8   10      0.68      0.00
   -7    8   10     -0.77      0.00
   -6    8   10      0.62      0.00
   -5    8   10     -0.90      0.00
   -4    8   10      0.74      0.00
   -3    8   10      0.35      0.00
   -2    8   10     -0.81      0.00
   -1    8   10      0.91      0.00
    0    8   10     -0.63      0.00
    1    8   10      0.27      0.00
    2    8   10      0.36      0.00
    3    8   10     -1.45      0.00
    4    8   10      1.36      0.00
  -16    9   10      0.24      0.00
  -15    9   10     -0.64      0.00
  -14    9   10      1.22      0.00
  -13    9   10     -0.73      0.00
  -12    9   10     -0.33      0.00
  -11    9   10      0.52      0.00
  -10    9   10     -0.56      0.00
   -9    9   10      0.90      0.00
   -8    9   10     -0.62      0.00
   -7    9   10      0.27      0.00
   -6    9   10     -0.21      0.00
   -5    9   10     -0.16      0.00
   -4    9   10      0.08      0.00
   -3    9   10      0.05      0.00
   -2    9   10     -0.04      0.00
   -1    9   10      0.57      0.00
    0    9   10     -0.65      0.00
    1    9   10      0.29      0.00
    2    9   10      0.44      0.00
  -16   10   10     -0.40      0.00
  -14   10   10      0.39      0.00
  -13   10   10     -0.30      0.00
  -12   10   10      0.51      0.00
  -11   10   10     -0.51      0.00
  -10   10   10      0.46      0.00
   -9   10   10     -0.36      0.00
   -8   10   10      0.22      0.00
   -7   10   10     -0.35      0.00
   -6   10   10     -0.49      0.00
   -5   10   10      0.68      0.00
   -4   10   10      0.42      0.00
   -3   10   10     -0.95      0.00
   -2   10   10      1.09      0.00
   -1   10   10     -0.87      0.00
    0   10   10      0.76      0.00
    1   10   10     -0.65      0.00
  -14   11   10     -0.50      0.00
  -13   11   10      0.53      0.00
  -12   11   10     -0.45      0.00
  -11   11   10     -0.13      0.00
  -10   11   10      0.05      0.00
   -9   11   10      0.59      0.00
   -8   11   10     -0.31      0.00
   -7   11   10      0.06      0.00
   -6   11   10     -0.36      0.00
   -5   11   10     -0.21      0.00
   -4   11   10      0.45      0.00
   -3   11   10      0.11      0.00
   -2   11   10     -0.42      0.00
   -1   11   10      0.49      0.00
  -14   12   10     -0.66      0.00
  -13   12   10      1.02      0.00
  -12   12   10     -0.59      0.00
  -11   12   10      0.23      0.00
  -10   12   10      0.14      0.00
   -9   12   10     -0.41      0.00
   -8   12   10      0.13      0.00
   -7   12   10     -0.75      0.00
   -6   12   10      1.14      0.00
   -5   12   10     -0.62      0.00
   -4   12   10      0.00      0.00
   -3   12   10      0.63      0.00
   -2   12   10     -0.33      0.00
  -13   13   10     -0.51      0.00
  -11   13   10     -0.20      0.00
  -10   13   10      0.53      0.00
   -9   13   10      0.23      0.00
   -8   13   10     -0.36      0.00
   -7   13   10     -0.17      0.00
   -6   13   10     -0.36      0.00
   -5   13   10      0.66      0.00
    4  -17   11     -0.02      0.00
    5  -17   11     -0.11      0.00
    6  -17   11      0.13      0.00
    7  -17   11      0.52      0.00
    8  -17   11     -0.25      0.00
    1  -16   11      0.79      0.00
    2  -16   11      0.15      0.00
    3  -16   11     -0.35      0.00
    4  -16   11      0.35      0.00
    5  -16   11     -0.42      0.00
    6  -16   11      0.36      0.00
    7  -16   11      0.00      0.00
    8  -16   11      0.32      0.00
    9  -16   11     -0.83      0.00
   10  -16   11      0.29      0.00
    0  -15   11      0.72      0.00
    1  -15   11     -0.84      0.00
    2  -15   11      0.01      0.00
    3  -15   11      0.47      0.00
    4  -15   11     -0.84      0.00
    5  -15   11      1.34      0.00
    6  -15   11     -0.84      0.00
    7  -15   11      0.49      0.00
    8  -15   11     -0.56      0.00
    9  -15   11      0.97      0.00
   10  -15   11     -1.11      0.00
   11  -15   11     -0.20      0.00
   -3  -14   11      0.76      0.00
   -1  -14   11      0.01      0.00
    0  -14   11      0.01      0.00
    1  -14   11      0.47      0.00
    2  -14   11      0.12      0.00
    3  -14   11     -0.44      0.00
    4  -14   11      0.02      0.00
    5  -14   11      0.17      0.00
    6  -14   11      0.52      0.00
    7  -14   11     -0.48      0.00
    8  -14   11     -0.50      0.00
    9  -14   11      0.07      0.00
   10  -14   11      0.45      0.00
   11  -14   11     -0.29      0.00
   12  -14   11     -0.04      0.00
   -5  -13   11      0.75      0.00
   -4  -13   11     -0.54      0.00
   -3  -13   11      0.37      0.00
   -2  -13   11     -0.38      0.00
   -1  -13   11      0.11      0.00
    0  -13   11      0.65      0.00
    1  -13   11     -1.04      0.00
    2  -13   11      0.28      0.00
    3  -13   11      0.51      0.00
    4  -13   11     -0.33      0.00
    5  -13   11      0.18      0.00
    6  -13   11     -0.15      0.00
    7  -13   11      0.40      0.00
    8  -13   11     -0.22      0.00
    9  -13   11     -0.65      0.00
   10  -13   11      0.40      0.00
   11  -13   11     -0.43      0.00
   12  -13   11      0.19      0.00
   -6  -12   11     -0.30      0.00
   -5  -12   11     -0.04      0.00
   -4  -12   11      0.04      0.00
   -3  -12   11     -0.01      0.00
   -2  -12   11     -0.08      0.00
   -1  -12   11     -0.48      0.00
    0  -12   11      0.75      0.00
    1  -12   11      0.49      0.00
    2  -12   11     -0.95      0.00
    3  -12   11      0.41      0.00
    4  -12   11      0.15      0.00
    5  -12   11     -0.06      0.00
    6  -12   11     -0.09      0.00
    7  -12   11     -0.51      0.00
    8  -12   11      0.27      0.00
    9  -12   11     -0.10      0.00
   10  -12   11      0.17      0.00
   11  -12   11      0.19      0.00
   12  -12   11     -0.10      0.00
   13  -12   11     -0.26      0.00
   -7  -11   11     -0.71      0.00
   -6  -11   11      0.57      0.00
   -5  -11   11      0.45      0.00
   -4  -11   11     -0.31      0.00
   -3  -11   11     -0.26      0.00
   -2  -11   11      0.54      0.00
   -1  -11   11     -0.47      0.00
    0  -11   11      0.12      0.00
    1  -11   11      0.26      0.00
    2  -11   11     -0.33      0.00
    3  -11   11      0.32      0.00
    4  -11   11     -0.17      0.00
    5  -11   11      0.02      0.00
    6  -11   11      0.17      0.00
    7  -11   11      0.09      0.00
    8  -11   11     -1.08      0.00
    9  -11   11      1.20      0.00
   10  -11   11     -1.44      0.00
   11  -11   11      1.13      0.00
   12  -11   11      0.27      0.00
   13  -11   11     -0.23      0.00
   -8  -10   11      0.04      0.00
   -7  -10   11     -0.26      0.00
   -6  -10   11      0.76      0.00
   -5  -10   11     -1.51      0.00
   -4  -10   11      1.37      0.00
   -3  -10   11     -0.96      0.00
   -2  -10   11      0.37      0.00
   -1  -10   11      0.19      0.00
    0  -10   11      0.17      0.00
    1  -10   11      0.20      0.00
    2  -10   11     -0.42      0.00
    3  -10   11      0.03      0.00
    4  -10   11      0.46      0.00
    5  -10   11     -0.80      0.00
    6  -10   11      0.11      0.00
    7  -10   11     -0.35      0.00
    8  -10   11      1.15      0.00
    9  -10   11     -1.15      0.00
   10  -10   11      0.84      0.00
   11  -10   11     -0.27      0.00
   12  -10   11     -0.27      0.00
   13  -10   11      0.85      0.00
   -9   -9   11     -0.32      0.00
   -8   -9   11     -0.58      0.00
   -7   -9   11      0.20      0.00
   -6   -9   11      0.66      0.00
   -5   -9   11      0.12      0.00
   -4   -9   11     -0.81      0.00
   -3   -9   11      0.70      0.00
   -2   -9   11     -0.21      0.00
   -1   -9   11     -0.11      0.00
    0   -9   11      0.30      0.00
    1   -9   11      0.03      0.00
    2   -9   11     -0.45      0.00
    3   -9   11      0.24      0.00
    4   -9   11     -0.07      0.00
    5   -9   11      0.62      0.00
    6   -9   11     -0.71      0.00
    7   -9   11     -0.41      0.00
    8   -9   11      0.60      0.00
    9   -9   11     -0.40      0.00
   10   -9   11      0.32      0.00
   11   -9   11      0.25      0.00
   12   -9   11     -0.09      0.00
   13   -9   11     -0.17      0.00
  -10   -8   11     -0.44      0.00
   -9   -8   11      0.13      0.00
   -8   -8   11      0.68      0.00
   -7   -8   11     -0.67      0.00
   -6   -8   11      0.05      0.00
   -5   -8   11     -0.24      0.00
   -4   -8   11      0.36      0.00
   -3   -8   11     -0.34      0.00
   -2   -8   11      0.57      0.00
   -1   -8   11     -0.24      0.00
    0   -8   11      0.84      0.00
    1   -8   11     -1.03      0.00
    2   -8   11      0.82      0.00
    3   -8   11     -1.35      0.00
    4   -8   11      1.42      0.00
    5   -8   11     -1.56      0.00
    6   -8   11      0.87      0.00
    7   -8   11      0.30      0.00
    8   -8   11     -0.70      0.00
    9   -8   11      1.04      0.00
   10   -8   11     -1.29      0.00
   11   -8   11      0.92      0.00
   12   -8   11      0.15      0.00
   13   -8   11     -0.79      0.00
  -11   -7   11      0.49      0.00
  -10   -7   11     -0.29      0.00
   -9   -7   11     -1.02      0.00
   -8   -7   11     -0.21      0.00
   -7   -7   11      1.71      0.00
   -6   -7   11     -0.79      0.00
   -5   -7   11     -0.22      0.00
   -4   -7   11      0.33      0.00
   -3   -7   11     -0.01      0.00
   -2   -7   11      0.10      0.00
   -1   -7   11      0.44      0.00
    0   -7   11     -1.08      0.00
    1   -7   11      0.80      0.00
    2   -7   11     -0.45      0.00
    3   -7   11      0.07      0.00
    4   -7   11      0.48      0.00
    5   -7   11     -0.22      0.00
    6   -7   11     -0.65      0.00
    7   -7   11      0.21      0.00
    8   -7   11      0.15      0.00
    9   -7   11      0.30      0.00
   10   -7   11     -0.15      0.00
   11   -7   11      0.04      0.00
   12   -7   11     -0.35      0.00
   13   -7   11      0.85      0.00
  -12   -6   11      0.49      0.00
  -11   -6   11     -1.06      0.00
  -10   -6   11      0.83      0.00
   -9   -6   11     -0.16      0.00
   -8   -6   11     -0.29      0.00
   -7   -6   11      0.16      0.00
   -6   -6   11     -0.98      0.00
   -5   -6   11      1.87      0.00
   -4   -6   11     -1.44      0.00
   -3   -6   11      0.28      0.00
   -2   -6   11      0.58      0.00
   -1   -6   11      0.56      0.00
    0   -6   11     -0.81      0.00
    1   -6   11      0.29      0.00
    2   -6   11     -1.20      0.00
    3   -6   11      1.30      0.00
    4   -6   11     -0.91      0.00
    5   -6   11      0.67      0.00
    6   -6   11     -0.37      0.00
    7   -6   11      0.15      0.00
    8   -6   11      0.71      0.00
    9   -6   11     -1.71      0.00
   10   -6   11      1.79      0.00
   11   -6   11     -1.02      0.00
   12   -6   11      0.05      0.00
  -13   -5   11     -0.17      0.00
  -12   -5   11     -0.09      0.00
  -11   -5   11      0.16      0.00
  -10   -5   11     -0.81      0.00
   -9   -5   11     -0.59      0.00
   -8   -5   11      1.88      0.00
   -7   -5   11     -1.45      0.00
   -6   -5   11      0.62      0.00
   -5   -5   11     -0.37      0.00
   -4   -5   11      1.10      0.00
   -3   -5   11     -0.66      0.00
   -2   -5   11      0.19      0.00
   -1   -5   11     -0.86      0.00
    0   -5   11      1.33      0.00
    1   -5   11     -1.39      0.00
    2   -5   11      1.13      0.00
    3   -5   11     -0.77      0.00
    4   -5   11      0.41      0.00
    5   -5   11      0.22      0.00
    6   -5   11     -0.78      0.00
    7   -5   11      0.10      0.00
    8   -5   11      0.50      0.00
    9   -5   11     -0.04      0.00
   10   -5   11      0.16      0.00
   11   -5   11     -0.58      0.00
   12   -5   11      0.28      0.00
  -13   -4   11      0.24      0.00
  -12   -4   11     -0.58      0.00
  -11   -4   11      1.00      0.00
  -10   -4   11     -1.96      0.00
   -9   -4   11      2.13      0.00
   -8   -4   11     -1.64      0.00
   -7   -4   11      0.42      0.00
   -6   -4   11      0.52      0.00
   -5   -4   11     -0.88      0.00
   -4   -4   11      0.72      0.00
   -3   -4   11      0.65      0.00
   -2   -4   11     -0.95      0.00
   -1   -4   11      1.17      0.00
    0   -4   11     -1.46      0.00
    1   -4   11      0.27      0.00
    2   -4   11      0.40      0.00
    3   -4   11     -0.61      0.00
    4   -4   11      0.65      0.00
    5   -4   11     -0.41      0.00
    6   -4   11      0.42      0.00
    7   -4   11      0.08      0.00
    8   -4   11     -0.76      0.00
    9   -4   11      0.39      0.00
   10   -4   11      0.09      0.00
   11   -4   11      0.09      0.00
   12   -4   11     -0.08      0.00
  -14   -3   11     -0.98      0.00
  -13   -3   11      0.92      0.00
  -12   -3   11     -1.04      0.00
  -11   -3   11      0.70      0.00
  -10   -3   11     -0.81      0.00
   -9   -3   11     -0.19      0.00
   -8   -3   11      0.84      0.00
   -7   -3   11     -0.03      0.00
   -6   -3   11     -0.67      0.00
   -5   -3   11      0.95      0.00
   -4   -3   11     -0.09      0.00
   -3   -3   11     -0.29      0.00
   -2   -3   11      0.11      0.00
   -1   -3   11     -0.30      0.00
    0   -3   11     -0.13      0.00
    1   -3   11      0.55      0.00
    2   -3   11     -0.18      0.00
    3   -3   11     -0.45      0.00
    4   -3   11      0.90      0.00
    5   -3   11     -0.71      0.00
    6   -3   11     -0.31      0.00
    7   -3   11      0.72      0.00
    8   -3   11     -0.53      0.00
    9   -3   11      0.94      0.00
   10   -3   11     -1.11      0.00
   11   -3   11      0.40      0.00
  -14   -2   11      0.45      0.00
  -13   -2   11     -0.15      0.00
  -12   -2   11      0.00      0.00
  -11   -2   11     -0.93      0.00
  -10   -2   11      1.20      0.00
   -9   -2   11     -0.88      0.00
   -8   -2   11     -0.20      0.00
   -7   -2   11      0.78      0.00
   -6   -2   11     -0.31      0.00
   -5   -2   11     -0.35      0.00
   -4   -2   11      1.29      0.00
   -3   -2   11     -0.96      0.00
   -2   -2   11      1.04      0.00
   -1   -2   11     -1.80      0.00
    0   -2   11      1.08      0.00
    1   -2   11     -0.40      0.00
    2   -2   11      0.12      0.00
    3   -2   11      0.36      0.00
    4   -2   11     -0.73      0.00
    5   -2   11      0.73      0.00
    6   -2   11      0.10      0.00
    7   -2   11     -0.95      0.00
    8   -2   11      0.61      0.00
    9   -2   11     -0.18      0.00
  -15   -1   11     -0.30      0.00
  -14   -1   11      0.06      0.00
  -13   -1   11     -0.07      0.00
  -12   -1   11      0.45      0.00
  -11   -1   11     -0.99      0.00
  -10   -1   11      0.00      0.00
   -9   -1   11      0.45      0.00
   -8   -1   11      0.42      0.00
   -7   -1   11     -0.86      0.00
   -6   -1   11      0.98      0.00
   -5   -1   11     -0.23      0.00
   -4   -1   11     -1.02      0.00
   -3   -1   11      2.11      0.00
   -2   -1   11     -1.94      0.00
   -1   -1   11      0.46      0.00
    0   -1   11      0.26      0.00
    1   -1   11     -0.37      0.00
    2   -1   11      0.48      0.00
    3   -1   11      0.18      0.00
    4   -1   11     -0.90      0.00
    5   -1   11      0.40      0.00
    6   -1   11      0.20      0.00
    7   -1   11     -0.11      0.00
    8   -1   11     -0.03      0.00
    9   -1   11     -0.25      0.00
  -15    0   11      0.40      0.00
  -14    0   11      0.04      0.00
  -13    0   11     -0.57      0.00
  -12    0   11      0.50      0.00
  -11    0   11     -0.42      0.00
  -10    0   11     -0.16      0.00
   -9    0   11     -0.08      0.00
   -8    0   11      0.36      0.00
   -7    0   11     -0.24      0.00
   -6    0   11      0.70      0.00
   -5    0   11     -0.45      0.00
   -4    0   11      0.12      0.00
   -3    0   11      0.27      0.00
   -2    0   11     -0.64      0.00
   -1    0   11      0.59      0.00
    0    0   11     -1.08      0.00
    1    0   11      0.87      0.00
    2    0   11      0.24      0.00
    3    0   11     -0.81      0.00
    4    0   11      1.37      0.00
    5    0   11     -2.02      0.00
    6    0   11      1.23      0.00
    7    0   11      0.36      0.00
    8    0   11     -0.60      0.00
    9    0   11     -0.34      0.00
   10    0   11      0.74      0.00
  -16    1   11      0.27      0.00
  -15    1   11      0.03      0.00
  -14    1   11     -0.51      0.00
  -13    1   11     -0.03      0.00
  -12    1   11      0.45      0.00
  -11    1   11     -0.97      0.00
  -10    1   11      1.00      0.00
   -9    1   11     -0.07      0.00
   -8    1   11     -0.76      0.00
   -7    1   11      1.22      0.00
   -6    1   11     -1.43      0.00
   -5    1   11      1.46      0.00
   -4    1   11     -0.40      0.00
   -3    1   11     -0.74      0.00
   -2    1   11      0.49      0.00
   -1    1   11      0.58      0.00
    0    1   11     -1.38      0.00
    1    1   11      1.12      0.00
    2    1   11     -0.51      0.00
    3    1   11      0.07      0.00
    4    1   11      0.48      0.00
    5    1   11     -0.65      0.00
    6    1   11      0.03      0.00
    7    1   11      0.10      0.00
    8    1   11      0.35      0.00
    9    1   11      0.24      0.00
  -16    2   11      0.17      0.00
  -15    2   11      0.92      0.00
  -14    2   11     -0.30      0.00
  -13    2   11     -0.85      0.00
  -12    2   11      0.36      0.00
  -11    2   11      0.06      0.00
  -10    2   11     -0.53      0.00
   -9    2   11      0.55      0.00
   -8    2   11      0.31      0.00
   -7    2   11     -0.81      0.00
   -6    2   11      0.96      0.00
   -5    2   11     -0.63      0.00
   -4    2   11      1.29      0.00
   -3    2   11     -2.44      0.00
   -2    2   11      2.44      0.00
   -1    2   11     -2.59      0.00
    0    2   11      2.59      0.00
    1    2   11     -1.69      0.00
    2    2   11      0.93      0.00
    3    2   11     -0.43      0.00
    4    2   11     -0.46      0.00
    5    2   11      0.59      0.00
    6    2   11      0.90      0.00
    7    2   11     -1.83      0.00
    8    2   11      1.00      0.00
  -16    3   11     -0.38      0.00
  -15    3   11     -0.20      0.00
  -14    3   11     -0.20      0.00
  -13    3   11      0.82      0.00
  -12    3   11     -1.31      0.00
  -11    3   11      1.09      0.00
  -10    3   11      0.05      0.00
   -9    3   11     -0.40      0.00
   -8    3   11      0.02      0.00
   -7    3   11     -0.24      0.00
   -6    3   11      0.48      0.00
   -5    3   11     -0.08      0.00
   -4    3   11      0.16      0.00
   -3    3   11     -0.09      0.00
   -2    3   11     -0.59      0.00
   -1    3   11      1.00      0.00
    0    3   11     -0.96      0.00
    1    3   11     -0.01      0.00
    2    3   11      0.61      0.00
    3    3   11      0.33      0.00
    4    3   11     -0.96      0.00
    5    3   11     -0.17      0.00
    6    3   11      1.28      0.00
    7    3   11     -0.74      0.00
    8    3   11      0.24      0.00
  -16    4   11      1.81      0.00
  -15    4   11     -1.20      0.00
  -14    4   11      0.17      0.00
  -13    4   11     -0.40      0.00
  -12    4   11      0.57      0.00
  -11    4   11     -1.12      0.00
  -10    4   11      0.94      0.00
   -9    4   11      0.58      0.00
   -8    4   11     -1.45      0.00
   -7    4   11      1.18      0.00
   -6    4   11     -0.47      0.00
   -5    4   11      0.81      0.00
   -4    4   11     -1.16      0.00
   -3    4   11      0.88      0.00
   -2    4   11     -1.59      0.00
   -1    4   11      1.79      0.00
    0    4   11     -0.83      0.00
    1    4   11      0.96      0.00
    2    4   11     -2.22      0.00
    3    4   11      1.68      0.00
    4    4   11      0.54      0.00
    5    4   11     -0.98      0.00
    6    4   11      0.10      0.00
    7    4   11      0.14      0.00
  -16    5   11     -0.88      0.00
  -15    5   11      0.72      0.00
  -14    5   11     -0.14      0.00
  -13    5   11     -0.24      0.00
  -12    5   11      0.45      0.00
  -11    5   11     -0.17      0.00
  -10    5   11      0.39      0.00
   -9    5   11     -1.16      0.00
   -8    5   11      1.53      0.00
   -7    5   11     -1.54      0.00
   -6    5   11      0.80      0.00
   -5    5   11      0.27      0.00
   -4    5   11      0.22      0.00
   -3    5   11     -0.90      0.00
   -2    5   11      1.09      0.00
   -1    5   11     -1.93      0.00
    0    5   11      1.26      0.00
    1    5   11      0.59      0.00
    2    5   11     -0.40      0.00
    3    5   11     -1.41      0.00
    4    5   11      1.59      0.00
    5    5   11      0.02      0.00
    6    5   11     -0.27      0.00
  -16    6   11      0.23      0.00
  -15    6   11     -0.99      0.00
  -14    6   11      0.05      0.00
  -13    6   11      1.23      0.00
  -12    6   11     -2.08      0.00
  -11    6   11      1.76      0.00
  -10    6   11     -0.82      0.00
   -9    6   11      0.31      0.00
   -8    6   11     -0.35      0.00
   -7    6   11      1.10      0.00
   -6    6   11     -0.97      0.00
   -5    6   11      0.53      0.00
   -4    6   11     -0.85      0.00
   -3    6   11      0.58      0.00
   -2    6   11      0.06      0.00
   -1    6   11     -0.18      0.00
    0    6   11     -0.64      0.00
    1    6   11      1.09      0.00
    2    6   11     -0.84      0.00
    3    6   11      1.18      0.00
    4    6   11     -1.31      0.00
    5    6   11      1.08      0.00
  -16    7   11      0.54      0.00
  -15    7   11     -0.61      0.00
  -14    7   11      0.25      0.00
  -13    7   11     -0.17      0.00
  -12    7   11      0.98      0.00
  -11    7   11     -1.13      0.00
  -10    7   11      0.59      0.00
   -9    7   11     -0.18      0.00
   -8    7   11     -0.48      0.00
   -7    7   11      0.26      0.00
   -6    7   11      1.03      0.00
   -5    7   11     -1.06      0.00
   -4    7   11      0.40      0.00
   -3    7   11      0.34      0.00
   -2    7   11     -1.67      0.00
   -1    7   11      2.02      0.00
    0    7   11     -1.47      0.00
    1    7   11      0.77      0.00
    2    7   11     -0.07      0.00
    3    7   11     -0.78      0.00
    4    7   11      1.67      0.00
  -16    8   11     -0.45      0.00
  -15    8   11     -0.04      0.00
  -14    8   11      0.65      0.00
  -13    8   11     -1.04      0.00
  -12    8   11      0.67      0.00
  -11    8   11     -0.33      0.00
  -10    8   11      0.06      0.00
   -9    8   11      0.43      0.00
   -8    8   11     -0.18      0.00
   -7    8   11     -0.17      0.00
   -6    8   11      0.84      0.00
   -5    8   11     -1.40      0.00
   -4    8   11      0.96      0.00
   -3    8   11     -0.45      0.00
   -2    8   11     -0.17      0.00
   -1    8   11      0.23      0.00
    0    8   11      0.14      0.00
    1    8   11     -0.41      0.00
    2    8   11      0.89      0.00
    3    8   11     -0.55      0.00
  -16    9   11     -0.43      0.00
  -15    9   11      0.32      0.00
  -14    9   11     -0.26      0.00
  -13    9   11      0.49      0.00
  -12    9   11     -0.12      0.00
  -11    9   11     -0.05      0.00
  -10    9   11     -0.33      0.00
   -9    9   11      0.02      0.00
   -8    9   11      0.28      0.00
   -7    9   11      0.16      0.00
   -6    9   11     -0.38      0.00
   -5    9   11      0.52      0.00
   -4    9   11     -0.04      0.00
   -3    9   11     -0.86      0.00
   -2    9   11      0.83      0.00
   -1    9   11     -0.82      0.00
    0    9   11      0.95      0.00
    1    9   11     -0.71      0.00
  -14   10   11     -0.41      0.00
  -13   10   11     -0.39      0.00
  -12   10   11      0.80      0.00
  -11   10   11     -0.62      0.00
  -10   10   11      0.27      0.00
   -9   10   11      0.28      0.00
   -8   10   11     -0.38      0.00
   -7   10   11      0.93      0.00
   -6   10   11     -1.10      0.00
   -5   10   11      0.47      0.00
   -4   10   11     -0.61      0.00
   -3   10   11      0.54      0.00
   -2   10   11     -0.03      0.00
   -1   10   11     -0.62      0.00
    0   10   11      1.00      0.00
  -14   11   11     -0.76      0.00
  -13   11   11      0.96      0.00
  -12   11   11     -0.62      0.00
  -11   11   11      0.50      0.00
  -10   11   11     -0.72      0.00
   -9   11   11      0.23      0.00
   -8   11   11      0.34      0.00
   -7   11   11     -0.51      0.00
   -6   11   11      1.14      0.00
   -5   11   11     -0.74      0.00
   -4   11   11     -0.78      0.00
   -3   11   11      1.30      0.00
   -2   11   11     -0.97      0.00
  -13   12   11     -0.41      0.00
  -12   12   11      0.02      0.00
  -11   12   11      0.37      0.00
  -10   12   11      0.20      0.00
   -9   12   11     -0.49      0.00
   -8   12   11      0.85      0.00
   -7   12   11     -0.74      0.00
   -6   12   11     -0.09      0.00
   -5   12   11      0.58      0.00
   -4   12   11     -0.98      0.00
  -10   13   11     -0.62      0.00
   -9   13   11      0.32      0.00
   -8   13   11      0.39      0.00
    1  -16   12     -0.25      0.00
    2  -16   12     -0.32      0.00
    3  -16   12      0.70      0.00
    4  -16   12     -0.51      0.00
    5  -16   12      0.07      0.00
    6  -16   12      0.15      0.00
    7  -16   12     -0.29      0.00
    8  -16   12      0.05      0.00
    9  -16   12      0.91      0.00
    0  -15   12      1.38      0.00
    1  -15   12     -0.50      0.00
    2  -15   12      0.12      0.00
    3  -15   12     -0.17      0.00
    4  -15   12      0.01      0.00
    5  -15   12     -0.36      0.00
    6  -15   12      0.24      0.00
    7  -15   12      0.33      0.00
    8  -15   12     -0.67      0.00
    9  -15   12      0.87      0.00
   10  -15   12      0.09      0.00
   -1  -14   12     -0.30      0.00
    0  -14   12     -0.28      0.00
    1  -14   12      0.30      0.00
    2  -14   12     -0.27      0.00
    3  -14   12      0.20      0.00
    4  -14   12      0.37      0.00
    5  -14   12     -0.98      0.00
    6  -14   12      0.66      0.00
    7  -14   12     -0.16      0.00
    8  -14   12      1.37      0.00
    9  -14   12     -1.74      0.00
   10  -14   12      0.61      0.00
   11  -14   12     -0.07      0.00
   -4  -13   12      0.61      0.00
   -3  -13   12     -0.16      0.00
   -2  -13   12      0.11      0.00
   -1  -13   12     -0.29      0.00
    0  -13   12      0.21      0.00
    1  -13   12      0.33      0.00
    2  -13   12     -0.35      0.00
    3  -13   12     -0.45      0.00
    4  -13   12      0.55      0.00
    5  -13   12     -0.07      0.00
    6  -13   12     -0.08      0.00
    7  -13   12     -0.45      0.00
    8  -13   12      1.08      0.00
    9  -13   12     -0.02      0.00
   10  -13   12     -0.49      0.00
   11  -13   12      0.13      0.00
   -6  -12   12     -0.23      0.00
   -5  -12   12      0.47      0.00
   -4  -12   12     -0.36      0.00
   -3  -12   12      0.10      0.00
   -2  -12   12      0.13      0.00
   -1  -12   12     -0.15      0.00
    0  -12   12     -0.63      0.00
    1  -12   12      0.35      0.00
    2  -12   12      0.46      0.00
    3  -12   12     -0.35      0.00
    4  -12   12     -0.29      0.00
    5  -12   12      0.40      0.00
    6  -12   12      0.45      0.00
    7  -12   12     -0.12      0.00
    8  -12   12     -0.61      0.00
    9  -12   12      0.99      0.00
   10  -12   12     -1.63      0.00
   11  -12   12      1.13      0.00
   12  -12   12     -0.07      0.00
   -7  -11   12     -0.87      0.00
   -6  -11   12      0.48      0.00
   -5  -11   12     -0.81      0.00
   -4  -11   12      0.78      0.00
   -3  -11   12     -0.28      0.00
   -2  -11   12     -0.12      0.00
   -1  -11   12      0.14      0.00
    0  -11   12      0.18      0.00
    1  -11   12     -0.52      0.00
    2  -11   12      0.35      0.00
    3  -11   12     -0.07      0.00
    4  -11   12      0.11      0.00
    5  -11   12     -0.24      0.00
    6  -11   12      0.11      0.00
    7  -11   12      0.37      0.00
    8  -11   12     -0.05      0.00
    9  -11   12      0.23      0.00
   10  -11   12     -0.62      0.00
   11  -11   12     -0.08      0.00
   12  -11   12     -0.18      0.00
   -8  -10   12     -0.88      0.00
   -7  -10   12      0.83      0.00
   -6  -10   12      0.25      0.00
   -5  -10   12     -0.70      0.00
   -4  -10   12      0.63      0.00
   -3  -10   12     -0.43      0.00
   -2  -10   12     -0.17      0.00
   -1  -10   12     -0.10      0.00
    0  -10   12     -0.01      0.00
    1  -10   12      0.25      0.00
    2  -10   12      0.05      0.00
    3  -10   12     -0.19      0.00
    4  -10   12      0.38      0.00
    5  -10   12      0.31      0.00
    6  -10   12     -0.19      0.00
    7  -10   12     -0.64      0.00
    8  -10   12      0.81      0.00
    9  -10   12     -1.09      0.00
   10  -10   12      0.83      0.00
   11  -10   12     -0.26      0.00
   12  -10   12     -0.15      0.00
   -9   -9   12      0.12      0.00
   -8   -9   12      0.11      0.00
   -7   -9   12     -0.78      0.00
   -6   -9   12     -0.19      0.00
   -5   -9   12      0.79      0.00
   -4   -9   12     -0.62      0.00
   -3   -9   12      0.34      0.00
   -2   -9   12     -0.40      0.00
   -1   -9   12      0.14      0.00
    0   -9   12      0.29      0.00
    1   -9   12     -0.53      0.00
    2   -9   12      0.98      0.00
    3   -9   12     -1.01      0.00
    4   -9   12      0.43      0.00
    5   -9   12     -0.25      0.00
    6   -9   12      0.82      0.00
    7   -9   12     -0.17      0.00
    8   -9   12     -0.75      0.00
    9   -9   12      0.59      0.00
   10   -9   12     -0.43      0.00
   11   -9   12     -0.16      0.00
   12   -9   12      0.34      0.00
  -10   -8   12     -0.71      0.00
   -9   -8   12     -0.26      0.00
   -8   -8   12      0.10      0.00
   -7   -8   12      1.09      0.00
   -6   -8   12     -1.16      0.00
   -5   -8   12      0.31      0.00
   -4   -8   12      0.36      0.00
   -3   -8   12     -0.74      0.00
   -2   -8   12     -0.26      0.00
   -1   -8   12      0.50      0.00
    0   -8   12     -0.31      0.00
    1   -8   12      0.31      0.00
    2   -8   12      0.44      0.00
    3   -8   12     -0.21      0.00
    4   -8   12      0.22      0.00
    5   -8   12     -0.22      0.00
    6   -8   12     -0.45      0.00
    7   -8   12      0.73      0.00
    8   -8   12     -0.88      0.00
    9   -8   12      0.23      0.00
   10   -8   12      0.66      0.00
   11   -8   12     -0.77      0.00
   12   -8   12      0.25      0.00
  -11   -7   12      0.19      0.00
  -10   -7   12      1.18      0.00
   -9   -7   12     -0.20      0.00
   -8   -7   12     -1.17      0.00
   -7   -7   12      0.45      0.00
   -6   -7   12     -0.11      0.00
   -5   -7   12      0.34      0.00
   -4   -7   12     -0.59      0.00
   -3   -7   12      0.30      0.00
   -2   -7   12     -0.63      0.00
   -1   -7   12      1.25      0.00
    0   -7   12     -0.86      0.00
    1   -7   12      0.67      0.00
    2   -7   12     -0.68      0.00
    3   -7   12      0.63      0.00
    4   -7   12     -1.02      0.00
    5   -7   12      1.48      0.00
    6   -7   12     -0.61      0.00
    7   -7   12     -0.13      0.00
    8   -7   12      0.10      0.00
    9   -7   12     -1.04      0.00
   10   -7   12      1.59      0.00
   11   -7   12     -0.93      0.00
   12   -7   12     -0.21      0.00
  -12   -6   12      0.04      0.00
  -11   -6   12      0.53      0.00
  -10   -6   12     -1.30      0.00
   -9   -6   12      1.07      0.00
   -8   -6   12      0.58      0.00
   -7   -6   12     -1.16      0.00
   -6   -6   12      0.44      0.00
   -5   -6   12     -0.10      0.00
   -4   -6   12     -0.15      0.00
   -3   -6   12     -0.10      0.00
   -2   -6   12     -0.39      0.00
   -1   -6   12     -0.12      0.00
    0   -6   12      1.19      0.00
    1   -6   12     -0.23      0.00
    2   -6   12     -0.03      0.00
    3   -6   12      0.12      0.00
    4   -6   12     -0.46      0.00
    5   -6   12      0.04      0.00
    6   -6   12      0.01      0.00
    7   -6   12      0.11      0.00
    8   -6   12     -0.23      0.00
    9   -6   12      0.26      0.00
   10   -6   12      0.00      0.00
   11   -6   12     -0.22      0.00
   12   -6   12      0.28      0.00
  -12   -5   12      0.51      0.00
  -11   -5   12      0.33      0.00
  -10   -5   12      0.03      0.00
   -9   -5   12     -0.01      0.00
   -8   -5   12     -0.71      0.00
   -7   -5   12      0.16      0.00
   -6   -5   12      1.06      0.00
   -5   -5   12     -2.19      0.00
   -4   -5   12      1.05      0.00
   -3   -5   12      0.38      0.00
   -2   -5   12     -0.22      0.00
   -1   -5   12      0.13      0.00
    0   -5   12      0.08      0.00
    1   -5   12     -0.68      0.00
    2   -5   12      1.39      0.00
    3   -5   12     -1.70      0.00
    4   -5   12      1.32      0.00
    5   -5   12     -0.55      0.00
    6   -5   12      0.57      0.00
    7   -5   12     -0.53      0.00
    8   -5   12     -0.62      0.00
    9   -5   12      0.99      0.00
   10   -5   12     -0.55      0.00
   11   -5   12      0.20      0.00
  -13   -4   12      0.90      0.00
  -12   -4   12     -0.56      0.00
  -11   -4   12      0.75      0.00
  -10   -4   12     -0.94      0.00
   -9   -4   12      1.58      0.00
   -8   -4   12     -1.70      0.00
   -7   -4   12      1.18      0.00
   -6   -4   12     -0.73      0.00
   -5   -4   12      0.40      0.00
   -4   -4   12     -1.04      0.00
   -3   -4   12      0.38      0.00
   -2   -4   12     -0.12      0.00
   -1   -4   12      1.46      0.00
    0   -4   12     -1.56      0.00
    1   -4   12      1.47      0.00
    2   -4   12     -0.86      0.00
    3   -4   12     -0.05      0.00
    4   -4   12      0.41      0.00
    5   -4   12     -0.87      0.00
    6   -4   12      0.55      0.00
    7   -4   12      0.00      0.00
    8   -4   12      0.32      0.00
    9   -4   12     -0.39      0.00
   10   -4   12     -0.20      0.00
   11   -4   12      0.26      0.00
  -13   -3   12     -0.36      0.00
  -12   -3   12      1.29      0.00
  -11   -3   12     -1.47      0.00
  -10   -3   12      2.12      0.00
   -9   -3   12     -2.04      0.00
   -8   -3   12      0.66      0.00
   -7   -3   12     -0.10      0.00
   -6   -3   12     -0.34      0.00
   -5   -3   12      0.10      0.00
   -4   -3   12      0.33      0.00
   -3   -3   12     -0.96      0.00
   -2   -3   12      2.05      0.00
   -1   -3   12     -1.83      0.00
    0   -3   12      1.06      0.00
    1   -3   12     -0.69      0.00
    2   -3   12      0.19      0.00
    3   -3   12      0.29      0.00
    4   -3   12     -0.31      0.00
    5   -3   12      0.51      0.00
    6   -3   12     -0.18      0.00
    7   -3   12     -0.87      0.00
    8   -3   12      0.84      0.00
    9   -3   12     -0.24      0.00
   10   -3   12      0.05      0.00
  -14   -2   12     -0.08      0.00
  -13   -2   12     -0.06      0.00
  -12   -2   12      0.98      0.00
  -11   -2   12     -0.63      0.00
  -10   -2   12      0.02      0.00
   -9   -2   12      0.53      0.00
   -8   -2   12     -0.40      0.00
   -7   -2   12     -0.52      0.00
   -6   -2   12      0.53      0.00
   -5   -2   12     -0.27      0.00
   -4   -2   12     -0.67      0.00
   -3   -2   12      0.58      0.00
   -2   -2   12      0.42      0.00
   -1   -2   12      0.26      0.00
    0   -2   12     -0.53      0.00
    1   -2   12      0.34      0.00
    2   -2   12     -0.70      0.00
    3   -2   12      1.07      0.00
    4   -2   12     -1.05      0.00
    5   -2   12      0.16      0.00
    6   -2   12      0.45      0.00
    7   -2   12      0.00      0.00
    8   -2   12     -0.25      0.00
  -14   -1   12     -0.44      0.00
  -13   -1   12     -0.19      0.00
  -12   -1   12      0.97      0.00
  -11   -1   12     -0.32      0.00
  -10   -1   12      0.03      0.00
   -9   -1   12     -0.67      0.00
   -8   -1   12      0.44      0.00
   -7   -1   12     -0.37      0.00
   -6   -1   12      0.06      0.00
   -5   -1   12      0.47      0.00
   -4   -1   12     -0.80      0.00
   -3   -1   12      0.56      0.00
   -2   -1   12      0.23      0.00
   -1   -1   12     -0.28      0.00
    0   -1   12      0.28      0.00
    1   -1   12     -0.76      0.00
    2   -1   12      0.79      0.00
    3   -1   12     -0.65      0.00
    4   -1   12      1.47      0.00
    5   -1   12     -1.74      0.00
    6   -1   12      0.42      0.00
    7   -1   12      0.73      0.00
    8   -1   12     -0.88      0.00
  -15    0   12     -0.36      0.00
  -14    0   12      0.20      0.00
  -13    0   12      0.41      0.00
  -12    0   12     -0.13      0.00
  -11    0   12     -0.05      0.00
  -10    0   12      0.46      0.00
   -9    0   12     -0.23      0.00
   -8    0   12     -0.75      0.00
   -7    0   12      0.40      0.00
   -6    0   12     -0.18      0.00
   -5    0   12     -0.04      0.00
   -4    0   12      0.61      0.00
   -3    0   12     -1.03      0.00
   -2    0   12      0.98      0.00
   -1    0   12      0.56      0.00
    0    0   12     -1.58      0.00
    1    0   12      1.39      0.00
    2    0   12     -1.04      0.00
    3    0   12      0.12      0.00
    4    0   12      1.01      0.00
    5    0   12     -1.01      0.00
    6    0   12      0.14      0.00
    7    0   12     -0.02      0.00
  -15    1   12     -0.26      0.00
  -14    1   12      0.32      0.00
  -13    1   12      0.27      0.00
  -12    1   12     -0.26      0.00
  -11    1   12     -0.04      0.00
  -10    1   12     -0.62      0.00
   -9    1   12      0.89      0.00
   -8    1   12     -0.43      0.00
   -7    1   12      0.22      0.00
   -6    1   12     -0.63      0.00
   -5    1   12      0.27      0.00
   -4    1   12      0.50      0.00
   -3    1   12     -0.31      0.00
   -2    1   12      0.03      0.00
   -1    1   12     -0.59      0.00
    0    1   12      1.34      0.00
    1    1   12     -0.94      0.00
    2    1   12      0.14      0.00
    3    1   12      0.34      0.00
    4    1   12     -0.97      0.00
    5    1   12      1.36      0.00
    6    1   12     -0.32      0.00
    7    1   12     -1.44      0.00
  -15    2   12     -0.81      0.00
  -14    2   12      1.06      0.00
  -13    2   12      0.49      0.00
  -12    2   12     -0.90      0.00
  -11    2   12      0.76      0.00
  -10    2   12     -0.51      0.00
   -9    2   12     -0.72      0.00
   -8    2   12      1.29      0.00
   -7    2   12     -1.36      0.00
   -6    2   12      1.13      0.00
   -5    2   12     -0.90      0.00
   -4    2   12      0.21      0.00
   -3    2   12      0.83      0.00
   -2    2   12      0.04      0.00
   -1    2   12     -1.20      0.00
    0    2   12      0.56      0.00
    1    2   12      0.22      0.00
    2    2   12      0.32      0.00
    3    2   12     -0.62      0.00
    4    2   12      0.09      0.00
    5    2   12     -0.42      0.00
    6    2   12      0.69      0.00
    7    2   12      0.13      0.00
    8    2   12     -0.59      0.00
  -16    3   12      0.95      0.00
  -15    3   12     -0.88      0.00
  -14    3   12     -0.08      0.00
  -13    3   12      1.06      0.00
  -12    3   12     -1.14      0.00
  -11    3   12     -0.05      0.00
  -10    3   12      0.26      0.00
   -9    3   12      0.77      0.00
   -8    3   12     -1.39      0.00
   -7    3   12      1.62      0.00
   -6    3   12     -1.69      0.00
   -5    3   12      1.12      0.00
   -4    3   12     -1.08      0.00
   -3    3   12      1.52      0.00
   -2    3   12     -1.45      0.00
   -1    3   12      1.70      0.00
    0    3   12     -1.97      0.00
    1    3   12      2.15      0.00
    2    3   12     -2.27      0.00
    3    3   12      1.52      0.00
    4    3   12     -0.14      0.00
    5    3   12     -0.23      0.00
    7    3   12      1.55      0.00
  -16    4   12     -0.04      0.00
  -15    4   12      0.32      0.00
  -14    4   12      0.53      0.00
  -13    4   12     -0.59      0.00
  -12    4   12      0.86      0.00
  -11    4   12     -1.17      0.00
  -10    4   12      0.37      0.00
   -9    4   12      0.04      0.00
   -8    4   12     -0.04      0.00
   -7    4   12     -0.18      0.00
   -6    4   12      0.17      0.00
   -5    4   12     -0.04      0.00
   -4    4   12      0.01      0.00
   -3    4   12      0.42      0.00
   -2    4   12      0.18      0.00
   -1    4   12     -1.34      0.00
    0    4   12      0.74      0.00
    1    4   12      1.07      0.00
    2    4   12     -0.77      0.00
    3    4   12     -1.52      0.00
    4    4   12      1.68      0.00
    5    4   12     -0.08      0.00
    6    4   12     -0.52      0.00
  -16    5   12     -0.63      0.00
  -15    5   12      0.06      0.00
  -14    5   12     -0.14      0.00
  -13    5   12      0.50      0.00
  -12    5   12     -1.26      0.00
  -11    5   12      1.19      0.00
  -10    5   12     -0.48      0.00
   -9    5   12      0.28      0.00
   -8    5   12      0.17      0.00
   -7    5   12     -0.59      0.00
   -6    5   12      0.47      0.00
   -5    5   12     -0.84      0.00
   -4    5   12      0.53      0.00
   -3    5   12      0.38      0.00
   -2    5   12      0.10      0.00
   -1    5   12     -0.09      0.00
    0    5   12     -0.62      0.00
    1    5   12      0.10      0.00
    2    5   12      0.81      0.00
    3    5   12     -0.01      0.00
    4    5   12     -1.78      0.00
    5    5   12      1.54      0.00
  -16    6   12      0.80      0.00
  -15    6   12     -0.30      0.00
  -14    6   12      0.23      0.00
  -13    6   12     -0.25      0.00
  -12    6   12      0.37      0.00
  -11    6   12     -0.66      0.00
  -10    6   12      0.15      0.00
   -9    6   12      0.70      0.00
   -8    6   12     -1.43      0.00
   -7    6   12      0.90      0.00
   -6    6   12      0.15      0.00
   -5    6   12     -0.16      0.00
   -4    6   12      0.02      0.00
   -3    6   12      0.28      0.00
   -2    6   12     -0.89      0.00
   -1    6   12      1.28      0.00
    0    6   12     -0.40      0.00
    1    6   12     -0.68      0.00
    2    6   12     -0.03      0.00
    3    6   12      0.49      0.00
    4    6   12      0.18      0.00
  -16    7   12     -0.55      0.00
  -15    7   12      0.36      0.00
  -14    7   12      0.26      0.00
  -13    7   12     -1.28      0.00
  -12    7   12      1.32      0.00
  -11    7   12     -0.87      0.00
  -10    7   12      1.05      0.00
   -9    7   12     -0.84      0.00
   -8    7   12      0.82      0.00
   -7    7   12     -1.32      0.00
   -6    7   12      0.84      0.00
   -5    7   12     -0.78      0.00
   -4    7   12      1.38      0.00
   -3    7   12     -0.62      0.00
   -2    7   12     -0.32      0.00
   -1    7   12      0.50      0.00
    0    7   12     -0.13      0.00
    1    7   12     -0.17      0.00
    2    7   12      0.21      0.00
    3    7   12     -0.56      0.00
  -15    8   12      0.03      0.00
  -14    8   12      0.21      0.00
  -13    8   12      0.06      0.00
  -12    8   12     -0.71      0.00
  -11    8   12      0.83      0.00
  -10    8   12     -0.56      0.00
   -9    8   12     -0.07      0.00
   -8    8   12     -0.06      0.00
   -7    8   12      0.54      0.00
   -6    8   12     -0.72      0.00
   -5    8   12      0.98      0.00
   -4    8   12     -0.31      0.00
   -3    8   12     -0.74      0.00
   -2    8   12      1.68      0.00
   -1    8   12     -2.10      0.00
    0    8   12      1.77      0.00
    1    8   12     -1.55      0.00
  -15    9   12      0.49      0.00
  -14    9   12     -0.73      0.00
  -13    9   12      0.28      0.00
  -12    9   12      0.04      0.00
  -11    9   12      0.28      0.00
  -10    9   12     -0.12      0.00
   -9    9   12      0.06      0.00
   -8    9   12     -0.42      0.00
   -7    9   12      0.23      0.00
   -6    9   12     -0.50      0.00
   -5    9   12      1.16      0.00
   -4    9   12     -1.09      0.00
   -3    9   12      0.81      0.00
   -2    9   12     -0.06      0.00
   -1    9   12     -0.56      0.00
    0    9   12      0.52      0.00
  -14   10   12     -0.29      0.00
  -13   10   12      0.13      0.00
  -12   10   12     -0.26      0.00
  -11   10   12      0.33      0.00
  -10   10   12     -0.55      0.00
   -9   10   12      0.42      0.00
   -8   10   12     -0.47      0.00
   -7   10   12      0.17      0.00
   -6   10   12      0.66      0.00
   -5   10   12      0.00      0.00
   -4   10   12     -0.99      0.00
   -3   10   12      1.17      0.00
   -2   10   12     -0.85      0.00
  -13   11   12      0.83      0.00
  -12   11   12     -0.96      0.00
  -11   11   12      0.78      0.00
  -10   11   12      0.20      0.00
   -9   11   12     -1.00      0.00
   -8   11   12      0.88      0.00
   -7   11   12     -1.06      0.00
   -6   11   12      0.92      0.00
   -5   11   12     -0.06      0.00
   -4   11   12     -0.12      0.00
  -11   12   12     -0.56      0.00
  -10   12   12      0.39      0.00
   -9   12   12     -0.17      0.00
   -8   12   12     -0.02      0.00
   -7   12   12      0.63      0.00
    3  -16   13     -0.19      0.00
    4  -16   13      0.80      0.00
    5  -16   13     -0.51      0.00
    6  -16   13     -0.11      0.00
    0  -15   13     -0.48      0.00
    1  -15   13      0.01      0.00
    2  -15   13      0.48      0.00
    3  -15   13     -0.23      0.00
    4  -15   13      0.20      0.00
    5  -15   13      0.11      0.00
    6  -15   13     -0.43      0.00
    7  -15   13     -0.26      0.00
    8  -15   13      0.97      0.00
    9  -15   13     -1.61      0.00
   -1  -14   13      1.14      0.00
    0  -14   13     -0.72      0.00
    1  -14   13      0.01      0.00
    2  -14   13     -0.15      0.00
    3  -14   13      0.35      0.00
    4  -14   13     -0.22      0.00
    5  -14   13      0.22      0.00
    6  -14   13     -0.17      0.00
    7  -14   13     -1.07      0.00
    8  -14   13      1.18      0.00
    9  -14   13      0.13      0.00
   10  -14   13     -0.32      0.00
   -4  -13   13     -0.44      0.00
   -2  -13   13     -0.44      0.00
   -1  -13   13      0.73      0.00
    0  -13   13     -0.64      0.00
    1  -13   13     -0.18      0.00
    2  -13   13      0.92      0.00
    3  -13   13     -0.24      0.00
    4  -13   13     -0.82      0.00
    5  -13   13      0.72      0.00
    6  -13   13     -0.19      0.00
    7  -13   13      0.24      0.00
    8  -13   13     -1.43      0.00
    9  -13   13      1.40      0.00
   10  -13   13     -0.37      0.00
   -5  -12   13      0.27      0.00
   -4  -12   13      0.05      0.00
   -3  -12   13      0.02      0.00
   -2  -12   13     -0.03      0.00
   -1  -12   13      0.30      0.00
    0  -12   13      0.38      0.00
    1  -12   13     -1.24      0.00
    2  -12   13      0.46      0.00
    3  -12   13      0.65      0.00
    4  -12   13     -0.67      0.00
    5  -12   13     -0.24      0.00
    6  -12   13     -0.30      0.00
    7  -12   13      1.04      0.00
    8  -12   13     -0.51      0.00
    9  -12   13      0.49      0.00
   10  -12   13     -0.25      0.00
   11  -12   13     -0.16      0.00
   -6  -11   13      0.57      0.00
   -5  -11   13     -1.26      0.00
   -4  -11   13      1.13      0.00
   -3  -11   13     -0.58      0.00
   -2  -11   13      0.13      0.00
   -1  -11   13     -0.07      0.00
    0  -11   13      0.08      0.00
    1  -11   13      0.12      0.00
    2  -11   13     -0.16      0.00
    3  -11   13     -0.23      0.00
    4  -11   13      0.19      0.00
    5  -11   13      0.35      0.00
    6  -11   13     -0.80      0.00
    7  -11   13      0.27      0.00
    8  -11   13      0.25      0.00
    9  -11   13     -0.68      0.00
   10  -11   13      1.70      0.00
   11  -11   13     -1.01      0.00
   -8  -10   13     -0.73      0.00
   -7  -10   13      0.57      0.00
   -6  -10   13     -0.61      0.00
   -5  -10   13      0.53      0.00
   -4  -10   13     -0.12      0.00
   -3  -10   13      0.46      0.00
   -2  -10   13     -0.26      0.00
   -1  -10   13      0.40      0.00
    0  -10   13     -0.91      0.00
    1  -10   13      0.36      0.00
    2  -10   13      0.14      0.00
    3  -10   13     -0.44      0.00
    4  -10   13     -0.03      0.00
    5  -10   13     -0.20      0.00
    6  -10   13      0.78      0.00
    7  -10   13     -0.10      0.00
    8  -10   13      0.11      0.00
    9  -10   13     -0.46      0.00
   10  -10   13      0.61      0.00
   11  -10   13     -0.68      0.00
   -9   -9   13      0.37      0.00
   -8   -9   13      0.63      0.00
   -7   -9   13      0.14      0.00
   -6   -9   13     -0.65      0.00
   -5   -9   13      0.53      0.00
   -4   -9   13     -0.35      0.00
   -3   -9   13      0.39      0.00
   -2   -9   13     -0.28      0.00
   -1   -9   13      0.23      0.00
    0   -9   13     -0.47      0.00
    1   -9   13     -0.11      0.00
    2   -9   13      0.63      0.00
    3   -9   13     -0.36      0.00
    4   -9   13      0.09      0.00
    5   -9   13     -0.37      0.00
    6   -9   13     -0.18      0.00
    7   -9   13      1.01      0.00
    8   -9   13     -0.67      0.00
    9   -9   13      0.23      0.00
   10   -9   13      0.53      0.00
   11   -9   13     -0.65      0.00
  -10   -8   13      0.18      0.00
   -9   -8   13      0.13      0.00
   -8   -8   13     -1.05      0.00
   -7   -8   13      0.94      0.00
   -6   -8   13     -0.05      0.00
   -5   -8   13     -0.22      0.00
   -4   -8   13      0.45      0.00
   -3   -8   13      0.25      0.00
   -2   -8   13     -0.45      0.00
   -1   -8   13      0.46      0.00
    0   -8   13     -1.26      0.00
    1   -8   13      1.01      0.00
    2   -8   13     -1.30      0.00
    3   -8   13      1.33      0.00
    4   -8   13     -0.94      0.00
    5   -8   13      1.18      0.00
    6   -8   13     -0.80      0.00
    7   -8   13      0.35      0.00
    8   -8   13      0.36      0.00
    9   -8   13     -0.60      0.00
   10   -8   13     -0.16      0.00
   11   -8   13      0.42      0.00
  -10   -7   13     -0.37      0.00
   -9   -7   13      1.54      0.00
   -8   -7   13     -0.12      0.00
   -7   -7   13     -0.75      0.00
   -6   -7   13      0.61      0.00
   -5   -7   13      0.15      0.00
   -4   -7   13     -0.39      0.00
   -3   -7   13      0.26      0.00
   -2   -7   13      0.06      0.00
   -1   -7   13     -0.99      0.00
    0   -7   13      0.78      0.00
    1   -7   13     -0.03      0.00
    2   -7   13     -0.16      0.00
    3   -7   13      0.28      0.00
    4   -7   13     -0.60      0.00
    5   -7   13      0.09      0.00
    6   -7   13      0.58      0.00
    7   -7   13     -0.46      0.00
    8   -7   13      0.54      0.00
    9   -7   13      0.10      0.00
   10   -7   13     -0.78      0.00
   11   -7   13      0.47      0.00
  -11   -6   13     -0.12      0.00
  -10   -6   13      0.00      0.00
   -9   -6   13     -0.66      0.00
   -8   -6   13      0.54      0.00
   -7   -6   13      0.13      0.00
   -6   -6   13      0.34      0.00
   -5   -6   13     -0.51      0.00
   -4   -6   13      0.77      0.00
   -3   -6   13     -0.41      0.00
   -2   -6   13      0.61      0.00
   -1   -6   13     -1.48      0.00
    0   -6   13      0.40      0.00
    1   -6   13     -0.24      0.00
    2   -6   13      0.43      0.00
    3   -6   13     -0.07      0.00
    4   -6   13      0.64      0.00
    5   -6   13     -0.67      0.00
    6   -6   13      0.56      0.00
    7   -6   13     -0.56      0.00
    8   -6   13      0.29      0.00
    9   -6   13      0.10      0.00
   10   -6   13     -0.50      0.00
   11   -6   13      0.33      0.00
  -12   -5   13      0.48      0.00
  -11   -5   13     -1.26      0.00
  -10   -5   13      0.96      0.00
   -9   -5   13      0.76      0.00
   -8   -5   13     -1.37      0.00
   -7   -5   13      1.16      0.00
   -6   -5   13     -0.11      0.00
   -5   -5   13      0.21      0.00
   -4   -5   13     -0.44      0.00
   -3   -5   13     -0.53      0.00
   -2   -5   13      0.44      0.00
   -1   -5   13      0.09      0.00
    0   -5   13     -0.17      0.00
    1   -5   13     -0.13      0.00
    2   -5   13      0.62      0.00
    3   -5   13     -0.95      0.00
    4   -5   13      0.67      0.00
    5   -5   13     -0.49      0.00
    6   -5   13      0.66      0.00
    7   -5   13     -0.39      0.00
    8   -5   13      0.76      0.00
    9   -5   13     -0.91      0.00
  -12   -4   13     -0.07      0.00
  -11   -4   13     -0.24      0.00
  -10   -4   13      0.42      0.00
   -9   -4   13     -0.81      0.00
   -8   -4   13      1.20      0.00
   -7   -4   13     -0.48      0.00
   -6   -4   13     -0.49      0.00
   -5   -4   13      1.75      0.00
   -4   -4   13     -0.84      0.00
   -3   -4   13     -0.67      0.00
   -2   -4   13      0.43      0.00
   -1   -4   13     -0.86      0.00
    0   -4   13      0.38      0.00
    1   -4   13      0.68      0.00
    2   -4   13     -1.36      0.00
    3   -4   13      1.88      0.00
    4   -4   13     -1.13      0.00
    5   -4   13      0.61      0.00
    6   -4   13     -0.42      0.00
    7   -4   13     -0.33      0.00
    8   -4   13      0.59      0.00
    9   -4   13     -0.08      0.00
  -13   -3   13     -0.50      0.00
  -12   -3   13      0.05      0.00
  -11   -3   13     -0.36      0.00
  -10   -3   13      0.65      0.00
   -9   -3   13     -0.21      0.00
   -8   -3   13      0.70      0.00
   -7   -3   13     -0.57      0.00
   -6   -3   13      0.38      0.00
   -5   -3   13     -0.31      0.00
   -4   -3   13      0.02      0.00
   -3   -3   13     -0.38      0.00
   -2   -3   13      0.51      0.00
   -1   -3   13     -0.94      0.00
    0   -3   13      1.39      0.00
    1   -3   13     -0.66      0.00
    2   -3   13     -0.42      0.00
    3   -3   13      0.53      0.00
    4   -3   13     -0.60      0.00
    5   -3   13      0.67      0.00
    6   -3   13     -0.04      0.00
    7   -3   13      0.43      0.00
    8   -3   13     -0.97      0.00
  -14   -2   13     -0.19      0.00
  -13   -2   13      0.22      0.00
  -12   -2   13     -0.84      0.00
  -11   -2   13      0.52      0.00
  -10   -2   13      0.13      0.00
   -9   -2   13     -0.35      0.00
   -8   -2   13      0.81      0.00
   -7   -2   13     -0.52      0.00
   -6   -2   13      0.49      0.00
   -5   -2   13      0.03      0.00
   -4   -2   13     -0.56      0.00
   -3   -2   13      0.52      0.00
   -2   -2   13     -1.33      0.00
   -1   -2   13      0.76      0.00
    0   -2   13      0.22      0.00
    1   -2   13     -0.19      0.00
    2   -2   13      0.30      0.00
    3   -2   13     -0.57      0.00
    4   -2   13      1.02      0.00
    5   -2   13     -0.69      0.00
    6   -2   13     -0.56      0.00
    7   -2   13      1.32      0.00
    8   -2   13     -1.03      0.00
  -14   -1   13      0.41      0.00
  -13   -1   13     -0.12      0.00
  -12   -1   13     -0.59      0.00
  -11   -1   13      0.41      0.00
  -10   -1   13      0.30      0.00
   -9   -1   13      0.35      0.00
   -8   -1   13     -0.62      0.00
   -7   -1   13      0.49      0.00
   -6   -1   13     -0.11      0.00
   -5   -1   13     -0.59      0.00
   -4   -1   13      0.74      0.00
   -3   -1   13     -0.61      0.00
   -2   -1   13      0.29      0.00
   -1   -1   13     -0.26      0.00
    0   -1   13      0.20      0.00
    1   -1   13      0.30      0.00
    2   -1   13     -0.39      0.00
    3   -1   13     -0.81      0.00
    4   -1   13      1.41      0.00
    5   -1   13     -0.38      0.00
    6   -1   13      0.11      0.00
    7   -1   13     -0.43      0.00
  -14    0   13      0.64      0.00
  -13    0   13     -0.36      0.00
  -12    0   13     -0.42      0.00
  -11    0   13      0.66      0.00
  -10    0   13     -0.47      0.00
   -9    0   13      0.82      0.00
   -8    0   13     -0.23      0.00
   -7    0   13      0.07      0.00
   -6    0   13     -0.11      0.00
   -5    0   13     -0.40      0.00
   -4    0   13      0.48      0.00
   -3    0   13     -0.15      0.00
   -2    0   13     -0.91      0.00
   -1    0   13      1.28      0.00
    0    0   13     -1.13      0.00
    1    0   13      1.30      0.00
    2    0   13     -0.99      0.00
    3    0   13      0.73      0.00
    4    0   13     -1.10      0.00
    5    0   13      1.33      0.00
    6    0   13     -0.19      0.00
    7    0   13     -1.12      0.00
  -15    1   13     -0.40      0.00
  -14    1   13      0.29      0.00
  -13    1   13     -0.14      0.00
  -12    1   13     -0.18      0.00
  -11    1   13      1.26      0.00
  -10    1   13     -1.13      0.00
   -9    1   13     -0.03      0.00
   -8    1   13      0.39      0.00
   -7    1   13      0.20      0.00
   -6    1   13     -0.15      0.00
   -5    1   13     -0.08      0.00
   -4    1   13     -0.91      0.00
   -3    1   13      1.49      0.00
   -2    1   13     -0.27      0.00
   -1    1   13     -1.27      0.00
    0    1   13      1.07      0.00
    1    1   13     -0.37      0.00
    2    1   13      0.06      0.00
    3    1   13      0.53      0.00
    4    1   13     -1.02      0.00
    5    1   13      0.94      0.00
    6    1   13     -0.14      0.00
  -15    2   13     -0.24      0.00
  -14    2   13     -0.64      0.00
  -13    2   13      0.44      0.00
  -12    2   13     -0.47      0.00
  -11    2   13      0.77      0.00
  -10    2   13      0.27      0.00
   -9    2   13     -0.24      0.00
   -8    2   13     -0.61      0.00
   -7    2   13      0.61      0.00
   -6    2   13     -0.02      0.00
   -5    2   13      0.08      0.00
   -4    2   13     -0.73      0.00
   -3    2   13      0.04      0.00
   -2    2   13      0.38      0.00
   -1    2   13      0.80      0.00
    0    2   13     -1.49      0.00
    1    2   13      0.51      0.00
    2    2   13      0.19      0.00
    3    2   13      0.26      0.00
    4    2   13      0.20      0.00
    5    2   13     -0.46      0.00
    6    2   13     -0.70      0.00
  -15    3   13      0.71      0.00
  -14    3   13     -0.24      0.00
  -13    3   13     -0.47      0.00
  -12    3   13      1.46      0.00
  -11    3   13     -1.28      0.00
  -10    3   13     -0.02      0.00
   -9    3   13      0.92      0.00
   -8    3   13     -1.47      0.00
   -7    3   13      1.62      0.00
   -6    3   13     -0.80      0.00
   -5    3   13      0.08      0.00
   -4    3   13      0.23      0.00
   -3    3   13     -0.27      0.00
   -2    3   13     -0.55      0.00
   -1    3   13      0.55      0.00
    0    3   13      0.27      0.00
    1    3   13     -0.10      0.00
    2    3   13     -1.07      0.00
    3    3   13      1.66      0.00
    4    3   13     -1.06      0.00
    5    3   13      1.06      0.00
  -15    4   13      0.22      0.00
  -14    4   13      0.15      0.00
  -13    4   13     -0.72      0.00
  -12    4   13      1.10      0.00
  -11    4   13     -0.25      0.00
  -10    4   13      0.33      0.00
   -9    4   13     -1.18      0.00
   -8    4   13      1.75      0.00
   -7    4   13     -1.88      0.00
   -6    4   13      1.62      0.00
   -5    4   13     -1.37      0.00
   -4    4   13      0.83      0.00
   -3    4   13     -0.60      0.00
   -2    4   13      0.75      0.00
   -1    4   13     -0.89      0.00
    0    4   13      1.05      0.00
    1    4   13     -1.78      0.00
    2    4   13      2.69      0.00
    3    4   13     -1.65      0.00
    4    4   13      0.16      0.00
    5    4   13     -0.31      0.00
  -15    5   13      0.01      0.00
  -14    5   13      0.04      0.00
  -13    5   13      0.31      0.00
  -12    5   13     -0.70      0.00
  -11    5   13      0.77      0.00
  -10    5   13     -0.97      0.00
   -9    5   13      0.46      0.00
   -8    5   13     -0.04      0.00
   -7    5   13      0.57      0.00
   -6    5   13     -0.48      0.00
   -5    5   13      0.21      0.00
   -4    5   13     -0.17      0.00
   -3    5   13     -0.45      0.00
   -2    5   13     -0.15      0.00
   -1    5   13      1.24      0.00
    0    5   13     -0.62      0.00
    1    5   13     -0.40      0.00
    2    5   13     -0.38      0.00
    3    5   13      2.19      0.00
    4    5   13     -1.68      0.00
  -15    6   13      0.28      0.00
  -14    6   13      0.30      0.00
  -13    6   13     -0.65      0.00
  -12    6   13      1.13      0.00
  -11    6   13     -1.14      0.00
  -10    6   13      1.21      0.00
   -9    6   13     -1.21      0.00
   -8    6   13      1.00      0.00
   -7    6   13     -0.44      0.00
   -6    6   13     -0.61      0.00
   -5    6   13      0.59      0.00
   -4    6   13      0.28      0.00
   -3    6   13     -0.60      0.00
   -2    6   13      0.00      0.00
   -1    6   13      0.07      0.00
    0    6   13      0.62      0.00
    1    6   13     -0.32      0.00
    2    6   13      0.27      0.00
    3    6   13     -0.91      0.00
  -15    7   13      0.03      0.00
  -14    7   13      0.05      0.00
  -13    7   13      0.32      0.00
  -12    7   13     -1.00      0.00
  -11    7   13      0.85      0.00
  -10    7   13     -0.63      0.00
   -9    7   13      0.15      0.00
   -8    7   13      0.36      0.00
   -7    7   13      0.44      0.00
   -6    7   13     -0.73      0.00
   -5    7   13     -0.06      0.00
   -4    7   13      0.04      0.00
   -3    7   13     -0.26      0.00
   -2    7   13      1.01      0.00
   -1    7   13     -1.24      0.00
    0    7   13      0.74      0.00
    1    7   13     -0.19      0.00
  -14    8   13     -0.44      0.00
  -13    8   13      0.70      0.00
  -12    8   13     -0.48      0.00
  -11    8   13      0.42      0.00
  -10    8   13     -0.49      0.00
   -9    8   13      0.82      0.00
   -8    8   13     -0.82      0.00
   -7    8   13      0.22      0.00
   -6    8   13     -0.35      0.00
   -5    8   13      0.76      0.00
   -4    8   13     -0.99      0.00
   -3    8   13      0.47      0.00
   -2    8   13      0.56      0.00
   -1    8   13     -0.79      0.00
    0    8   13      0.79      0.00
  -14    9   13     -0.62      0.00
  -13    9   13      0.26      0.00
  -12    9   13     -0.06      0.00
  -11    9   13     -0.06      0.00
  -10    9   13     -0.37      0.00
   -9    9   13      0.82      0.00
   -8    9   13     -0.16      0.00
   -7    9   13     -0.28      0.00
   -6    9   13      0.15      0.00
   -5    9   13     -0.26      0.00
   -4    9   13     -0.26      0.00
   -3    9   13      0.88      0.00
   -2    9   13     -1.05      0.00
  -13   10   13      0.41      0.00
  -12   10   13     -0.37      0.00
  -11   10   13     -0.09      0.00
  -10   10   13      0.80      0.00
   -9   10   13     -0.95      0.00
   -8   10   13      0.57      0.00
   -7   10   13     -0.66      0.00
   -6   10   13      0.32      0.00
   -5   10   13     -0.37      0.00
   -4   10   13      0.81      0.00
  -11   11   13     -0.47      0.00
  -10   11   13      0.76      0.00
   -9   11   13     -0.31      0.00
   -8   11   13      0.25      0.00
   -7   11   13     -0.10      0.00
    1  -15   14     -0.31      0.00
    2  -15   14     -0.27      0.00
    3  -15   14      0.88      0.00
    4  -15   14     -1.13      0.00
    5  -15   14      0.71      0.00
    6  -15   14      0.43      0.00
    7  -15   14     -0.73      0.00
   -1  -14   14      0.14      0.00
    0  -14   14      0.26      0.00
    1  -14   14      0.22      0.00
    2  -14   14     -0.23      0.00
    3  -14   14     -0.22      0.00
    4  -14   14      0.17      0.00
    5  -14   14      0.28      0.00
    6  -14   14      0.09      0.00
    7  -14   14      0.34      0.00
    8  -14   14     -1.58      0.00
   -2  -13   14      0.38      0.00
   -1  -13   14     -0.03      0.00
    0  -13   14     -0.07      0.00
    1  -13   14     -0.26      0.00
    2  -13   14      0.38      0.00
    3  -13   14     -0.16      0.00
    4  -13   14      0.24      0.00
    5  -13   14     -0.16      0.00
    6  -13   14     -0.46      0.00
    7  -13   14      1.40      0.00
    8  -13   14     -1.01      0.00
    9  -13   14     -0.14      0.00
   -5  -12   14     -0.59      0.00
   -4  -12   14      0.59      0.00
   -3  -12   14     -0.89      0.00
   -2  -12   14      0.89      0.00
   -1  -12   14     -0.93      0.00
    0  -12   14      0.86      0.00
    1  -12   14      0.35      0.00
    2  -12   14     -0.80      0.00
    3  -12   14     -0.21      0.00
    4  -12   14      1.20      0.00
    5  -12   14     -0.28      0.00
    6  -12   14     -0.46      0.00
    7  -12   14     -0.70      0.00
    8  -12   14      0.97      0.00
    9  -12   14     -0.91      0.00
   10  -12   14      1.09      0.00
   -6  -11   14     -0.07      0.00
   -5  -11   14      0.25      0.00
   -4  -11   14     -0.16      0.00
   -3  -11   14     -0.19      0.00
   -2  -11   14      0.41      0.00
   -1  -11   14      0.33      0.00
    0  -11   14     -1.55      0.00
    1  -11   14      1.78      0.00
    2  -11   14     -0.41      0.00
    3  -11   14     -0.50      0.00
    4  -11   14      0.20      0.00
    5  -11   14      0.11      0.00
    6  -11   14      0.14      0.00
    7  -11   14      0.01      0.00
    8  -11   14     -0.41      0.00
    9  -11   14     -0.24      0.00
   10  -11   14      0.17      0.00
   -7  -10   14     -0.29      0.00
   -6  -10   14     -0.65      0.00
   -5  -10   14      1.27      0.00
   -4  -10   14     -1.71      0.00
   -3  -10   14      0.69      0.00
   -2  -10   14      0.20      0.00
   -1  -10   14      0.39      0.00
    0  -10   14     -0.35      0.00
    1  -10   14      0.33      0.00
    2  -10   14     -0.30      0.00
    3  -10   14      0.20      0.00
    4  -10   14      0.62      0.00
    5  -10   14     -1.46      0.00
    6  -10   14      0.74      0.00
    7  -10   14     -0.80      0.00
    8  -10   14      0.86      0.00
    9  -10   14     -0.08      0.00
   10  -10   14     -0.10      0.00
   -8   -9   14      0.08      0.00
   -7   -9   14     -0.08      0.00
   -6   -9   14      0.12      0.00
   -5   -9   14      0.04      0.00
   -4   -9   14      0.05      0.00
   -3   -9   14     -0.52      0.00
   -2   -9   14      0.92      0.00
   -1   -9   14     -0.63      0.00
    0   -9   14      0.55      0.00
    1   -9   14      0.05      0.00
    2   -9   14     -1.00      0.00
    3   -9   14      1.06      0.00
    4   -9   14     -0.62      0.00
    5   -9   14      0.92      0.00
    6   -9   14     -1.26      0.00
    7   -9   14      0.46      0.00
    8   -9   14     -0.18      0.00
    9   -9   14      0.36      0.00
   10   -9   14     -0.80      0.00
   -9   -8   14      0.09      0.00
   -8   -8   14     -0.19      0.00
   -7   -8   14     -0.35      0.00
   -6   -8   14     -0.02      0.00
   -5   -8   14      0.26      0.00
   -4   -8   14     -0.85      0.00
   -3   -8   14      0.59      0.00
   -2   -8   14      0.65      0.00
   -1   -8   14     -0.86      0.00
    0   -8   14      1.16      0.00
    1   -8   14     -0.10      0.00
    2   -8   14     -0.98      0.00
    3   -8   14      0.54      0.00
    4   -8   14     -0.30      0.00
    5   -8   14     -0.31      0.00
    6   -8   14      0.72      0.00
    7   -8   14     -1.21      0.00
    8   -8   14      1.09      0.00
    9   -8   14      0.36      0.00
   10   -8   14     -0.86      0.00
  -10   -7   14     -0.50      0.00
   -9   -7   14     -0.84      0.00
   -8   -7   14      1.07      0.00
   -7   -7   14     -0.60      0.00
   -6   -7   14     -0.02      0.00
   -5   -7   14      0.15      0.00
   -4   -7   14      0.14      0.00
   -3   -7   14     -0.44      0.00
   -2   -7   14      1.48      0.00
   -1   -7   14     -1.65      0.00
    0   -7   14      1.23      0.00
    1   -7   14     -1.01      0.00
    2   -7   14      0.56      0.00
    3   -7   14     -0.07      0.00
    4   -7   14      0.31      0.00
    5   -7   14     -0.79      0.00
    6   -7   14      0.44      0.00
    7   -7   14     -0.26      0.00
    8   -7   14     -0.09      0.00
    9   -7   14      0.06      0.00
   10   -7   14      0.64      0.00
  -11   -6   14     -1.10      0.00
  -10   -6   14      1.98      0.00
   -9   -6   14     -1.50      0.00
   -8   -6   14      0.06      0.00
   -7   -6   14     -0.04      0.00
   -6   -6   14      0.09      0.00
   -5   -6   14     -0.40      0.00
   -4   -6   14      0.16      0.00
   -3   -6   14      0.31      0.00
   -2   -6   14      0.21      0.00
   -1   -6   14      0.37      0.00
    0   -6   14      0.21      0.00
    1   -6   14     -0.95      0.00
    2   -6   14      0.40      0.00
    3   -6   14     -0.86      0.00
    4   -6   14      0.92      0.00
    5   -6   14     -0.56      0.00
    6   -6   14      0.14      0.00
    7   -6   14      0.20      0.00
    8   -6   14      0.19      0.00
    9   -6   14     -0.43      0.00
   10   -6   14      0.21      0.00
  -11   -5   14      0.82      0.00
  -10   -5   14     -1.16      0.00
   -9   -5   14      0.30      0.00
   -8   -5   14      0.18      0.00
   -7   -5   14     -0.40      0.00
   -6   -5   14     -0.45      0.00
   -5   -5   14      1.26      0.00
   -4   -5   14     -0.52      0.00
   -3   -5   14      0.56      0.00
   -2   -5   14     -0.70      0.00
   -1   -5   14      0.40      0.00
    0   -5   14     -0.45      0.00
    1   -5   14      0.72      0.00
    2   -5   14     -0.74      0.00
    3   -5   14      0.75      0.00
    4   -5   14     -0.64      0.00
    5   -5   14      0.16      0.00
    6   -5   14     -0.34      0.00
    7   -5   14      0.17      0.00
    8   -5   14     -0.02      0.00
    9   -5   14      0.46      0.00
  -12   -4   14     -0.75      0.00
  -11   -4   14      0.70      0.00
  -10   -4   14      0.16      0.00
   -9   -4   14     -1.43      0.00
   -8   -4   14      1.36      0.00
   -7   -4   14     -0.75      0.00
   -6   -4   14     -0.34      0.00
   -5   -4   14     -0.03      0.00
   -4   -4   14      0.70      0.00
   -3   -4   14      0.49      0.00
   -2   -4   14     -0.09      0.00
   -1   -4   14     -0.45      0.00
    0   -4   14      0.12      0.00
    1   -4   14      0.30      0.00
    2   -4   14     -1.15      0.00
    3   -4   14      0.90      0.00
    4   -4   14     -0.78      0.00
    5   -4   14      0.88      0.00
    6   -4   14     -0.47      0.00
    7   -4   14      0.71      0.00
    8   -4   14     -1.31      0.00
    9   -4   14      0.97      0.00
  -13   -3   14      0.91      0.00
  -12   -3   14     -0.90      0.00
  -11   -3   14      0.47      0.00
  -10   -3   14     -0.52      0.00
   -9   -3   14     -0.23      0.00
   -8   -3   14     -0.04      0.00
   -7   -3   14      0.22      0.00
   -6   -3   14      0.73      0.00
   -5   -3   14     -1.17      0.00
   -4   -3   14      0.97      0.00
   -3   -3   14      0.30      0.00
   -2   -3   14     -1.10      0.00
   -1   -3   14      0.78      0.00
    0   -3   14     -0.46      0.00
    1   -3   14     -0.21      0.00
    2   -3   14      1.59      0.00
    3   -3   14     -1.88      0.00
    4   -3   14      0.91      0.00
    5   -3   14     -0.65      0.00
    6   -3   14     -0.25      0.00
    7   -3   14      1.14      0.00
    8   -3   14     -0.67      0.00
  -13   -2   14     -0.04      0.00
  -12   -2   14      0.41      0.00
  -11   -2   14     -0.71      0.00
  -10   -2   14      0.15      0.00
   -9   -2   14     -0.11      0.00
   -8   -2   14     -0.28      0.00
   -7   -2   14      0.21      0.00
   -6   -2   14     -0.08      0.00
   -5   -2   14     -0.04      0.00
   -4   -2   14      0.59      0.00
   -3   -2   14      0.19      0.00
   -2   -2   14     -0.26      0.00
   -1   -2   14     -0.13      0.00
    0   -2   14     -0.03      0.00
    1   -2   14     -0.25      0.00
    2   -2   14      0.31      0.00
    3   -2   14     -0.54      0.00
    4   -2   14      0.66      0.00
    5   -2   14     -0.37      0.00
    6   -2   14      0.35      0.00
    7   -2   14     -0.67      0.00
    8   -2   14      0.69      0.00
  -13   -1   14     -1.06      0.00
  -12   -1   14      0.71      0.00
  -11   -1   14      0.06      0.00
  -10   -1   14     -1.29      0.00
   -9   -1   14      1.01      0.00
   -8   -1   14     -0.42      0.00
   -7   -1   14      0.45      0.00
   -6   -1   14     -0.10      0.00
   -5   -1   14     -0.09      0.00
   -4   -1   14      0.26      0.00
   -3   -1   14     -0.26      0.00
   -2   -1   14     -0.14      0.00
   -1   -1   14      0.87      0.00
    0   -1   14     -1.50      0.00
    1   -1   14      1.76      0.00
    2   -1   14     -1.29      0.00
    3   -1   14      0.99      0.00
    4   -1   14     -1.38      0.00
    5   -1   14      0.24      0.00
    6   -1   14      1.12      0.00
    7   -1   14     -1.23      0.00
  -14    0   14      0.07      0.00
  -13    0   14      0.11      0.00
  -12    0   14     -0.49      0.00
  -11    0   14      0.41      0.00
  -10    0   14     -0.72      0.00
   -9    0   14      0.20      0.00
   -8    0   14     -0.08      0.00
   -7    0   14      0.54      0.00
   -6    0   14     -0.63      0.00
   -5    0   14      0.89      0.00
   -4    0   14     -0.78      0.00
   -3    0   14      0.97      0.00
   -2    0   14     -0.96      0.00
   -1    0   14      0.38      0.00
    0    0   14      0.53      0.00
    1    0   14     -1.31      0.00
    2    0   14      0.34      0.00
    3    0   14      1.36      0.00
    4    0   14     -1.94      0.00
    5    0   14      1.01      0.00
    6    0   14     -0.09      0.00
    7    0   14      0.14      0.00
  -14    1   14     -0.65      0.00
  -13    1   14      0.07      0.00
  -12    1   14     -0.13      0.00
  -11    1   14     -0.14      0.00
  -10    1   14      0.61      0.00
   -9    1   14     -0.30      0.00
   -8    1   14     -0.27      0.00
   -7    1   14      0.12      0.00
   -6    1   14      0.08      0.00
   -5    1   14      0.55      0.00
   -4    1   14     -0.60      0.00
   -3    1   14     -0.33      0.00
   -2    1   14      0.82      0.00
   -1    1   14     -0.41      0.00
    0    1   14      0.88      0.00
    1    1   14     -1.45      0.00
    2    1   14      0.65      0.00
    3    1   14      0.01      0.00
    4    1   14     -0.20      0.00
    5    1   14     -0.07      0.00
    6    1   14     -0.25      0.00
  -14    2   14     -0.54      0.00
  -13    2   14     -0.14      0.00
  -12    2   14      0.54      0.00
  -11    2   14     -1.73      0.00
  -10    2   14      1.12      0.00
   -9    2   14      0.41      0.00
   -8    2   14     -0.41      0.00
   -7    2   14     -0.08      0.00
   -6    2   14      0.01      0.00
   -5    2   14     -0.15      0.00
   -4    2   14      1.44      0.00
   -3    2   14     -1.46      0.00
   -2    2   14     -0.36      0.00
   -1    2   14      1.03      0.00
    0    2   14      0.44      0.00
    1    2   14     -1.32      0.00
    2    2   14      0.00      0.00
    3    2   14      0.63      0.00
    4    2   14     -0.27      0.00
    5    2   14      0.26      0.00
  -14    3   14      0.27      0.00
  -13    3   14     -1.27      0.00
  -12    3   14      1.72      0.00
  -11    3   14     -1.06      0.00
  -10    3   14      0.88      0.00
   -9    3   14     -1.15      0.00
   -8    3   14      1.15      0.00
   -7    3   14     -0.90      0.00
   -6    3   14      0.20      0.00
   -5    3   14      0.09      0.00
   -4    3   14      0.18      0.00
   -3    3   14      0.18      0.00
   -2    3   14      0.04      0.00
   -1    3   14     -0.84      0.00
    0    3   14      0.85      0.00
    1    3   14     -0.16      0.00
    2    3   14     -0.20      0.00
    3    3   14     -0.54      0.00
    4    3   14      0.43      0.00
    5    3   14     -0.11      0.00
  -14    4   14     -0.31      0.00
  -13    4   14      0.56      0.00
  -12    4   14     -1.58      0.00
  -11    4   14      1.39      0.00
  -10    4   14     -0.17      0.00
   -9    4   14     -0.69      0.00
   -8    4   14      1.26      0.00
   -7    4   14     -1.12      0.00
   -6    4   14      0.48      0.00
   -5    4   14      0.21      0.00
   -4    4   14     -0.26      0.00
   -3    4   14     -0.18      0.00
   -2    4   14      0.33      0.00
   -1    4   14      0.40      0.00
    0    4   14     -0.95      0.00
    1    4   14     -0.26      0.00
    2    4   14      1.15      0.00
    3    4   14     -0.85      0.00
    4    4   14      0.56      0.00
  -14    5   14     -0.18      0.00
  -13    5   14      0.58      0.00
  -12    5   14     -0.44      0.00
  -11    5   14      0.61      0.00
  -10    5   14     -0.45      0.00
   -9    5   14      0.38      0.00
   -8    5   14     -1.19      0.00
   -7    5   14      1.40      0.00
   -6    5   14     -1.27      0.00
   -5    5   14      1.13      0.00
   -4    5   14     -0.07      0.00
   -3    5   14     -0.24      0.00
   -2    5   14     -0.35      0.00
   -1    5   14      0.50      0.00
    0    5   14     -0.41      0.00
    1    5   14      0.59      0.00
    2    5   14     -1.27      0.00
    3    5   14      0.80      0.00
  -14    6   14     -0.28      0.00
  -13    6   14      0.03      0.00
  -12    6   14      0.35      0.00
  -11    6   14     -0.66      0.00
  -10    6   14      0.82      0.00
   -9    6   14     -0.66      0.00
   -8    6   14      0.44      0.00
   -7    6   14     -0.01      0.00
   -6    6   14      0.13      0.00
   -5    6   14     -0.42      0.00
   -4    6   14     -0.06      0.00
   -3    6   14      0.83      0.00
   -2    6   14     -0.47      0.00
   -1    6   14     -0.62      0.00
    0    6   14      0.38      0.00
    1    6   14     -0.16      0.00
  -14    7   14     -0.20      0.00
  -13    7   14      0.57      0.00
  -12    7   14     -0.57      0.00
  -11    7   14      1.10      0.00
  -10    7   14     -1.55      0.00
   -9    7   14      1.15      0.00
   -8    7   14     -1.03      0.00
   -7    7   14      0.41      0.00
   -6    7   14      0.45      0.00
   -5    7   14      0.13      0.00
   -4    7   14     -0.48      0.00
   -3    7   14     -0.29      0.00
   -2    7   14      1.02      0.00
   -1    7   14     -0.90      0.00
    0    7   14      0.19      0.00
  -13    8   14     -0.18      0.00
  -12    8   14      0.62      0.00
  -11    8   14     -0.66      0.00
  -10    8   14      0.26      0.00
   -9    8   14     -0.13      0.00
   -8    8   14      0.83      0.00
   -7    8   14     -0.86      0.00
   -6    8   14      0.41      0.00
   -5    8   14     -0.07      0.00
   -4    8   14     -0.11      0.00
   -3    8   14      0.16      0.00
   -2    8   14     -0.76      0.00
  -12    9   14      0.11      0.00
  -11    9   14     -0.15      0.00
  -10    9   14      0.23      0.00
   -9    9   14     -0.72      0.00
   -8    9   14      0.51      0.00
   -7    9   14      0.15      0.00
   -6    9   14      0.09      0.00
   -5    9   14     -0.52      0.00
   -4    9   14      0.75      0.00
  -10   10   14      0.81      0.00
   -9   10   14     -0.65      0.00
   -8   10   14      0.65      0.00
   -7   10   14     -0.14      0.00
    0  -14   15     -0.71      0.00
    1  -14   15      0.42      0.00
    2  -14   15      0.86      0.00
    3  -14   15     -1.32      0.00
    4  -14   15      0.59      0.00
    5  -14   15     -0.22      0.00
    6  -14   15     -0.17      0.00
   -2  -13   15      0.47      0.00
   -1  -13   15     -0.28      0.00
    0  -13   15      0.31      0.00
    1  -13   15     -0.23      0.00
    2  -13   15     -0.17      0.00
    3  -13   15     -0.05      0.00
    4  -13   15      0.79      0.00
    5  -13   15     -0.95      0.00
    6  -13   15      0.51      0.00
    7  -13   15     -0.69      0.00
    8  -13   15      1.06      0.00
   -4  -12   15     -0.46      0.00
   -2  -12   15      0.23      0.00
   -1  -12   15     -0.74      0.00
    0  -12   15     -0.31      0.00
    1  -12   15      1.38      0.00
    2  -12   15     -0.98      0.00
    3  -12   15      0.15      0.00
    4  -12   15     -0.54      0.00
    5  -12   15      0.91      0.00
    6  -12   15      0.33      0.00
    7  -12   15     -0.52      0.00
    8  -12   15      0.22      0.00
   -5  -11   15      0.77      0.00
   -4  -11   15     -1.08      0.00
   -3  -11   15      0.95      0.00
   -2  -11   15     -1.05      0.00
   -1  -11   15      1.23      0.00
    0  -11   15     -0.91      0.00
    1  -11   15     -0.02      0.00
    2  -11   15      0.03      0.00
    3  -11   15      0.69      0.00
    4  -11   15     -0.24      0.00
    5  -11   15     -0.65      0.00
    6  -11   15      0.34      0.00
    7  -11   15      0.57      0.00
    8  -11   15     -0.52      0.00
    9  -11   15      0.82      0.00
   -6  -10   15      0.22      0.00
   -5  -10   15      0.23      0.00
   -4  -10   15     -0.09      0.00
   -3  -10   15     -0.20      0.00
   -2  -10   15     -0.06      0.00
   -1  -10   15     -1.42      0.00
    0  -10   15      2.48      0.00
    1  -10   15     -1.54      0.00
    2  -10   15      0.00      0.00
    3  -10   15      0.36      0.00
    4  -10   15      0.20      0.00
    5  -10   15      0.30      0.00
    6  -10   15      0.20      0.00
    7  -10   15     -0.98      0.00
    8  -10   15      0.61      0.00
    9  -10   15     -0.62      0.00
   -7   -9   15     -0.03      0.00
   -6   -9   15      0.53      0.00
   -5   -9   15     -0.87      0.00
   -4   -9   15      0.36      0.00
   -3   -9   15      0.28      0.00
   -2   -9   15     -0.42      0.00
   -1   -9   15     -0.68      0.00
    0   -9   15      1.15      0.00
    1   -9   15     -0.47      0.00
    2   -9   15      0.06      0.00
    3   -9   15      0.33      0.00
    4   -9   15     -0.82      0.00
    5   -9   15      0.85      0.00
    6   -9   15     -0.35      0.00
    7   -9   15      0.69      0.00
    8   -9   15     -0.97      0.00
    9   -9   15      0.76      0.00
   -8   -8   15      0.49      0.00
   -7   -8   15     -0.08      0.00
   -6   -8   15      0.13      0.00
   -5   -8   15      0.14      0.00
   -4   -8   15     -0.42      0.00
   -3   -8   15     -0.16      0.00
   -2   -8   15     -0.12      0.00
   -1   -8   15     -0.37      0.00
    0   -8   15      0.68      0.00
    1   -8   15     -0.70      0.00
    2   -8   15      1.39      0.00
    3   -8   15     -0.95      0.00
    4   -8   15      0.78      0.00
    5   -8   15     -0.82      0.00
    6   -8   15      0.83      0.00
    7   -8   15     -0.62      0.00
    8   -8   15     -0.30      0.00
    9   -8   15     -0.02      0.00
   -9   -7   15     -0.99      0.00
   -8   -7   15      0.48      0.00
   -7   -7   15     -0.15      0.00
   -6   -7   15      0.52      0.00
   -5   -7   15     -1.37      0.00
   -4   -7   15      1.19      0.00
   -3   -7   15     -0.56      0.00
   -2   -7   15     -0.88      0.00
   -1   -7   15      1.75      0.00
    0   -7   15     -0.99      0.00
    1   -7   15      0.03      0.00
    2   -7   15      0.32      0.00
    3   -7   15     -0.16      0.00
    4   -7   15     -0.08      0.00
    5   -7   15      0.65      0.00
    6   -7   15     -0.85      0.00
    7   -7   15      1.03      0.00
    8   -7   15     -0.73      0.00
    9   -7   15     -0.35      0.00
  -10   -6   15      0.06      0.00
   -9   -6   15      0.69      0.00
   -8   -6   15     -0.40      0.00
   -7   -6   15      0.64      0.00
   -6   -6   15     -0.61      0.00
   -5   -6   15      0.37      0.00
   -4   -6   15     -0.70      0.00
   -3   -6   15      0.43      0.00
   -2   -6   15     -1.31      0.00
   -1   -6   15      1.25      0.00
    0   -6   15     -0.37      0.00
    1   -6   15      0.42      0.00
    2   -6   15      0.58      0.00
    3   -6   15     -0.84      0.00
    4   -6   15      0.25      0.00
    5   -6   15      0.16      0.00
    6   -6   15     -0.37      0.00
    7   -6   15     -0.07      0.00
    8   -6   15      0.00      0.00
    9   -6   15      0.59      0.00
  -11   -5   15      2.12      0.00
  -10   -5   15     -1.27      0.00
   -9   -5   15      0.21      0.00
   -8   -5   15      0.58      0.00
   -7   -5   15     -0.16      0.00
   -6   -5   15     -0.65      0.00
   -5   -5   15     -0.20      0.00
   -4   -5   15      0.51      0.00
   -3   -5   15     -0.33      0.00
   -2   -5   15      0.07      0.00
   -1   -5   15      0.77      0.00
    0   -5   15     -1.28      0.00
    1   -5   15      1.04      0.00
    2   -5   15     -0.93      0.00
    3   -5   15      1.20      0.00
    4   -5   15     -0.92      0.00
    5   -5   15      0.77      0.00
    6   -5   15     -0.26      0.00
    7   -5   15     -0.02      0.00
    8   -5   15     -0.65      0.00
  -11   -4   15     -0.44      0.00
  -10   -4   15      0.38      0.00
   -9   -4   15      0.11      0.00
   -8   -4   15     -0.20      0.00
   -7   -4   15      0.38      0.00
   -6   -4   15      0.31      0.00
   -5   -4   15     -1.28      0.00
   -4   -4   15      0.31      0.00
   -3   -4   15     -0.39      0.00
   -2   -4   15      0.36      0.00
   -1   -4   15      0.22      0.00
    0   -4   15      0.48      0.00
    1   -4   15     -1.13      0.00
    2   -4   15      1.84      0.00
    3   -4   15     -1.53      0.00
    4   -4   15      0.76      0.00
    5   -4   15     -0.60      0.00
    6   -4   15     -0.19      0.00
    7   -4   15      1.00      0.00
    8   -4   15     -0.62      0.00
  -12   -3   15      1.00      0.00
  -11   -3   15     -0.53      0.00
  -10   -3   15      0.53      0.00
   -9   -3   15      0.16      0.00
   -8   -3   15     -0.39      0.00
   -7   -3   15     -0.70      0.00
   -6   -3   15      0.73      0.00
   -5   -3   15     -0.18      0.00
   -4   -3   15     -0.35      0.00
   -3   -3   15      0.43      0.00
   -2   -3   15     -0.42      0.00
   -1   -3   15      0.77      0.00
    0   -3   15     -0.26      0.00
    1   -3   15     -1.11      0.00
    2   -3   15      1.13      0.00
    3   -3   15     -0.16      0.00
    4   -3   15      0.84      0.00
    5   -3   15     -0.95      0.00
    6   -3   15      0.18      0.00
    7   -3   15     -0.57      0.00
    8   -3   15      0.77      0.00
  -12   -2   15      1.51      0.00
  -11   -2   15     -0.10      0.00
  -10   -2   15     -0.79      0.00
   -9   -2   15      1.14      0.00
   -8   -2   15     -0.56      0.00
   -7   -2   15      0.19      0.00
   -6   -2   15     -0.91      0.00
   -5   -2   15      1.05      0.00
   -4   -2   15     -1.15      0.00
   -3   -2   15      0.17      0.00
   -2   -2   15      0.80      0.00
   -1   -2   15     -0.47      0.00
    0   -2   15      0.07      0.00
    1   -2   15      1.04      0.00
    2   -2   15     -1.83      0.00
    3   -2   15      1.71      0.00
    4   -2   15     -1.08      0.00
    5   -2   15      0.06      0.00
    6   -2   15      0.77      0.00
    7   -2   15     -0.96      0.00
  -13   -1   15     -0.10      0.00
  -12   -1   15     -0.22      0.00
  -11   -1   15      0.65      0.00
  -10   -1   15     -0.14      0.00
   -9   -1   15     -0.04      0.00
   -8   -1   15     -0.48      0.00
   -7   -1   15      0.24      0.00
   -6   -1   15     -0.32      0.00
   -5   -1   15      0.52      0.00
   -4   -1   15     -0.17      0.00
   -3   -1   15     -0.09      0.00
   -2   -1   15     -0.35      0.00
   -1   -1   15      0.79      0.00
    0   -1   15     -0.66      0.00
    1   -1   15     -0.19      0.00
    2   -1   15      0.50      0.00
    3   -1   15      1.03      0.00
    4   -1   15     -1.40      0.00
    5   -1   15      0.72      0.00
    6   -1   15     -0.59      0.00
  -13    0   15      1.63      0.00
  -12    0   15     -0.48      0.00
  -11    0   15     -0.10      0.00
  -10    0   15      0.28      0.00
   -9    0   15     -0.10      0.00
   -8    0   15     -0.14      0.00
   -7    0   15     -0.08      0.00
   -6    0   15     -0.29      0.00
   -5    0   15      0.32      0.00
   -4    0   15     -0.15      0.00
   -3    0   15     -0.08      0.00
   -2    0   15      0.46      0.00
   -1    0   15     -1.10      0.00
    0    0   15      1.96      0.00
    1    0   15     -1.63      0.00
    2    0   15      0.91      0.00
    3    0   15     -0.44      0.00
    4    0   15      0.03      0.00
    5    0   15      0.43      0.00
    6    0   15     -0.92      0.00
  -13    1   15     -0.25      0.00
  -12    1   15      0.90      0.00
  -11    1   15     -1.48      0.00
  -10    1   15      1.08      0.00
   -9    1   15     -0.58      0.00
   -8    1   15      0.68      0.00
   -7    1   15     -0.92      0.00
   -6    1   15      0.71      0.00
   -5    1   15     -0.71      0.00
   -4    1   15      1.08      0.00
   -3    1   15     -1.17      0.00
   -2    1   15      0.75      0.00
   -1    1   15     -0.63      0.00
    0    1   15      0.06      0.00
    1    1   15      0.69      0.00
    2    1   15      0.41      0.00
    3    1   15     -1.25      0.00
    4    1   15      1.01      0.00
    5    1   15     -0.45      0.00
  -14    2   15      0.25      0.00
  -13    2   15      0.06      0.00
  -12    2   15      0.86      0.00
  -11    2   15     -0.84      0.00
  -10    2   15      0.06      0.00
   -9    2   15     -0.46      0.00
   -8    2   15      0.64      0.00
   -7    2   15     -0.09      0.00
   -6    2   15     -0.27      0.00
   -5    2   15      0.10      0.00
   -4    2   15     -0.52      0.00
   -3    2   15      1.01      0.00
   -2    2   15     -0.48      0.00
   -1    2   15     -0.05      0.00
    0    2   15     -0.62      0.00
    1    2   15      1.83      0.00
    2    2   15     -1.06      0.00
    3    2   15     -0.36      0.00
    4    2   15      0.34      0.00
  -14    3   15      0.32      0.00
  -13    3   15      0.34      0.00
  -12    3   15     -1.59      0.00
  -11    3   15      1.50      0.00
  -10    3   15     -0.47      0.00
   -9    3   15     -0.10      0.00
   -8    3   15      0.22      0.00
   -7    3   15      0.01      0.00
   -6    3   15     -0.15      0.00
   -5    3   15      0.28      0.00
   -4    3   15     -0.82      0.00
   -3    3   15      0.22      0.00
   -2    3   15      0.81      0.00
   -1    3   15     -0.43      0.00
    0    3   15     -0.68      0.00
    1    3   15      0.75      0.00
    2    3   15      1.24      0.00
    3    3   15     -2.02      0.00
  -14    4   15      0.00      0.00
  -13    4   15      1.32      0.00
  -12    4   15     -1.72      0.00
  -11    4   15      1.16      0.00
  -10    4   15     -1.10      0.00
   -9    4   15      0.93      0.00
   -8    4   15     -0.72      0.00
   -7    4   15      0.47      0.00
   -6    4   15     -0.04      0.00
   -5    4   15     -0.28      0.00
   -4    4   15      0.27      0.00
   -3    4   15     -0.16      0.00
   -2    4   15     -0.32      0.00
   -1    4   15      0.96      0.00
    0    4   15     -0.35      0.00
    1    4   15     -0.18      0.00
    2    4   15     -0.19      0.00
  -13    5   15     -0.62      0.00
  -12    5   15      0.69      0.00
  -11    5   15     -0.82      0.00
  -10    5   15      0.87      0.00
   -9    5   15      0.00      0.00
   -8    5   15     -0.48      0.00
   -7    5   15      0.43      0.00
   -6    5   15     -0.23      0.00
   -5    5   15     -0.52      0.00
   -4    5   15      0.36      0.00
   -3    5   15      0.39      0.00
   -2    5   15     -0.23      0.00
   -1    5   15     -0.59      0.00
    0    5   15      1.04      0.00
    1    5   15     -0.13      0.00
  -13    6   15     -0.29      0.00
  -12    6   15      0.20      0.00
  -11    6   15     -0.12      0.00
  -10    6   15     -0.14      0.00
   -9    6   15      0.04      0.00
   -8    6   15      0.36      0.00
   -7    6   15     -0.92      0.00
   -6    6   15      0.91      0.00
   -5    6   15      0.07      0.00
   -4    6   15     -0.85      0.00
   -3    6   15      0.32      0.00
   -2    6   15      0.84      0.00
   -1    6   15     -0.66      0.00
    0    6   15     -0.02      0.00
  -12    7   15      0.02      0.00
  -11    7   15      0.44      0.00
  -10    7   15     -0.32      0.00
   -9    7   15      0.41      0.00
   -8    7   15      0.06      0.00
   -7    7   15     -0.72      0.00
   -6    7   15      0.13      0.00
   -5    7   15      0.05      0.00
   -4    7   15      0.79      0.00
   -3    7   15     -1.20      0.00
   -2    7   15      0.69      0.00
  -11    8   15     -0.71      0.00
  -10    8   15      0.65      0.00
   -9    8   15     -0.57      0.00
   -8    8   15      0.07      0.00
   -7    8   15      0.06      0.00
   -6    8   15      0.50      0.00
   -5    8   15     -0.73      0.00
   -4    8   15      0.53      0.00
   -9    9   15      0.09      0.00
   -8    9   15     -0.83      0.00
   -7    9   15      0.70      0.00
    0  -13   16      0.74      0.00
    1  -13   16      0.57      0.00
    2  -13   16     -1.53      0.00
    3  -13   16      0.96      0.00
    4  -13   16     -0.32      0.00
    5  -13   16      0.32      0.00
    6  -13   16     -0.05      0.00
   -2  -12   16     -0.39      0.00
   -1  -12   16      0.52      0.00
    0  -12   16     -0.71      0.00
    1  -12   16     -0.07      0.00
    2  -12   16      0.49      0.00
    3  -12   16      0.61      0.00
    4  -12   16     -1.82      0.00
    5  -12   16      1.19      0.00
    6  -12   16     -1.06      0.00
    7  -12   16      1.31      0.00
   -4  -11   16      0.34      0.00
   -3  -11   16      0.55      0.00
   -2  -11   16     -1.06      0.00
   -1  -11   16      0.29      0.00
    0  -11   16      1.44      0.00
    1  -11   16     -1.99      0.00
    2  -11   16      0.81      0.00
    3  -11   16     -0.52      0.00
    4  -11   16      1.09      0.00
    5  -11   16     -1.04      0.00
    6  -11   16      0.61      0.00
    7  -11   16     -0.63      0.00
   -5  -10   16     -1.19      0.00
   -4  -10   16      1.52      0.00
   -3  -10   16     -0.51      0.00
   -2  -10   16      1.03      0.00
   -1  -10   16     -1.78      0.00
    0  -10   16      1.18      0.00
    1  -10   16     -0.76      0.00
    2  -10   16      0.90      0.00
    3  -10   16     -0.77      0.00
    4  -10   16     -0.67      0.00
    5  -10   16      0.73      0.00
    6  -10   16      0.17      0.00
    7  -10   16      0.11      0.00
    8  -10   16      0.17      0.00
   -7   -9   16      0.27      0.00
   -6   -9   16      0.03      0.00
   -5   -9   16      0.01      0.00
   -4   -9   16     -0.06      0.00
   -3   -9   16      0.32      0.00
   -2   -9   16     -0.53      0.00
   -1   -9   16      1.30      0.00
    0   -9   16     -1.72      0.00
    1   -9   16      0.38      0.00
    2   -9   16      0.49      0.00
    3   -9   16     -0.19      0.00
    4   -9   16     -0.07      0.00
    5   -9   16      0.02      0.00
    6   -9   16     -0.52      0.00
    7   -9   16      0.85      0.00
    8   -9   16     -0.71      0.00
   -8   -8   16      0.10      0.00
   -7   -8   16      0.11      0.00
   -6   -8   16     -0.16      0.00
   -5   -8   16     -0.33      0.00
   -4   -8   16      1.68      0.00
   -3   -8   16     -0.99      0.00
   -2   -8   16     -0.28      0.00
   -1   -8   16      1.21      0.00
    0   -8   16     -1.48      0.00
    1   -8   16      0.12      0.00
    2   -8   16      0.34      0.00
    3   -8   16     -0.29      0.00
    4   -8   16     -0.19      0.00
    5   -8   16      0.65      0.00
    6   -8   16     -0.11      0.00
    7   -8   16     -0.14      0.00
    8   -8   16      0.58      0.00
   -9   -7   16      0.37      0.00
   -8   -7   16     -0.38      0.00
   -7   -7   16      0.31      0.00
   -6   -7   16      0.18      0.00
   -5   -7   16     -0.07      0.00
   -4   -7   16     -0.04      0.00
   -3   -7   16      0.60      0.00
   -2   -7   16     -1.05      0.00
   -1   -7   16      0.63      0.00
    0   -7   16     -0.38      0.00
    1   -7   16      0.21      0.00
    2   -7   16     -0.16      0.00
    3   -7   16      0.16      0.00
    4   -7   16     -0.44      0.00
    5   -7   16      0.42      0.00
    6   -7   16     -0.33      0.00
    7   -7   16      0.17      0.00
    8   -7   16      0.43      0.00
   -9   -6   16      0.80      0.00
   -8   -6   16     -0.23      0.00
   -7   -6   16      0.08      0.00
   -6   -6   16     -0.31      0.00
   -5   -6   16      1.15      0.00
   -4   -6   16     -0.34      0.00
   -3   -6   16     -0.23      0.00
   -2   -6   16      0.63      0.00
   -1   -6   16     -0.89      0.00
    0   -6   16     -0.16      0.00
    1   -6   16     -0.02      0.00
    2   -6   16      0.17      0.00
    3   -6   16     -0.06      0.00
    4   -6   16      0.50      0.00
    5   -6   16     -0.59      0.00
    6   -6   16      0.79      0.00
    7   -6   16     -0.55      0.00
  -10   -5   16     -0.24      0.00
   -9   -5   16      0.05      0.00
   -8   -5   16      0.45      0.00
   -7   -5   16     -0.61      0.00
   -6   -5   16      1.26      0.00
   -5   -5   16     -0.81      0.00
   -4   -5   16      0.31      0.00
   -3   -5   16     -0.58      0.00
   -2   -5   16      0.43      0.00
   -1   -5   16     -0.31      0.00
    0   -5   16      0.53      0.00
    1   -5   16     -0.36      0.00
    2   -5   16     -0.22      0.00
    3   -5   16     -0.03      0.00
    4   -5   16      0.23      0.00
    5   -5   16     -0.31      0.00
    6   -5   16      0.19      0.00
    7   -5   16      0.67      0.00
  -11   -4   16     -1.33      0.00
  -10   -4   16      0.55      0.00
   -9   -4   16      0.26      0.00
   -8   -4   16     -0.60      0.00
   -7   -4   16     -0.06      0.00
   -6   -4   16      0.81      0.00
   -5   -4   16      0.57      0.00
   -4   -4   16     -0.85      0.00
   -3   -4   16      0.44      0.00
   -2   -4   16     -0.58      0.00
   -1   -4   16     -0.19      0.00
    0   -4   16      0.52      0.00
    1   -4   16     -0.90      0.00
    2   -4   16      0.98      0.00
    3   -4   16     -0.87      0.00
    4   -4   16      1.13      0.00
    5   -4   16     -0.49      0.00
    6   -4   16     -0.24      0.00
    7   -4   16      0.00      0.00
  -11   -3   16     -0.58      0.00
  -10   -3   16      0.10      0.00
   -9   -3   16      0.62      0.00
   -8   -3   16      0.16      0.00
   -7   -3   16     -0.18      0.00
   -6   -3   16     -0.33      0.00
   -5   -3   16      0.69      0.00
   -4   -3   16     -0.65      0.00
   -3   -3   16      0.17      0.00
   -2   -3   16      0.17      0.00
   -1   -3   16     -0.37      0.00
    0   -3   16      0.10      0.00
    1   -3   16      1.29      0.00
    2   -3   16     -2.55      0.00
    3   -3   16      1.56      0.00
    4   -3   16     -1.04      0.00
    5   -3   16      1.19      0.00
    6   -3   16      0.38      0.00
  -12   -2   16     -0.61      0.00
  -11   -2   16      0.72      0.00
  -10   -2   16     -0.73      0.00
   -9   -2   16      0.61      0.00
   -8   -2   16     -0.69      0.00
   -7   -2   16      1.29      0.00
   -6   -2   16     -0.74      0.00
   -5   -2   16      0.28      0.00
   -4   -2   16      0.34      0.00
   -3   -2   16     -1.15      0.00
   -2   -2   16      1.15      0.00
   -1   -2   16     -0.68      0.00
    0   -2   16     -0.81      0.00
    1   -2   16      1.26      0.00
    2   -2   16     -0.40      0.00
    3   -2   16      0.35      0.00
    4   -2   16     -0.98      0.00
    5   -2   16      0.99      0.00
    6   -2   16     -0.18      0.00
  -12   -1   16     -1.21      0.00
  -11   -1   16      0.01      0.00
  -10   -1   16      0.50      0.00
   -9   -1   16      0.16      0.00
   -8   -1   16     -0.05      0.00
   -7   -1   16     -0.27      0.00
   -6   -1   16      0.66      0.00
   -5   -1   16     -1.30      0.00
   -4   -1   16      1.23      0.00
   -3   -1   16     -0.52      0.00
   -2   -1   16      0.15      0.00
   -1   -1   16     -0.09      0.00
    0   -1   16      0.66      0.00
    1   -1   16     -1.65      0.00
    2   -1   16      1.11      0.00
    3   -1   16     -0.65      0.00
    4   -1   16      0.32      0.00
    5   -1   16      0.79      0.00
  -12    0   16      0.36      0.00
  -11    0   16     -0.32      0.00
  -10    0   16      0.62      0.00
   -9    0   16     -0.82      0.00
   -8    0   16      0.96      0.00
   -7    0   16     -0.51      0.00
   -6    0   16      0.49      0.00
   -5    0   16     -0.36      0.00
   -4    0   16     -0.34      0.00
   -3    0   16      0.46      0.00
   -2    0   16      0.47      0.00
   -1    0   16     -1.25      0.00
    0    0   16      0.05      0.00
    1    0   16      0.92      0.00
    2    0   16     -0.08      0.00
    3    0   16     -1.27      0.00
    4    0   16      1.61      0.00
  -12    1   16      0.19      0.00
  -11    1   16     -0.07      0.00
  -10    1   16      0.23      0.00
   -9    1   16     -0.11      0.00
   -8    1   16     -0.29      0.00
   -7    1   16      0.28      0.00
   -6    1   16      0.19      0.00
   -5    1   16     -0.14      0.00
   -4    1   16     -0.54      0.00
   -3    1   16      0.86      0.00
   -2    1   16     -0.17      0.00
   -1    1   16      0.36      0.00
    0    1   16     -1.55      0.00
    1    1   16      0.90      0.00
    2    1   16     -0.16      0.00
    3    1   16     -0.05      0.00
    4    1   16      0.56      0.00
  -13    2   16      0.23      0.00
  -12    2   16     -0.90      0.00
  -11    2   16      1.52      0.00
  -10    2   16     -0.56      0.00
   -9    2   16      0.07      0.00
   -8    2   16     -0.64      0.00
   -7    2   16      1.06      0.00
   -6    2   16     -1.01      0.00
   -5    2   16      1.01      0.00
   -4    2   16     -0.79      0.00
   -3    2   16      0.39      0.00
   -2    2   16     -0.39      0.00
   -1    2   16      0.43      0.00
    0    2   16     -0.53      0.00
    1    2   16      0.03      0.00
    2    2   16      0.37      0.00
    3    2   16     -0.15      0.00
  -13    3   16      0.72      0.00
  -12    3   16     -1.25      0.00
  -11    3   16      1.01      0.00
  -10    3   16     -0.68      0.00
   -9    3   16      0.22      0.00
   -8    3   16      0.01      0.00
   -7    3   16     -0.28      0.00
   -6    3   16      0.92      0.00
   -5    3   16     -1.33      0.00
   -4    3   16      1.64      0.00
   -3    3   16     -1.19      0.00
   -2    3   16      0.32      0.00
   -1    3   16     -0.35      0.00
    0    3   16      0.83      0.00
    1    3   16     -1.71      0.00
    2    3   16      1.29      0.00
  -12    4   16      1.16      0.00
  -11    4   16     -0.70      0.00
  -10    4   16      0.43      0.00
   -9    4   16     -0.44      0.00
   -8    4   16      0.30      0.00
   -7    4   16     -0.30      0.00
   -6    4   16      0.27      0.00
   -5    4   16     -0.11      0.00
   -4    4   16      0.12      0.00
   -3    4   16      0.17      0.00
   -2    4   16     -0.71      0.00
   -1    4   16      0.07      0.00
    0    4   16      0.50      0.00
    1    4   16      0.23      0.00
  -12    5   16      0.88      0.00
  -11    5   16     -1.06      0.00
  -10    5   16      0.30      0.00
   -9    5   16      0.07      0.00
   -8    5   16      0.23      0.00
   -7    5   16     -0.33      0.00
   -6    5   16      0.24      0.00
   -5    5   16      0.42      0.00
   -4    5   16     -0.86      0.00
   -3    5   16      0.40      0.00
   -2    5   16      0.32      0.00
   -1    5   16     -0.81      0.00
  -11    6   16      0.54      0.00
  -10    6   16     -0.88      0.00
   -9    6   16      0.54      0.00
   -8    6   16      0.21      0.00
   -7    6   16     -0.50      0.00
   -6    6   16     -0.12      0.00
   -5    6   16      0.48      0.00
   -4    6   16      0.14      0.00
   -3    6   16     -0.98      0.00
   -2    6   16      0.70      0.00
  -10    7   16      0.11      0.00
   -9    7   16      0.27      0.00
   -8    7   16     -0.60      0.00
   -7    7   16      0.93      0.00
   -6    7   16     -0.05      0.00
   -5    7   16     -1.08      0.00
   -4    7   16      0.75      0.00
    0  -12   17      0.40      0.00
    1  -12   17     -1.93      0.00
    2  -12   17      1.76      0.00
    3  -12   17     -0.62      0.00
    4  -12   17      0.79      0.00
   -3  -11   17     -0.65      0.00
   -2  -11   17      0.85      0.00
   -1  -11   17     -1.07      0.00
    0  -11   17      0.78      0.00
    1  -11   17      0.30      0.00
    2  -11   17      0.01      0.00
    3  -11   17     -1.14      0.00
    4  -11   17      1.26      0.00
    5  -11   17     -0.98      0.00
   -4  -10   17     -0.14      0.00
   -3  -10   17     -0.81      0.00
   -2  -10   17      1.21      0.00
   -1  -10   17      0.40      0.00
    0  -10   17     -1.35      0.00
    1  -10   17      0.93      0.00
    2  -10   17     -0.14      0.00
    3  -10   17      0.60      0.00
    4  -10   17     -0.74      0.00
    5  -10   17      0.38      0.00
    6  -10   17     -0.98      0.00
   -5   -9   17      0.81      0.00
   -4   -9   17     -0.52      0.00
   -3   -9   17      0.21      0.00
   -2   -9   17     -0.79      0.00
   -1   -9   17      1.61      0.00
    0   -9   17     -1.04      0.00
    1   -9   17      0.88      0.00
    2   -9   17     -1.04      0.00
    3   -9   17      0.38      0.00
    4   -9   17      0.09      0.00
    5   -9   17      0.36      0.00
    6   -9   17     -0.42      0.00
   -7   -8   17     -0.67      0.00
   -6   -8   17      0.44      0.00
   -5   -8   17     -0.78      0.00
   -4   -8   17      0.07      0.00
   -3   -8   17      0.35      0.00
   -2   -8   17      0.06      0.00
   -1   -8   17     -0.03      0.00
    0   -8   17      0.41      0.00
    1   -8   17      0.06      0.00
    2   -8   17     -0.27      0.00
    3   -8   17     -0.02      0.00
    4   -8   17      0.12      0.00
    5   -8   17     -0.85      0.00
    6   -8   17      0.87      0.00
   -8   -7   17     -0.21      0.00
   -7   -7   17     -0.45      0.00
   -6   -7   17     -0.22      0.00
   -5   -7   17      1.21      0.00
   -4   -7   17     -1.45      0.00
   -3   -7   17      0.50      0.00
   -2   -7   17      1.20      0.00
   -1   -7   17     -1.61      0.00
    0   -7   17      0.99      0.00
    1   -7   17      0.00      0.00
    2   -7   17     -0.48      0.00
    3   -7   17     -0.04      0.00
    4   -7   17      1.13      0.00
    5   -7   17     -1.35      0.00
    6   -7   17      0.36      0.00
   -8   -6   17      0.26      0.00
   -7   -6   17     -0.64      0.00
   -6   -6   17      0.11      0.00
   -5   -6   17     -0.41      0.00
   -4   -6   17      0.42      0.00
   -3   -6   17     -0.17      0.00
   -2   -6   17      0.39      0.00
   -1   -6   17      0.48      0.00
    0   -6   17     -0.71      0.00
    1   -6   17      0.88      0.00
    2   -6   17     -0.77      0.00
    3   -6   17     -0.35      0.00
    4   -6   17      0.63      0.00
    5   -6   17     -0.54      0.00
    6   -6   17      0.30      0.00
   -9   -5   17     -0.11      0.00
   -8   -5   17     -0.80      0.00
   -7   -5   17      0.37      0.00
   -6   -5   17     -0.02      0.00
   -5   -5   17      0.05      0.00
   -4   -5   17      0.00      0.00
   -3   -5   17      0.28      0.00
   -2   -5   17      0.11      0.00
   -1   -5   17     -0.74      0.00
    0   -5   17      0.47      0.00
    1   -5   17      0.23      0.00
    2   -5   17     -0.01      0.00
    3   -5   17      0.11      0.00
    4   -5   17     -0.63      0.00
    5   -5   17      0.58      0.00
    6   -5   17     -0.74      0.00
  -10   -4   17      0.56      0.00
   -9   -4   17     -0.10      0.00
   -8   -4   17     -0.43      0.00
   -7   -4   17      0.29      0.00
   -6   -4   17     -0.89      0.00
   -5   -4   17      0.49      0.00
   -4   -4   17     -0.10      0.00
   -3   -4   17      0.79      0.00
   -2   -4   17     -0.40      0.00
   -1   -4   17      0.32      0.00
    0   -4   17     -0.55      0.00
    1   -4   17      0.80      0.00
    2   -4   17     -0.98      0.00
    3   -4   17      0.70      0.00
    4   -4   17     -1.00      0.00
    5   -4   17      0.89      0.00
  -10   -3   17     -1.00      0.00
   -9   -3   17     -0.01      0.00
   -8   -3   17     -0.15      0.00
   -7   -3   17      0.71      0.00
   -6   -3   17     -0.39      0.00
   -5   -3   17     -0.18      0.00
   -4   -3   17      0.57      0.00
   -3   -3   17     -0.81      0.00
   -2   -3   17      1.23      0.00
   -1   -3   17     -1.20      0.00
    0   -3   17      0.01      0.00
    1   -3   17      1.37      0.00
    2   -3   17     -0.94      0.00
    3   -3   17      0.95      0.00
    4   -3   17     -1.66      0.00
    5   -3   17      0.39      0.00
  -11   -2   17      0.37      0.00
  -10   -2   17      0.06      0.00
   -9   -2   17     -0.23      0.00
   -8   -2   17     -0.43      0.00
   -7   -2   17      0.07      0.00
   -6   -2   17      0.44      0.00
   -5   -2   17     -0.69      0.00
   -4   -2   17      0.88      0.00
   -3   -2   17     -0.33      0.00
   -2   -2   17     -0.18      0.00
   -1   -2   17      0.67      0.00
    0   -2   17      0.23      0.00
    1   -2   17     -1.79      0.00
    2   -2   17      1.83      0.00
    3   -2   17     -1.17      0.00
    4   -2   17      0.87      0.00
  -11   -1   17     -0.46      0.00
  -10   -1   17      0.42      0.00
   -9   -1   17     -0.97      0.00
   -8   -1   17      1.16      0.00
   -7   -1   17     -0.85      0.00
   -6   -1   17      0.76      0.00
   -5   -1   17     -0.25      0.00
   -4   -1   17     -0.78      0.00
   -3   -1   17      1.49      0.00
   -2   -1   17     -1.51      0.00
   -1   -1   17      0.32      0.00
    0   -1   17      1.19      0.00
    1   -1   17     -0.37      0.00
    2   -1   17     -0.19      0.00
    3   -1   17     -0.84      0.00
    4   -1   17      0.93      0.00
  -11    0   17     -0.39      0.00
  -10    0   17      0.69      0.00
   -9    0   17     -0.61      0.00
   -8    0   17     -0.30      0.00
   -7    0   17      0.82      0.00
   -6    0   17     -0.95      0.00
   -5    0   17      1.41      0.00
   -4    0   17     -1.63      0.00
   -3    0   17      1.23      0.00
   -2    0   17     -0.54      0.00
   -1    0   17      0.79      0.00
    0    0   17     -0.90      0.00
    1    0   17      0.43      0.00
    2    0   17      0.02      0.00
    3    0   17     -0.59      0.00
  -11    1   17      0.36      0.00
  -10    1   17     -0.51      0.00
   -9    1   17      0.69      0.00
   -8    1   17     -0.54      0.00
   -7    1   17      0.41      0.00
   -6    1   17     -0.61      0.00
   -5    1   17      0.45      0.00
   -4    1   17      0.22      0.00
   -3    1   17     -0.59      0.00
   -2    1   17     -0.44      0.00
   -1    1   17      1.37      0.00
    0    1   17      0.25      0.00
    1    1   17     -0.86      0.00
    2    1   17     -0.39      0.00
  -11    2   17      0.25      0.00
  -10    2   17      0.06      0.00
   -9    2   17     -0.46      0.00
   -8    2   17      0.91      0.00
   -7    2   17     -0.58      0.00
   -6    2   17      0.14      0.00
   -5    2   17     -0.90      0.00
   -4    2   17      1.71      0.00
   -3    2   17     -1.13      0.00
   -2    2   17      0.43      0.00
   -1    2   17     -0.42      0.00
    0    2   17      1.04      0.00
    1    2   17     -1.15      0.00
  -11    3   17     -0.58      0.00
  -10    3   17      0.18      0.00
   -9    3   17     -0.24      0.00
   -8    3   17      0.74      0.00
   -7    3   17     -1.32      0.00
   -6    3   17      1.11      0.00
   -5    3   17     -0.44      0.00
   -4    3   17     -0.36      0.00
   -3    3   17      0.54      0.00
   -2    3   17      0.00      0.00
   -1    3   17      0.13      0.00
    0    3   17      0.00      0.00
  -11    4   17     -0.67      0.00
  -10    4   17      0.16      0.00
   -9    4   17      0.44      0.00
   -8    4   17     -0.29      0.00
   -7    4   17      0.20      0.00
   -6    4   17     -0.80      0.00
   -5    4   17      1.14      0.00
   -4    4   17     -0.93      0.00
   -3    4   17      0.70      0.00
   -2    4   17     -0.18      0.00
   -1    4   17      0.09      0.00
  -10    5   17     -0.91      0.00
   -9    5   17      0.66      0.00
   -8    5   17     -0.50      0.00
   -7    5   17      0.45      0.00
   -6    5   17     -0.60      0.00
   -5    5   17      0.62      0.00
   -4    5   17     -0.42      0.00
   -3    5   17      0.18      0.00
   -8    6   17      0.02      0.00
   -7    6   17      0.61      0.00
   -6    6   17     -0.21      0.00
   -2  -10   18     -1.09      0.00
   -1  -10   18      1.06      0.00
    0  -10   18     -0.49      0.00
    1  -10   18      0.26      0.00
    2  -10   18     -0.91      0.00
    3  -10   18      1.06      0.00
   -4   -9   18     -0.03      0.00
   -3   -9   18      0.48      0.00
   -2   -9   18     -0.85      0.00
   -1   -9   18      0.01      0.00
    0   -9   18      0.17      0.00
    1   -9   18      0.30      0.00
    2   -9   18      0.03      0.00
    3   -9   18     -0.27      0.00
    4   -9   18      0.10      0.00
   -5   -8   18      0.17      0.00
   -4   -8   18     -0.48      0.00
   -3   -8   18     -0.24      0.00
   -2   -8   18      0.57      0.00
   -1   -8   18     -1.04      0.00
    0   -8   18      0.65      0.00
    1   -8   18     -0.13      0.00
    2   -8   18      0.10      0.00
    3   -8   18      0.01      0.00
    4   -8   18      0.91      0.00
   -6   -7   18     -0.98      0.00
   -5   -7   18      0.53      0.00
   -4   -7   18     -0.08      0.00
   -3   -7   18     -0.49      0.00
   -2   -7   18      0.33      0.00
   -1   -7   18      0.04      0.00
    0   -7   18     -0.54      0.00
    1   -7   18      0.96      0.00
    2   -7   18     -0.66      0.00
    3   -7   18      0.07      0.00
    4   -7   18     -0.20      0.00
   -7   -6   18      0.65      0.00
   -6   -6   18      0.05      0.00
   -5   -6   18     -0.63      0.00
   -4   -6   18      0.10      0.00
   -3   -6   18      0.18      0.00
   -2   -6   18     -0.88      0.00
   -1   -6   18      0.67      0.00
    0   -6   18     -0.14      0.00
    1   -6   18     -0.29      0.00
    2   -6   18      0.93      0.00
    3   -6   18      0.03      0.00
    4   -6   18     -1.11      0.00
   -8   -5   18     -0.23      0.00
   -7   -5   18      0.48      0.00
   -6   -5   18     -0.77      0.00
   -5   -5   18      0.49      0.00
   -4   -5   18     -0.40      0.00
   -3   -5   18      0.02      0.00
   -2   -5   18      0.43      0.00
   -1   -5   18     -0.45      0.00
    0   -5   18      0.43      0.00
    1   -5   18     -0.68      0.00
    2   -5   18     -0.16      0.00
    3   -5   18      1.30      0.00
    4   -5   18     -1.00      0.00
   -8   -4   18      0.98      0.00
   -7   -4   18     -0.44      0.00
   -6   -4   18      0.14      0.00
   -5   -4   18     -0.08      0.00
   -4   -4   18     -0.68      0.00
   -3   -4   18      0.57      0.00
   -2   -4   18     -0.66      0.00
   -1   -4   18      0.49      0.00
    0   -4   18      0.18      0.00
    1   -4   18     -0.30      0.00
    2   -4   18      0.24      0.00
    3   -4   18      0.05      0.00
    4   -4   18      0.10      0.00
   -9   -3   18     -0.20      0.00
   -8   -3   18      0.02      0.00
   -7   -3   18     -0.26      0.00
   -6   -3   18      0.13      0.00
   -5   -3   18     -0.06      0.00
   -4   -3   18      0.44      0.00
   -3   -3   18     -0.78      0.00
   -2   -3   18      0.53      0.00
   -1   -3   18     -0.02      0.00
    0   -3   18     -0.07      0.00
    1   -3   18     -1.00      0.00
    2   -3   18      1.18      0.00
    3   -3   18     -0.39      0.00
   -9   -2   18     -0.11      0.00
   -8   -2   18      0.43      0.00
   -7   -2   18     -0.55      0.00
   -6   -2   18      0.16      0.00
   -5   -2   18     -0.13      0.00
   -4   -2   18     -0.33      0.00
   -3   -2   18      1.18      0.00
   -2   -2   18     -2.06      0.00
   -1   -2   18      1.17      0.00
    0   -2   18      0.78      0.00
    1   -2   18     -1.31      0.00
    2   -2   18      1.15      0.00
    3   -2   18     -1.27      0.00
  -10   -1   18      0.71      0.00
   -9   -1   18     -0.88      0.00
   -8   -1   18      0.38      0.00
   -7   -1   18      0.20      0.00
   -6   -1   18     -0.84      0.00
   -5   -1   18      1.24      0.00
   -4   -1   18     -1.05      0.00
   -3   -1   18      0.81      0.00
   -2   -1   18     -0.38      0.00
   -1   -1   18     -0.14      0.00
    0   -1   18     -1.07      0.00
    1   -1   18      1.68      0.00
    2   -1   18     -0.51      0.00
  -10    0   18     -0.74      0.00
   -9    0   18      1.06      0.00
   -8    0   18     -0.79      0.00
   -7    0   18      0.42      0.00
   -6    0   18     -0.56      0.00
   -5    0   18      0.33      0.00
   -4    0   18      0.65      0.00
   -3    0   18     -1.50      0.00
   -2    0   18      0.78      0.00
   -1    0   18      0.16      0.00
    0    0   18     -0.12      0.00
    1    0   18     -0.21      0.00
  -10    1   18     -0.36      0.00
   -9    1   18     -0.35      0.00
   -8    1   18      1.20      0.00
   -7    1   18     -1.11      0.00
   -6    1   18      0.74      0.00
   -5    1   18     -1.04      0.00
   -4    1   18      1.76      0.00
   -3    1   18     -1.48      0.00
   -2    1   18      0.48      0.00
   -1    1   18     -0.87      0.00
    0    1   18      0.68      0.00
   -9    2   18     -0.29      0.00
   -8    2   18      0.46      0.00
   -7    2   18     -0.63      0.00
   -6    2   18      1.10      0.00
   -5    2   18     -0.70      0.00
   -4    2   18     -0.46      0.00
   -3    2   18      0.36      0.00
   -2    2   18      0.44      0.00
   -1    2   18     -0.56      0.00
   -9    3   18      0.98      0.00
   -8    3   18     -0.91      0.00
   -7    3   18      0.48      0.00
   -6    3   18     -0.52      0.00
   -5    3   18      1.28      0.00
   -4    3   18     -1.43      0.00
   -3    3   18      0.54      0.00
   -7    4   18      0.82      0.00
   -6    4   18     -0.27      0.00
   -5    4   18     -0.58      0.00
   -2   -8   19      0.66      0.00
   -1   -8   19     -0.58      0.00
    0   -8   19      0.22      0.00
    1   -8   19     -0.20      0.00
   -4   -7   19      0.12      0.00
   -3   -7   19      0.40      0.00
   -2   -7   19     -0.90      0.00
   -1   -7   19      0.94      0.00
    0   -7   19     -0.51      0.00
    1   -7   19     -0.48      0.00
    2   -7   19      0.96      0.00
   -5   -6   19      0.09      0.00
   -4   -6   19      0.20      0.00
   -3   -6   19     -0.16      0.00
   -2   -6   19      0.21      0.00
   -1   -6   19     -0.53      0.00
    0   -6   19      1.01      0.00
    1   -6   19     -1.75      0.00
    2   -6   19      0.89      0.00
   -6   -5   19      0.38      0.00
   -5   -5   19      0.00      0.00
   -4   -5   19     -0.05      0.00
   -3   -5   19      0.08      0.00
   -2   -5   19     -0.50      0.00
   -1   -5   19      0.66      0.00
    0   -5   19     -0.30      0.00
    1   -5   19      0.56      0.00
    2   -5   19     -0.92      0.00
   -6   -4   19      0.62      0.00
   -5   -4   19     -0.23      0.00
   -4   -4   19      0.38      0.00
   -3   -4   19     -0.25      0.00
   -2   -4   19      0.01      0.00
   -1   -4   19     -0.16      0.00
    0   -4   19      0.07      0.00
    1   -4   19     -0.49      0.00
   -7   -3   19      0.32      0.00
   -6   -3   19      0.04      0.00
   -5   -3   19     -0.86      0.00
   -4   -3   19      1.27      0.00
   -3   -3   19     -0.96      0.00
   -2   -3   19      0.33      0.00
   -1   -3   19      0.42      0.00
    0   -3   19     -0.35      0.00
    1   -3   19      0.14      0.00
   -7   -2   19      0.13      0.00
   -6   -2   19      0.17      0.00
   -5   -2   19     -0.03      0.00
   -4   -2   19     -0.51      0.00
   -3   -2   19      0.82      0.00
   -2   -2   19     -0.12      0.00
   -1   -2   19     -0.46      0.00
    0   -2   19     -0.37      0.00
   -7   -1   19      0.35      0.00
   -6   -1   19     -0.36      0.00
   -5   -1   19      0.06      0.00
   -4   -1   19      0.47      0.00
   -3   -1   19     -1.36      0.00
   -2   -1   19      2.01      0.00
   -1   -1   19     -0.46      0.00
   -7    0   19     -0.75      0.00
   -6    0   19      1.01      0.00
   -5    0   19     -1.21      0.00
   -4    0   19      1.30      0.00
   -3    0   19     -0.79      0.00
   -2    0   19      0.52      0.00
   -7    1   19     -0.11      0.00
   -6    1   19      0.44      0.00
   -5    1   19     -0.62      0.00
   -4    1   19     -0.07      0.00
    1    0    0    -83.40      0.00
  -18    6    0      0.41      0.00
   12    6    0      0.27      0.00
  -18   12    0      0.74      0.00
    6   12    0     -0.55      0.00
  -12   18    0      0.23      0.00
   -6   18    0      0.18      0.00
    5  -18    1      0.72      0.00
    2  -17    1      0.16      0.00
   -2  -15    1      0.18      0.00
   -5  -13    1      0.09      0.00
   18  -11    1     -0.46      0.00
   18  -10    1     -0.47      0.00
   18   -8    1     -0.06      0.00
  -13   -5    1      0.24      0.00
  -15   -2    1     -0.16      0.00
   16   -1    1     -0.42      0.00
  -16    0    1      0.19      0.00
   -3    0    1     -2.08      0.00
   15    1    1     -0.15      0.00
    9    9    1      0.15      0.00
  -18   12    1     -0.17      0.00
  -11   18    1     -0.06      0.00
   -7   18    1     -0.78      0.00
   -4  -14    2     -0.59      0.00
   17  -14    2     -0.75      0.00
  -18    5    2      0.16      0.00
   12    5    2     -0.25      0.00
  -18   12    2     -0.56      0.00
  -16   15    2     -0.29      0.00
  -14   17    2     -0.38      0.00
   -4   17    2     -1.55      0.00
    4  -18    3      0.49      0.00
    1  -17    3     -0.54      0.00
   -1  -16    3      0.04      0.00
   -8  -11    3      0.42      0.00
  -11   -8    3     -0.03      0.00
   -1   -1    3     13.14      0.00
   10    7    3      0.55      0.00
    9    8    3      0.43      0.00
    8    9    3     -0.58      0.00
    7   10    3      0.17      0.00
  -18   12    3      0.42      0.00
  -17   14    3      0.26      0.00
  -16   15    3     -0.83      0.00
  -15   16    3      0.04      0.00
  -13   17    3      0.22      0.00
   -5   17    3      0.61      0.00
    1  -17    4      0.74      0.00
   14  -17    4     -0.21      0.00
   -3  -15    4      0.46      0.00
   16  -15    4     -0.34      0.00
   -7  -12    4     -0.59      0.00
   17  -12    4     -0.65      0.00
  -12   -7    4     -0.20      0.00
   17   -7    4      0.40      0.00
  -16   -1    4     -0.16      0.00
    0   -1    4    -18.28      0.00
   15   -1    4      0.47      0.00
   14    1    4     -0.02      0.00
   12    4    4     -0.01      0.00
    4   12    4     -0.72      0.00
  -16   14    4     -0.33      0.00
    1   14    4      0.37      0.00
  -16   15    4      0.63      0.00
   -1   15    4      0.45      0.00
  -12   17    4     -0.87      0.00
   -7   17    4      0.07      0.00
   12  -18    5      0.64      0.00
   -1  -16    5     -0.17      0.00
   -3  -15    5     -0.49      0.00
   16  -14    5      0.73      0.00
   -6  -13    5     -0.31      0.00
   15   -2    5     -0.09      0.00
  -16   -1    5     -0.19      0.00
   14    0    5      1.40      0.00
  -17    1    5      0.11      0.00
    9    7    5     -0.64      0.00
    8    8    5     -0.37      0.00
    7    9    5     -0.03      0.00
  -18   11    5      0.43      0.00
  -16   14    5      1.23      0.00
    0   14    5     -0.15      0.00
   -2   15    5      0.49      0.00
  -14   16    5      0.08      0.00
   -1  -16    6     -0.23      0.00
   -6  -13    6     -0.69      0.00
   16  -13    6     -0.37      0.00
  -13   -6    6     -0.04      0.00
   16   -6    6     -1.20      0.00
  -15   -3    6      0.26      0.00
   15   -3    6      0.46      0.00
  -16   -1    6     -0.16      0.00
   14   -1    6      0.94      0.00
   13    1    6      1.11      0.00
   11    4    6     -0.26      0.00
  -18    5    6     -0.64      0.00
  -18   10    6     -0.47      0.00
    4   11    6     -0.04      0.00
  -16   13    6      0.83      0.00
    1   13    6      0.30      0.00
  -16   14    6      0.38      0.00
   -3   15    6     -0.21      0.00
   -6   16    6     -0.74      0.00
   11  -18    7     -0.69      0.00
   -1  -16    7     -0.37      0.00
   14  -16    7     -0.28      0.00
   -1  -15    7     -0.39      0.00
   -6  -13    7     -0.15      0.00
   16  -11    7      0.47      0.00
   16  -10    7      0.56      0.00
   16   -9    7     -0.48      0.00
  -13   -6    7     -1.24      0.00
  -15   -3    7      0.13      0.00
   14   -2    7      0.46      0.00
  -16   -1    7     -0.15      0.00
   13   -1    7     -0.42      0.00
   13    0    7      0.76      0.00
  -18    5    7     -0.21      0.00
  -18    9    7     -0.71      0.00
  -17   12    7     -0.01      0.00
  -15   12    7      0.00      0.00
  -16   13    7      0.03      0.00
    0   13    7      0.65      0.00
   -2   14    7     -0.47      0.00
  -14   15    7     -0.76      0.00
    4  -18    8      0.06      0.00
   10  -18    8      0.30      0.00
    1  -17    8     -0.14      0.00
   12  -17    8     -0.50      0.00
   -1  -16    8     -0.46      0.00
   -3  -15    8      0.46      0.00
   -1  -15    8      0.31      0.00
   -6  -13    8     -0.06      0.00
   15  -13    8     -0.58      0.00
   15   -6    8     -0.59      0.00
   14   -3    8     -0.31      0.00
   12   -1    8      1.07      0.00
   13   -1    8     -0.45      0.00
   12    0    8     -0.88      0.00
    8    6    8      0.35      0.00
  -18    7    8     -0.69      0.00
    7    7    8      0.53      0.00
    6    8    8     -0.18      0.00
  -17   11    8      0.46      0.00
  -16   12    8      0.36      0.00
  -15   12    8     -0.68      0.00
   -1   13    8      0.30      0.00
  -12   15    8      0.70      0.00
    5  -18    9     -0.62      0.00
    6  -18    9      0.79      0.00
    7  -18    9     -0.53      0.00
    8  -18    9     -0.06      0.00
   -1  -16    9      0.04      0.00
   -3  -15    9      1.07      0.00
   -2  -15    9     -0.73      0.00
   -1  -15    9      0.34      0.00
   14  -14    9     -0.18      0.00
   -6  -13    9     -0.02      0.00
   15  -10    9     -0.06      0.00
  -12   -7    9      0.75      0.00
   14   -5    9      0.09      0.00
   11   -1    9      0.76      0.00
   12   -1    9     -0.21      0.00
  -17    2    9     -0.28      0.00
    9    4    9      0.01      0.00
    4    9    9      0.83      0.00
  -17   10    9      0.24      0.00
  -16   11    9      0.61      0.00
  -15   11    9     -0.94      0.00
  -16   12    9      0.56      0.00
  -15   12    9      0.19      0.00
  -15   13    9      0.25      0.00
  -13   14    9      0.11      0.00
   -5   14    9      0.26      0.00
    2  -17   10     -0.21      0.00
   10  -17   10      0.13      0.00
   -2  -15   10      0.82      0.00
   -1  -15   10      0.09      0.00
   -2  -14   10      0.56      0.00
   -7  -12   10     -0.36      0.00
   14  -12   10     -0.34      0.00
  -11   -8   10     -0.17      0.00
   14   -7   10      0.90      0.00
  -14   -4   10      0.99      0.00
   13   -4   10      0.45      0.00
   12   -2   10     -0.10      0.00
   11   -1   10      0.32      0.00
  -16    0   10     -0.02      0.00
   11    0   10     -0.98      0.00
  -17    3   10     -0.07      0.00
    9    3   10     -0.46      0.00
    3    9   10     -0.83      0.00
  -15   10   10      0.04      0.00
  -16   11   10     -0.39      0.00
  -15   11   10      0.64      0.00
    0   11   10     -0.10      0.00
  -15   12   10      0.34      0.00
  -12   13   10     -0.04      0.00
   -4   13   10     -0.43      0.00
  -10   14   10     -0.61      0.00
   -9   14   10      0.19      0.00
   -8   14   10     -0.21      0.00
    3  -17   11     -0.14      0.00
    0  -16   11     -1.04      0.00
   -2  -15   11      0.21      0.00
   -1  -15   11     -0.05      0.00
   -4  -14   11     -0.66      0.00
   -2  -14   11     -0.76      0.00
   13  -13   11      0.69      0.00
   -9  -10   11      0.38      0.00
  -10   -9   11     -0.05      0.00
   13   -6   11      0.53      0.00
   12   -3   11      0.29      0.00
   10   -2   11      0.46      0.00
   11   -2   11     -0.45      0.00
   10   -1   11      0.72      0.00
   11   -1   11     -0.48      0.00
    9    2   11     -0.01      0.00
    2    9   11     -0.03      0.00
  -15   10   11      0.61      0.00
  -15   11   11      0.34      0.00
  -14   12   11      0.21      0.00
  -11   13   11      0.17      0.00
   -7   13   11      0.12      0.00
   -1  -15   12     -1.14      0.00
   -3  -14   12      0.52      0.00
   -2  -14   12      0.03      0.00
   -5  -13   12     -0.90      0.00
   12  -13   12     -0.53      0.00
   12   -5   12      0.01      0.00
  -14   -3   12     -0.07      0.00
   11   -3   12     -0.17      0.00
    9   -2   12     -0.24      0.00
   10   -2   12      0.37      0.00
  -15   -1   12      0.44      0.00
    9   -1   12      0.19      0.00
   10   -1   12      0.23      0.00
    8    0   12      0.30      0.00
    9    0   12      0.16      0.00
    8    1   12      1.10      0.00
  -16    2   12     -0.06      0.00
    6    3   12     -1.18      0.00
  -16    8   12      0.00      0.00
    2    8   12      0.61      0.00
   -1   10   12      0.38      0.00
   -3   11   12      0.02      0.00
  -12   12   12      0.18      0.00
   -6   12   12     -0.45      0.00
    2  -16   13     -0.34      0.00
    7  -16   13      0.17      0.00
   -2  -14   13     -0.34      0.00
   -3  -13   13      0.30      0.00
   11  -13   13      0.62      0.00
   -7  -11   13      0.39      0.00
  -11   -7   13     -0.98      0.00
   10   -5   13      0.18      0.00
   11   -5   13      0.20      0.00
  -13   -4   13      0.05      0.00
   10   -4   13     -0.19      0.00
    9   -3   13      0.49      0.00
   10   -3   13      0.12      0.00
    9   -2   13      0.54      0.00
    8   -1   13      0.49      0.00
    9   -1   13     -0.27      0.00
  -15    0   13     -0.98      0.00
    8    0   13      0.93      0.00
    7    1   13      0.21      0.00
    7    2   13      1.28      0.00
    6    3   13     -0.73      0.00
    2    7   13      0.38      0.00
  -15    8   13      0.16      0.00
   -1    9   13      1.07      0.00
   -3   10   13     -0.47      0.00
  -12   11   13     -0.10      0.00
   -6   11   13     -0.45      0.00
   -2  -14   14     -0.70      0.00
    9  -14   14      0.99      0.00
   -3  -13   14     -0.50      0.00
  -12   -5   14     -0.65      0.00
   10   -5   14     -0.31      0.00
    9   -3   14      0.13      0.00
  -14   -1   14      0.82      0.00
    8   -1   14      0.94      0.00
  -15    2   14      0.99      0.00
    6    2   14      0.05      0.00
  -15    3   14      0.10      0.00
  -15    4   14     -0.08      0.00
  -15    5   14     -0.04      0.00
    2    6   14      0.88      0.00
  -14    8   14     -0.23      0.00
   -1    8   14      0.89      0.00
  -13    9   14     -0.12      0.00
   -3    9   14     -0.61      0.00
  -11   10   14     -0.33      0.00
   -6   10   14     -0.18      0.00
    7  -14   15      0.97      0.00
   -3  -12   15      0.21      0.00
    9  -12   15     -0.48      0.00
   -7  -10   15     -0.26      0.00
   -8   -9   15     -0.17      0.00
   -9   -8   15     -0.20      0.00
  -10   -7   15      0.90      0.00
    9   -5   15      0.47      0.00
  -12   -4   15      0.68      0.00
  -13   -2   15     -1.28      0.00
    7   -1   15      0.17      0.00
  -14    1   15      0.11      0.00
    4    3   15      0.96      0.00
    3    4   15      0.49      0.00
  -14    5   15      0.09      0.00
  -13    7   15     -0.41      0.00
   -1    7   15      0.07      0.00
  -12    8   15      0.42      0.00
   -3    8   15      0.27      0.00
  -10    9   15      0.20      0.00
   -6    9   15     -0.28      0.00
   -1  -13   16     -0.75      0.00
   -3  -12   16      0.72      0.00
    8  -11   16      0.24      0.00
   -6  -10   16      0.43      0.00
  -10   -6   16     -1.50      0.00
    8   -6   16     -0.03      0.00
    7   -3   16     -1.19      0.00
  -13    0   16     -0.22      0.00
    5    0   16     -0.66      0.00
  -13    1   16     -0.37      0.00
  -13    4   16     -0.51      0.00
    0    5   16      0.09      0.00
  -12    6   16     -0.02      0.00
  -11    7   16     -0.28      0.00
   -8    8   16     -0.64      0.00
   -1  -12   17      0.90      0.00
    5  -12   17     -0.80      0.00
    6  -11   17      1.08      0.00
   -5  -10   17     -0.04      0.00
   -6   -9   17     -0.69      0.00
    7   -8   17     -0.71      0.00
   -9   -6   17     -0.17      0.00
    6   -4   17      0.17      0.00
    5   -2   17     -0.70      0.00
  -12    0   17      0.16      0.00
  -12    1   17     -0.39      0.00
  -12    2   17     -0.43      0.00
  -12    3   17      0.88      0.00
  -11    5   17      0.50      0.00
   -9    6   17     -0.46      0.00
   -5    6   17     -0.77      0.00
    0  -11   18     -1.04      0.00
    1  -11   18      1.59      0.00
    2  -11   18     -0.83      0.00
   -3  -10   18      0.30      0.00
    4  -10   18     -0.33      0.00
    5   -8   18     -1.19      0.00
   -7   -7   18      0.90      0.00
    5   -7   18      0.99      0.00
    5   -6   18      1.00      0.00
   -9   -4   18     -0.27      0.00
  -10   -2   18      0.54      0.00
  -10    2   18     -0.07      0.00
  -10    3   18     -0.38      0.00
   -2    3   18     -0.50      0.00
   -9    4   18      0.32      0.00
   -8    4   18     -0.51      0.00
   -4    4   18      0.63      0.00
   -1   -9   19     -0.30      0.00
    0   -9   19      0.04      0.00
   -3   -8   19     -0.23      0.00
    2   -8   19     -0.32      0.00
   -6   -6   19      0.47      0.00
   -7   -4   19     -0.21      0.00
    2   -4   19      0.97      0.00
   -8   -2   19      0.14      0.00
    1   -2   19      0.92      0.00
   -8   -1   19     -0.32      0.00
    0   -1   19     -0.96      0.00
   -8    0   19      0.26      0.00
   -1    0   19     -0.77      0.00
   -8    1   19      0.24      0.00
   -3    1   19      0.79      0.00
   -6    2   19      0.12      0.00
   -5    2   19      0.63      0.00
    0    0    0      0.00      0.00
# SQUEEZE RESULTS (Version = 230318)
# Note: Data are Listed for all Voids in the P1 Unit Cell
# i.e. Centre of Gravity, Solvent Accessible Volume,
# Recovered number of Electrons in the Void and
# Details about the Squeezed Material
loop_
  _platon_squeeze_void_nr
  _platon_squeeze_void_average_x
  _platon_squeeze_void_average_y
  _platon_squeeze_void_average_z
  _platon_squeeze_void_volume
  _platon_squeeze_void_count_electrons
  _platon_squeeze_void_content
   1  0.153  0.069  0.667         7         0 ' '
   2  0.500  0.500  1.000       447        98 ' '
   3  0.847  0.930  0.333         7         0 ' '
# Missing Reflections Below sin(th)/lambda = 0.25
loop_
  _platon_missing_refln_index_h
  _platon_missing_refln_index_k
  _platon_missing_refln_index_l
  _platon_missing_refln_theta
    1    0    0     1.743
   -3    0    1     5.013
   -1   -1    3     4.423
    0   -1    4     5.633
_platon_squeeze_void_probe_radius                  1.20
_platon_squeeze_details
)
TITL 1         P -1         R = 0.06
CELL   13.6803   13.8392   14.6811    101.40     99.38    116.89
SPGR P-1
# Solvent Accessible Volume =       461
# Electrons Found in S.A.V. =        98
# Note: Atoms in Void are Labelled as Cxxx and Qxxx for all Others
C101 0.387 0.256 0.222 !       4.05 eA-3
C102 0.564 0.279 0.237 !       3.62 eA-3
C103 0.484 0.308 0.214 !       3.22 eA-3
C104 0.501 0.403 0.188 !       3.08 eA-3
C105 0.675 0.368 0.216 !       2.67 eA-3
C106 0.624 0.214 0.283 !       1.53 eA-3
C107 0.454 0.164 0.296 !       1.35 eA-3
Q108 0.093 0.060 0.232 !       1.13 eA-3
Q109 0.067 0.617 0.297 !       1.01 eA-3
Q110 0.937 0.362 0.485 !       0.96 eA-3
Q111 0.032 0.620 0.455 !       0.90 eA-3
Q112 0.954 0.336 0.425 !       0.85 eA-3
Q113 0.032 0.276 0.444 !       0.79 eA-3
Q114 0.031 0.582 0.028 !       0.77 eA-3
Q115 0.377 0.113 0.434 !       0.77 eA-3
Q116 0.626 0.824 0.064 !       0.75 eA-3
Q117 0.736 0.922 0.478 !       0.74 eA-3
Q118 0.031 0.532 0.300 !       0.74 eA-3
Q119 0.123 0.737 0.468 !       0.74 eA-3
Q120 0.027 0.592 0.218 !       0.71 eA-3
Q121 0.863 0.204 0.450 !       0.70 eA-3
Q122 0.495 0.799 0.074 !       0.69 eA-3
Q123 0.345 0.670 0.081 !       0.67 eA-3
C124 0.549 0.238 0.160 !       0.66 eA-3
Q125 0.341 0.785 0.156 !       0.65 eA-3
Q126 0.701 0.286 0.192 !       0.64 eA-3
Q127 0.061 0.987 0.264 !       0.63 eA-3
Q128 0.659 0.792 0.083 !       0.62 eA-3
Q129 0.985 0.515 0.284 !       0.61 eA-3
C130 0.426 0.093 0.205 !       0.60 eA-3
Q131 0.099 0.956 0.229 !       0.59 eA-3
Q132 0.109 0.088 0.142 !       0.59 eA-3
Q133 0.031 0.558 0.237 !       0.59 eA-3
Q134 0.012 0.471 0.038 !       0.58 eA-3
Q135 0.328 0.167 0.449 !       0.58 eA-3
Q136 0.043 0.558 0.474 !       0.58 eA-3
Q137 0.331 0.621 0.124 !       0.58 eA-3
C138 0.499 0.188 0.371 !       0.57 eA-3
Q139 0.252 0.474 0.206 !       0.56 eA-3
Q140 0.830 0.109 0.174 !       0.56 eA-3
Q141 0.824 0.907 0.106 !       0.56 eA-3
Q142 0.708 0.781 0.123 !       0.56 eA-3
Q143 1.001 0.515 0.091 !       0.56 eA-3
Q144 0.227 0.450 0.260 !       0.56 eA-3
Q145 0.426 0.723 0.040 !       0.55 eA-3
Q146 0.110 0.625 0.468 !       0.55 eA-3
Q147 0.901 0.577 0.028 !       0.54 eA-3
Q148 0.811 0.048 0.248 !       0.54 eA-3
Q149 0.179 0.514 0.356 !       0.53 eA-3
Q150 0.720 0.844 0.454 !       0.53 eA-3
Q151 0.591 0.442 0.145 !       0.53 eA-3
Q152 0.699 0.626 0.360 !       0.53 eA-3
Q153 0.688 0.196 0.205 !       0.53 eA-3
Q154 0.720 0.447 0.485 !       0.53 eA-3
Q155 0.076 0.988 0.149 !       0.53 eA-3
Q156 0.448 0.864 0.176 !       0.52 eA-3
C157 0.654 0.198 0.377 !       0.52 eA-3
Q158 0.780 0.304 0.310 !       0.52 eA-3
Q159 0.279 0.736 0.157 !       0.52 eA-3
Q160 0.735 0.489 0.494 !       0.52 eA-3
Q161 0.488 0.949 0.447 !       0.52 eA-3
Q162 0.653 0.264 0.359 !       0.52 eA-3
Q163 0.482 0.233 0.109 !       0.52 eA-3
Q164 0.689 0.457 0.242 !       0.52 eA-3
Q165 0.071 0.563 0.081 !       0.51 eA-3
Q166 0.667 0.799 0.429 !       0.51 eA-3
Q167 0.283 0.473 0.401 !       0.51 eA-3
Q168 0.044 0.075 0.328 !       0.51 eA-3
Q169 0.020 0.640 0.430 !       0.51 eA-3
Q170 0.892 0.609 0.139 !       0.51 eA-3
Q171 0.890 0.440 0.319 !       0.50 eA-3
)
;
_shelx_fab_checksum              50336
_platon_squeeze_void_probe_radius 1.20
_olex2_submission_special_instructions 'No special instructions were received'
loop_
_space_group_symop_operation_xyz
'x, y, z'
'-x, -y, -z'
loop_
_atom_site_label
_atom_site_type_symbol
_atom_site_fract_x
_atom_site_fract_y
_atom_site_fract_z
_atom_site_U_iso_or_equiv
_atom_site_adp_type
_atom_site_occupancy
_atom_site_site_symmetry_order
_atom_site_calc_flag
_atom_site_refinement_flags_posn
_atom_site_refinement_flags_adp
_atom_site_refinement_flags_occupancy
_atom_site_disorder_assembly
_atom_site_disorder_group
Cd1 Cd 0.000000 1.500000 1.000000 0.02397(7) Uani 1 2 d S T P . .
Cd2 Cd -0.03175(2) 0.43419(2) 0.74075(2) 0.03019(7) Uani 1 1 d . . . . .
O1 O 0.08422(18) 1.39955(18) 0.96426(17) 0.0408(5) Uani 1 1 d . . . . .
O5 O 0.86732(16) 1.41213(17) 0.84929(15) 0.0353(5) Uani 1 1 d . . . . .
O2 O 0.10528(19) 1.4065(2) 0.81779(17) 0.0449(6) Uani 1 1 d . . . . .
O3 O 0.11776(19) 0.64729(18) 0.94915(18) 0.0450(6) Uani 1 1 d . . . . .
O4 O 0.0664(2) 0.62070(19) 0.79001(18) 0.0490(6) Uani 1 1 d . . . . .
O7 O -0.1762(2) 0.4545(2) 0.64499(18) 0.0543(7) Uani 1 1 d . . . . .
O6 O 0.79097(19) 1.2524(2) 0.73041(19) 0.0508(6) Uani 1 1 d . . . . .
O8 O 0.2937(2) 0.3628(2) 0.6359(2) 0.0601(7) Uani 1 1 d . . . . .
C1 C 0.1969(2) 1.3306(2) 0.9055(2) 0.0302(6) Uani 1 1 d . U . . .
N2 N 0.3783(2) 1.1540(2) 0.9188(2) 0.0391(7) Uani 1 1 d . . . . .
C2 C 0.1236(2) 1.3843(2) 0.8955(2) 0.0312(6) Uani 1 1 d . U . . .
N4 N 0.1452(3) 0.2222(3) 0.5091(2) 0.0630(10) Uani 1 1 d . . . . .
H4 H 0.121657 0.158834 0.465258 0.076 Uiso 1 1 calc R . . . .
N1 N -0.0105(3) 0.3605(3) 0.5980(2) 0.0516(8) Uani 1 1 d . . . . .
C3 C 0.4801(2) 1.1900(2) 0.8912(2) 0.0325(7) Uani 1 1 d . U . . .
C4 C 0.2586(3) 1.3265(3) 0.8407(2) 0.0404(8) Uani 1 1 d . U . . .
H4A H 0.258668 1.362055 0.793118 0.048 Uiso 1 1 calc R . . . .
C5 C 0.5971(3) 1.1536(3) 0.8005(2) 0.0380(7) Uani 1 1 d . U . . .
H5 H 0.607542 1.102595 0.757339 0.046 Uiso 1 1 calc R . . . .
C6 C 0.3202(3) 1.2706(3) 0.8452(3) 0.0413(8) Uani 1 1 d . U . . .
H6 H 0.361804 1.269249 0.801206 0.050 Uiso 1 1 calc R . . . .
C7 C 0.3201(2) 1.2168(2) 0.9146(2) 0.0336(7) Uani 1 1 d . U . . .
C8 C 0.6814(2) 1.2671(2) 0.8366(2) 0.0324(7) Uani 1 1 d . U . . .
C9 C 0.1855(2) 0.8064(2) 0.8931(2) 0.0313(6) Uani 1 1 d . U . . .
C10 C 0.0634(3) 0.3234(3) 0.5951(2) 0.0438(8) Uani 1 1 d . U . . .
H10 H 0.113009 0.336957 0.653637 0.053 Uiso 1 1 calc R . . . .
C11 C 0.1181(2) 0.6812(3) 0.8777(2) 0.0336(7) Uani 1 1 d . U . . .
C12 C 0.3112(2) 1.0369(2) 0.9112(2) 0.0332(7) Uani 1 1 d . U . . .
C13 C 0.5644(2) 1.3038(3) 0.9272(3) 0.0389(7) Uani 1 1 d . U . . .
H13 H 0.553715 1.355079 0.969817 0.047 Uiso 1 1 calc R . . . .
C14 C 0.7857(2) 1.3100(3) 0.8029(2) 0.0345(7) Uani 1 1 d . U . . .
O9 O 0.0616(3) 0.0732(3) 0.3119(3) 0.0982(12) Uani 1 1 d . . . . .
C15 C 0.1993(3) 1.2785(3) 0.9764(2) 0.0426(8) Uani 1 1 d . U . . .
H15 H 0.159578 1.281568 1.021562 0.051 Uiso 1 1 calc R . . . .
C16 C 0.3521(3) 0.9899(3) 0.9711(3) 0.0430(8) Uani 1 1 d . U . . .
H16 H 0.423125 1.035506 1.017409 0.052 Uiso 1 1 calc R . . . .
C17 C 0.6640(2) 1.3414(3) 0.9005(2) 0.0355(7) Uani 1 1 d . U . . .
H17 H 0.720371 1.417831 0.925814 0.043 Uiso 1 1 calc R . . . .
C18 C 0.2887(3) 0.8757(3) 0.9631(3) 0.0410(8) Uani 1 1 d . U . . .
H18 H 0.316213 0.845836 1.005390 0.049 Uiso 1 1 calc R . . . .
C19 C 0.4972(3) 1.1149(3) 0.8280(3) 0.0377(7) Uani 1 1 d . U . . .
H19 H 0.441487 1.038210 0.803766 0.045 Uiso 1 1 calc R . . . .
C20 C 0.1441(3) 0.8535(3) 0.8342(3) 0.0470(9) Uani 1 1 d . U . . .
H20 H 0.073543 0.807407 0.787322 0.056 Uiso 1 1 calc R . . . .
C21 C 0.2603(3) 1.2221(3) 0.9806(3) 0.0451(8) Uani 1 1 d . U . . .
H21 H 0.261114 1.187291 1.028530 0.054 Uiso 1 1 calc R . . . .
N3 N -0.2929(3) 0.5145(3) 0.5900(3) 0.0690(10) Uani 1 1 d . . . . .
C22 C 0.2058(3) 0.9690(3) 0.8436(3) 0.0465(9) Uani 1 1 d . U . . .
H22 H 0.175825 0.999904 0.804208 0.056 Uiso 1 1 calc R . . . .
C23 C 0.0714(3) 0.2663(4) 0.5114(3) 0.0572(10) Uani 1 1 d . U . . .
C24 C -0.2224(3) 0.5129(3) 0.6613(3) 0.0522(9) Uani 1 1 d . U . . .
C25 C 0.2531(3) 0.2736(4) 0.5724(3) 0.0541(10) Uani 1 1 d . U . . .
N5 N 0.0971(4) -0.0109(4) 0.1905(4) 0.0994(16) Uani 1 1 d . . . . .
C26 C 0.3180(4) 0.2122(4) 0.5597(3) 0.0645(12) Uani 1 1 d . U . . .
C27 C -0.2011(4) 0.5823(4) 0.7617(3) 0.0740(13) Uani 1 1 d . U . . .
H27A H -0.151852 0.570354 0.807047 0.111 Uiso 1 1 calc GR . . . .
H27B H -0.272518 0.559599 0.776645 0.111 Uiso 1 1 calc GR . . . .
H27C H -0.165167 0.661420 0.765963 0.111 Uiso 1 1 calc GR . . . .
C28 C 0.4317(3) 0.2677(4) 0.6020(3) 0.0614(11) Uani 1 1 d . U . . .
H28 H 0.468073 0.343621 0.639564 0.074 Uiso 1 1 calc R . . . .
C29 C 0.4957(4) 0.2152(4) 0.5913(3) 0.0676(12) Uani 1 1 d . U . . .
H29 H 0.574290 0.256717 0.621023 0.081 Uiso 1 1 calc R . . . .
C30 C 0.0714(4) -0.0070(5) 0.2661(5) 0.0956(18) Uani 1 1 d . U . . .
C31 C 0.4470(4) 0.1048(5) 0.5386(4) 0.0866(16) Uani 1 1 d . U . . .
C32 C 0.1085(6) 0.0892(5) 0.1516(5) 0.122(2) Uani 1 1 d . U . . .
H32A H 0.070122 0.123911 0.181773 0.183 Uiso 1 1 calc GR . . . .
H32B H 0.074418 0.060898 0.082562 0.183 Uiso 1 1 calc GR . . . .
H32C H 0.188001 0.144781 0.166430 0.183 Uiso 1 1 calc GR . . . .
C33 C 0.1205(5) -0.0922(5) 0.1344(5) 0.120(2) Uani 1 1 d . U . . .
H33A H 0.094175 -0.158475 0.155758 0.180 Uiso 1 1 calc GR . . . .
H33B H 0.201444 -0.058325 0.143218 0.180 Uiso 1 1 calc GR . . . .
H33C H 0.081533 -0.113742 0.066897 0.180 Uiso 1 1 calc GR . . . .
C34 C -0.3488(5) 0.5827(5) 0.6021(4) 0.1023(19) Uani 1 1 d . U . . .
H34A H -0.294226 0.657943 0.644800 0.153 Uiso 1 1 calc GR . . . .
H34B H -0.410416 0.547685 0.629302 0.153 Uiso 1 1 calc GR . . . .
H34C H -0.378484 0.587096 0.540080 0.153 Uiso 1 1 calc GR . . . .
C35 C -0.3174(5) 0.4443(5) 0.4913(4) 0.0932(17) Uani 1 1 d . U . . .
H35A H -0.248441 0.470558 0.471927 0.140 Uiso 1 1 calc GR . . . .
H35B H -0.373589 0.449878 0.447586 0.140 Uiso 1 1 calc GR . . . .
H35C H -0.346285 0.366329 0.489742 0.140 Uiso 1 1 calc GR . . . .
C36 C 0.0523(6) -0.1096(4) 0.3015(4) 0.120(2) Uani 1 1 d . U . . .
H36A H 0.034222 -0.100164 0.361962 0.179 Uiso 1 1 calc GR . . . .
H36B H 0.120604 -0.114942 0.310507 0.179 Uiso 1 1 calc GR . . . .
H36C H -0.009906 -0.178025 0.254124 0.179 Uiso 1 1 calc GR . . . .
C37 C 0.0052(5) 0.2532(6) 0.4263(4) 0.125(2) Uani 1 1 d . U . . .
H37 H 0.005620 0.212018 0.368209 0.149 Uiso 1 1 calc R . . . .
C38 C 0.5173(4) 0.0508(4) 0.5269(4) 0.0955(18) Uani 1 1 d . U . . .
H38 H 0.594432 0.094317 0.561740 0.115 Uiso 1 1 calc R . . . .
C39 C 0.2640(5) 0.0972(5) 0.5132(5) 0.133(3) Uani 1 1 d . U . . .
H39 H 0.184643 0.055834 0.488529 0.160 Uiso 1 1 calc R . . . .
C40 C 0.3275(5) 0.0412(6) 0.5025(5) 0.144(3) Uani 1 1 d . U . . .
H40 H 0.290587 -0.036834 0.471898 0.173 Uiso 1 1 calc R . . . .
C41 C -0.0640(6) 0.3023(7) 0.4265(4) 0.146(3) Uani 1 1 d . U . . .
H41 H -0.103234 0.302742 0.368678 0.175 Uiso 1 1 calc R . . . .
C42 C -0.0732(5) 0.3499(6) 0.5132(4) 0.112(2) Uani 1 1 d . U . . .
H42 H -0.125174 0.375825 0.513059 0.135 Uiso 1 1 calc R . . . .
loop_
_atom_site_aniso_label
_atom_site_aniso_U_11
_atom_site_aniso_U_22
_atom_site_aniso_U_33
_atom_site_aniso_U_23
_atom_site_aniso_U_13
_atom_site_aniso_U_12
Cd1 0.02788(15) 0.02621(15) 0.02544(16) 0.00983(12) 0.01250(12) 0.01733(12)
Cd2 0.03305(12) 0.03692(13) 0.03006(13) 0.01138(10) 0.01360(9) 0.02323(10)
O1 0.0525(13) 0.0472(13) 0.0478(14) 0.0201(11) 0.0254(11) 0.0394(11)
O5 0.0256(10) 0.0397(12) 0.0340(12) 0.0102(10) 0.0078(9) 0.0117(9)
O2 0.0533(14) 0.0678(16) 0.0412(14) 0.0223(12) 0.0185(11) 0.0487(13)
O3 0.0464(13) 0.0379(12) 0.0496(15) 0.0249(11) 0.0170(11) 0.0146(11)
O4 0.0587(15) 0.0363(12) 0.0470(16) 0.0149(11) 0.0110(12) 0.0204(12)
O7 0.0647(16) 0.0745(17) 0.0435(15) 0.0129(13) 0.0096(12) 0.0547(15)
O6 0.0438(13) 0.0517(14) 0.0544(16) 0.0071(12) 0.0264(12) 0.0216(12)
O8 0.0669(17) 0.0740(18) 0.0508(17) 0.0075(14) 0.0192(13) 0.0484(15)
C1 0.0321(15) 0.0329(15) 0.0317(16) 0.0085(13) 0.0097(12) 0.0217(13)
N2 0.0304(13) 0.0347(14) 0.069(2) 0.0268(14) 0.0253(13) 0.0222(11)
C2 0.0311(15) 0.0302(15) 0.0364(18) 0.0094(13) 0.0112(13) 0.0187(13)
N4 0.068(2) 0.087(2) 0.046(2) -0.0063(17) 0.0080(16) 0.061(2)
N1 0.0658(19) 0.084(2) 0.0311(16) 0.0108(15) 0.0141(14) 0.0607(18)
C3 0.0263(14) 0.0339(15) 0.0456(19) 0.0181(14) 0.0134(13) 0.0184(13)
C4 0.0456(18) 0.057(2) 0.044(2) 0.0297(17) 0.0227(15) 0.0376(16)
C5 0.0352(16) 0.0344(16) 0.045(2) 0.0067(14) 0.0154(14) 0.0184(14)
C6 0.0436(18) 0.053(2) 0.053(2) 0.0275(17) 0.0292(16) 0.0355(16)
C7 0.0286(14) 0.0331(15) 0.049(2) 0.0174(14) 0.0164(13) 0.0197(13)
C8 0.0259(14) 0.0366(16) 0.0380(18) 0.0120(14) 0.0111(12) 0.0174(13)
C9 0.0314(15) 0.0326(15) 0.0372(17) 0.0176(13) 0.0153(13) 0.0174(13)
C10 0.0511(19) 0.064(2) 0.0306(18) 0.0111(16) 0.0138(15) 0.0410(18)
C11 0.0280(14) 0.0335(16) 0.0430(19) 0.0170(14) 0.0136(13) 0.0153(13)
C12 0.0292(15) 0.0298(15) 0.052(2) 0.0230(14) 0.0195(14) 0.0169(12)
C13 0.0330(16) 0.0363(17) 0.050(2) 0.0075(15) 0.0163(14) 0.0201(14)
C14 0.0270(15) 0.0442(18) 0.0376(18) 0.0151(15) 0.0112(13) 0.0203(14)
O9 0.105(3) 0.103(3) 0.083(3) -0.015(2) 0.016(2) 0.069(2)
C15 0.0511(19) 0.060(2) 0.045(2) 0.0262(17) 0.0295(16) 0.0405(17)
C16 0.0325(16) 0.0389(17) 0.056(2) 0.0188(16) 0.0049(15) 0.0172(14)
C17 0.0262(14) 0.0329(15) 0.0428(19) 0.0066(14) 0.0099(13) 0.0131(13)
C18 0.0410(17) 0.0393(17) 0.047(2) 0.0228(15) 0.0078(15) 0.0218(15)
C19 0.0314(15) 0.0273(15) 0.051(2) 0.0094(14) 0.0146(14) 0.0124(13)
C20 0.0407(18) 0.0398(18) 0.052(2) 0.0181(16) -0.0008(15) 0.0165(15)
C21 0.054(2) 0.063(2) 0.053(2) 0.0389(18) 0.0322(17) 0.0426(18)
N3 0.073(2) 0.086(3) 0.076(3) 0.033(2) 0.0189(19) 0.060(2)
C22 0.0434(18) 0.0403(18) 0.059(2) 0.0275(17) 0.0066(16) 0.0208(15)
C23 0.068(2) 0.091(3) 0.034(2) 0.0075(19) 0.0107(17) 0.062(2)
C24 0.049(2) 0.063(2) 0.056(2) 0.0253(19) 0.0152(17) 0.0348(19)
C25 0.062(2) 0.073(3) 0.045(2) 0.015(2) 0.0207(18) 0.048(2)
N5 0.071(3) 0.108(4) 0.089(4) -0.005(3) 0.031(3) 0.032(3)
C26 0.065(3) 0.079(3) 0.057(3) -0.001(2) 0.009(2) 0.053(2)
C27 0.096(3) 0.089(3) 0.061(3) 0.014(2) 0.021(2) 0.070(3)
C28 0.056(2) 0.072(3) 0.066(3) 0.016(2) 0.019(2) 0.042(2)
C29 0.059(2) 0.085(3) 0.072(3) 0.020(2) 0.019(2) 0.048(2)
C30 0.062(3) 0.102(4) 0.084(4) -0.008(3) 0.004(3) 0.030(3)
C31 0.075(3) 0.110(4) 0.079(3) -0.010(3) -0.004(2) 0.073(3)
C32 0.140(5) 0.103(4) 0.125(6) 0.060(4) 0.053(4) 0.047(4)
C33 0.120(5) 0.118(5) 0.128(5) -0.004(4) 0.056(4) 0.075(4)
C34 0.122(4) 0.139(5) 0.111(5) 0.055(4) 0.033(3) 0.111(4)
C35 0.112(4) 0.126(4) 0.055(3) 0.024(3) 0.007(3) 0.077(4)
C36 0.161(6) 0.065(3) 0.098(5) 0.026(3) 0.011(4) 0.037(4)
C37 0.149(5) 0.213(6) 0.058(3) -0.006(3) 0.010(3) 0.154(5)
C38 0.092(3) 0.122(4) 0.083(4) -0.009(3) -0.001(3) 0.087(3)
C39 0.095(4) 0.127(5) 0.160(6) -0.027(4) -0.015(4) 0.088(4)
C40 0.107(4) 0.128(5) 0.174(6) -0.042(4) -0.017(4) 0.093(4)
C41 0.180(5) 0.255(7) 0.064(4) -0.004(4) 0.004(3) 0.189(5)
C42 0.134(4) 0.186(5) 0.065(3) 0.000(3) 0.007(3) 0.141(4)
loop_
_atom_type_symbol
_atom_type_description
_atom_type_scat_dispersion_real
_atom_type_scat_dispersion_imag
_atom_type_scat_source
C C 0.0033 0.0016 'International Tables Vol C Tables 4.2.6.8 and 6.1.1.4'
H H 0.0000 0.0000 'International Tables Vol C Tables 4.2.6.8 and 6.1.1.4'
Cd Cd -0.8075 1.2024 'International Tables Vol C Tables 4.2.6.8 and 6.1.1.4'
N N 0.0061 0.0033 'International Tables Vol C Tables 4.2.6.8 and 6.1.1.4'
O O 0.0106 0.0060 'International Tables Vol C Tables 4.2.6.8 and 6.1.1.4'
loop_
_geom_angle_atom_site_label_1
_geom_angle_atom_site_label_2
_geom_angle_atom_site_label_3
_geom_angle
_geom_angle_site_symmetry_1
_geom_angle_site_symmetry_3
_geom_angle_publ_flag
O1 Cd1 O1 180.0 2_587 . ?
O1 Cd1 O5 87.51(8) . 2_687 ?
O1 Cd1 O5 92.49(8) . 1_455 ?
O1 Cd1 O5 92.49(8) 2_587 2_687 ?
O1 Cd1 O5 87.51(8) 2_587 1_455 ?
O1 Cd1 O3 86.06(8) . 2_577 ?
O1 Cd1 O3 93.94(8) . 1_565 ?
O1 Cd1 O3 86.06(8) 2_587 1_565 ?
O1 Cd1 O3 93.94(8) 2_587 2_577 ?
O5 Cd1 O5 180.0 2_687 1_455 ?
O5 Cd1 O3 91.29(8) 2_687 2_577 ?
O5 Cd1 O3 91.29(8) 1_455 1_565 ?
O5 Cd1 O3 88.71(8) 2_687 1_565 ?
O5 Cd1 O3 88.71(8) 1_455 2_577 ?
O3 Cd1 O3 180.0 2_577 1_565 ?
O5 Cd2 O2 97.86(8) 1_445 1_545 ?
O5 Cd2 O7 86.51(8) 1_445 . ?
O5 Cd2 O6 54.13(7) 1_445 1_445 ?
O5 Cd2 N1 149.12(10) 1_445 . ?
O2 Cd2 O7 174.60(8) 1_545 . ?
O2 Cd2 O6 100.04(9) 1_545 1_445 ?
O2 Cd2 N1 88.47(9) 1_545 . ?
O4 Cd2 O5 97.54(9) . 1_445 ?
O4 Cd2 O2 97.01(9) . 1_545 ?
O4 Cd2 O7 85.51(9) . . ?
O4 Cd2 O6 148.55(8) . 1_445 ?
O4 Cd2 N1 111.71(11) . . ?
O7 Cd2 O6 79.90(9) . 1_445 ?
N1 Cd2 O7 86.16(9) . . ?
N1 Cd2 O6 95.03(10) . 1_445 ?
C2 O1 Cd1 131.7(2) . . ?
Cd2 O5 Cd1 106.08(7) 1_665 1_655 ?
C14 O5 Cd1 135.01(19) . 1_655 ?
C14 O5 Cd2 97.80(18) . 1_665 ?
C2 O2 Cd2 133.4(2) . 1_565 ?
C11 O3 Cd1 139.7(2) . 1_545 ?
C11 O4 Cd2 124.5(2) . . ?
C24 O7 Cd2 134.6(2) . . ?
C14 O6 Cd2 85.83(19) . 1_665 ?
C4 C1 C2 120.7(3) . . ?
C4 C1 C15 118.4(3) . . ?
C15 C1 C2 120.8(3) . . ?
C3 N2 C7 119.3(2) . . ?
C3 N2 C12 118.7(2) . . ?
C7 N2 C12 116.9(2) . . ?
O1 C2 O2 126.3(3) . . ?
O1 C2 C1 116.6(3) . . ?
O2 C2 C1 117.0(3) . . ?
C23 N4 H4 117.9 . . ?
C25 N4 H4 117.9 . . ?
C25 N4 C23 124.1(3) . . ?
C10 N1 Cd2 121.3(2) . . ?
C10 N1 C42 116.9(3) . . ?
C42 N1 Cd2 121.7(3) . . ?
C13 C3 N2 119.2(3) . . ?
C19 C3 N2 121.6(3) . . ?
C19 C3 C13 119.1(3) . . ?
C1 C4 H4A 119.4 . . ?
C1 C4 C6 121.2(3) . . ?
C6 C4 H4A 119.4 . . ?
C8 C5 H5 119.6 . . ?
C8 C5 C19 120.8(3) . . ?
C19 C5 H5 119.6 . . ?
C4 C6 H6 120.0 . . ?
C7 C6 C4 120.1(3) . . ?
C7 C6 H6 120.0 . . ?
C6 C7 N2 121.7(3) . . ?
C6 C7 C21 119.1(3) . . ?
C21 C7 N2 119.2(3) . . ?
C5 C8 C14 120.9(3) . . ?
C17 C8 C5 118.7(3) . . ?
C17 C8 C14 120.4(3) . . ?
C18 C9 C11 122.1(3) . . ?
C18 C9 C20 118.8(3) . . ?
C20 C9 C11 119.1(3) . . ?
N1 C10 H10 117.9 . . ?
N1 C10 C23 124.3(3) . . ?
C23 C10 H10 117.9 . . ?
O3 C11 O4 126.7(3) . . ?
O3 C11 C9 118.4(3) . . ?
O4 C11 C9 114.9(3) . . ?
C16 C12 N2 120.2(3) . . ?
C22 C12 N2 120.7(3) . . ?
C22 C12 C16 119.1(3) . . ?
C3 C13 H13 119.8 . . ?
C17 C13 C3 120.4(3) . . ?
C17 C13 H13 119.8 . . ?
O5 C14 Cd2 54.50(15) . 1_665 ?
O5 C14 C8 117.2(3) . . ?
O6 C14 Cd2 67.54(17) . 1_665 ?
O6 C14 O5 121.4(3) . . ?
O6 C14 C8 121.3(3) . . ?
C8 C14 Cd2 165.5(2) . 1_665 ?
C1 C15 H15 119.8 . . ?
C21 C15 C1 120.4(3) . . ?
C21 C15 H15 119.8 . . ?
C12 C16 H16 119.6 . . ?
C12 C16 C18 120.8(3) . . ?
C18 C16 H16 119.6 . . ?
C8 C17 H17 119.6 . . ?
C13 C17 C8 120.9(3) . . ?
C13 C17 H17 119.6 . . ?
C9 C18 C16 120.4(3) . . ?
C9 C18 H18 119.8 . . ?
C16 C18 H18 119.8 . . ?
C3 C19 C5 120.2(3) . . ?
C3 C19 H19 119.9 . . ?
C5 C19 H19 119.9 . . ?
C9 C20 H20 119.4 . . ?
C9 C20 C22 121.2(3) . . ?
C22 C20 H20 119.4 . . ?
C7 C21 C15 120.8(3) . . ?
C7 C21 H21 119.6 . . ?
C15 C21 H21 119.6 . . ?
C24 N3 C34 124.4(4) . . ?
C24 N3 C35 118.5(3) . . ?
C34 N3 C35 117.1(4) . . ?
C12 C22 C20 119.7(3) . . ?
C12 C22 H22 120.1 . . ?
C20 C22 H22 120.1 . . ?
C10 C23 N4 124.0(3) . . ?
C37 C23 N4 117.9(4) . . ?
C37 C23 C10 118.1(3) . . ?
O7 C24 N3 120.6(4) . . ?
O7 C24 C27 121.6(3) . . ?
N3 C24 C27 117.8(3) . . ?
O8 C25 N4 122.6(3) . . ?
O8 C25 C26 121.1(4) . . ?
N4 C25 C26 116.2(3) . . ?
C30 N5 C32 113.6(5) . . ?
C30 N5 C33 129.6(6) . . ?
C33 N5 C32 116.7(5) . . ?
C28 C26 C25 119.7(4) . . ?
C28 C26 C39 118.1(4) . . ?
C39 C26 C25 122.0(4) . . ?
C24 C27 H27A 109.5 . . ?
C24 C27 H27B 109.5 . . ?
C24 C27 H27C 109.5 . . ?
H27A C27 H27B 109.5 . . ?
H27A C27 H27C 109.5 . . ?
H27B C27 H27C 109.5 . . ?
C26 C28 H28 119.0 . . ?
C26 C28 C29 121.9(4) . . ?
C29 C28 H28 119.0 . . ?
C28 C29 H29 119.3 . . ?
C31 C29 C28 121.4(4) . . ?
C31 C29 H29 119.3 . . ?
O9 C30 C36 122.4(6) . . ?
N5 C30 O9 123.6(7) . . ?
N5 C30 C36 113.9(6) . . ?
C29 C31 C38 120.5(4) . . ?
C29 C31 C40 118.1(4) . . ?
C40 C31 C38 121.1(5) . . ?
N5 C32 H32A 109.5 . . ?
N5 C32 H32B 109.5 . . ?
N5 C32 H32C 109.5 . . ?
H32A C32 H32B 109.5 . . ?
H32A C32 H32C 109.5 . . ?
H32B C32 H32C 109.5 . . ?
N5 C33 H33A 109.5 . . ?
N5 C33 H33B 109.5 . . ?
N5 C33 H33C 109.5 . . ?
H33A C33 H33B 109.5 . . ?
H33A C33 H33C 109.5 . . ?
H33B C33 H33C 109.5 . . ?
N3 C34 H34A 109.5 . . ?
N3 C34 H34B 109.5 . . ?
N3 C34 H34C 109.5 . . ?
H34A C34 H34B 109.5 . . ?
H34A C34 H34C 109.5 . . ?
H34B C34 H34C 109.5 . . ?
N3 C35 H35A 109.5 . . ?
N3 C35 H35B 109.5 . . ?
N3 C35 H35C 109.5 . . ?
H35A C35 H35B 109.5 . . ?
H35A C35 H35C 109.5 . . ?
H35B C35 H35C 109.5 . . ?
C30 C36 H36A 109.5 . . ?
C30 C36 H36B 109.5 . . ?
C30 C36 H36C 109.5 . . ?
H36A C36 H36B 109.5 . . ?
H36A C36 H36C 109.5 . . ?
H36B C36 H36C 109.5 . . ?
C23 C37 H37 120.5 . . ?
C23 C37 C41 118.9(5) . . ?
C41 C37 H37 120.5 . . ?
C31 C38 H38 116.8 . . ?
C38 C38 C31 126.5(6) 2_656 . ?
C38 C38 H38 116.8 2_656 . ?
C26 C39 H39 119.6 . . ?
C26 C39 C40 120.7(5) . . ?
C40 C39 H39 119.6 . . ?
C31 C40 C39 119.1(5) . . ?
C31 C40 H40 120.5 . . ?
C39 C40 H40 120.5 . . ?
C37 C41 H41 120.6 . . ?
C42 C41 C37 118.8(5) . . ?
C42 C41 H41 120.6 . . ?
N1 C42 C41 122.4(4) . . ?
N1 C42 H42 118.8 . . ?
C41 C42 H42 118.8 . . ?
loop_
_geom_bond_atom_site_label_1
_geom_bond_atom_site_label_2
_geom_bond_distance
_geom_bond_site_symmetry_2
_geom_bond_publ_flag
Cd1 O1 2.2120(19) 2_587 ?
Cd1 O1 2.2120(19) . ?
Cd1 O5 2.302(2) 1_455 ?
Cd1 O5 2.302(2) 2_687 ?
Cd1 O3 2.309(2) 2_577 ?
Cd1 O3 2.309(2) 1_565 ?
Cd2 O5 2.251(2) 1_445 ?
Cd2 O2 2.252(2) 1_545 ?
Cd2 O4 2.191(2) . ?
Cd2 O7 2.390(2) . ?
Cd2 O6 2.538(2) 1_445 ?
Cd2 N1 2.267(3) . ?
O1 C2 1.245(4) . ?
O5 Cd1 2.302(2) 1_655 ?
O5 Cd2 2.251(2) 1_665 ?
O5 C14 1.285(4) . ?
O2 Cd2 2.252(2) 1_565 ?
O2 C2 1.255(4) . ?
O3 Cd1 2.309(2) 1_545 ?
O3 C11 1.232(4) . ?
O4 C11 1.265(4) . ?
O7 C24 1.244(4) . ?
O6 Cd2 2.538(2) 1_665 ?
O6 C14 1.231(4) . ?
O8 C25 1.207(4) . ?
C1 C2 1.499(4) . ?
C1 C4 1.381(4) . ?
C1 C15 1.382(4) . ?
N2 C3 1.411(4) . ?
N2 C7 1.422(3) . ?
N2 C12 1.424(4) . ?
N4 H4 0.8600 . ?
N4 C23 1.399(4) . ?
N4 C25 1.375(5) . ?
N1 C10 1.328(4) . ?
N1 C42 1.330(6) . ?
C3 C13 1.385(4) . ?
C3 C19 1.379(4) . ?
C4 H4A 0.9300 . ?
C4 C6 1.381(4) . ?
C5 H5 0.9300 . ?
C5 C8 1.383(4) . ?
C5 C19 1.386(4) . ?
C6 H6 0.9300 . ?
C6 C7 1.376(4) . ?
C7 C21 1.378(4) . ?
C8 C14 1.487(4) . ?
C8 C17 1.380(4) . ?
C9 C11 1.495(4) . ?
C9 C18 1.371(4) . ?
C9 C20 1.375(4) . ?
C10 H10 0.9300 . ?
C10 C23 1.373(5) . ?
C12 C16 1.381(4) . ?
C12 C22 1.373(4) . ?
C13 H13 0.9300 . ?
C13 C17 1.377(4) . ?
C14 Cd2 2.739(3) 1_665 ?
O9 C30 1.254(6) . ?
C15 H15 0.9300 . ?
C15 C21 1.378(4) . ?
C16 H16 0.9300 . ?
C16 C18 1.385(4) . ?
C17 H17 0.9300 . ?
C18 H18 0.9300 . ?
C19 H19 0.9300 . ?
C20 H20 0.9300 . ?
C20 C22 1.393(4) . ?
C21 H21 0.9300 . ?
N3 C24 1.313(5) . ?
N3 C34 1.462(5) . ?
N3 C35 1.466(6) . ?
C22 H22 0.9300 . ?
C23 C37 1.344(6) . ?
C24 C27 1.492(6) . ?
C25 C26 1.488(5) . ?
N5 C30 1.216(7) . ?
N5 C32 1.554(7) . ?
N5 C33 1.447(6) . ?
C26 C28 1.346(5) . ?
C26 C39 1.374(7) . ?
C27 H27A 0.9600 . ?
C27 H27B 0.9600 . ?
C27 H27C 0.9600 . ?
C28 H28 0.9300 . ?
C28 C29 1.377(5) . ?
C29 H29 0.9300 . ?
C29 C31 1.350(6) . ?
C30 C36 1.535(8) . ?
C31 C38 1.472(5) . ?
C31 C40 1.399(7) . ?
C32 H32A 0.9600 . ?
C32 H32B 0.9600 . ?
C32 H32C 0.9600 . ?
C33 H33A 0.9600 . ?
C33 H33B 0.9600 . ?
C33 H33C 0.9600 . ?
C34 H34A 0.9600 . ?
C34 H34B 0.9600 . ?
C34 H34C 0.9600 . ?
C35 H35A 0.9600 . ?
C35 H35B 0.9600 . ?
C35 H35C 0.9600 . ?
C36 H36A 0.9600 . ?
C36 H36B 0.9600 . ?
C36 H36C 0.9600 . ?
C37 H37 0.9300 . ?
C37 C41 1.393(6) . ?
C38 C38 1.288(9) 2_656 ?
C38 H38 0.9300 . ?
C39 H39 0.9300 . ?
C39 C40 1.409(6) . ?
C40 H40 0.9300 . ?
C41 H41 0.9300 . ?
C41 C42 1.366(7) . ?
C42 H42 0.9300 . ?
loop_
_platon_squeeze_void_nr
_platon_squeeze_void_average_x
_platon_squeeze_void_average_y
_platon_squeeze_void_average_z
_platon_squeeze_void_volume
_platon_squeeze_void_count_electrons
_platon_squeeze_void_content
1 0.153 0.069 0.667 7 0 ' '
2 0.500 0.500 1.000 447 98 ' '
3 0.847 0.930 0.333 7 0 ' '
