#------------------------------------------------------------------------------
#$Date: 2020-09-09 04:23:33 +0300 (Wed, 09 Sep 2020) $
#$Revision: 256238 $
#$URL: file:///home/coder/svn-repositories/cod/cif/7/24/11/7241193.cif $
#------------------------------------------------------------------------------
#
# This file is available in the Crystallography Open Database (COD),
# http://www.crystallography.net/
#
# All data on this site have been placed in the public domain by the
# contributors.
#
data_7241193
loop_
_publ_author_name
'Guo, Ruihong'
'Gao, Lingling'
'Liang, Jinxia'
'Zhang, Zhikai'
'Zhang, Jie'
'Niu, Xiao-Yan'
'Hu, Tuoping'
_publ_section_title
;
 Two tetranuclear Cd-based metal-organic frameworks for sensitive sensing
 of TNP/Fe3+ in aqueous medium and gas adsorption
;
_journal_name_full               CrystEngComm
_journal_paper_doi               10.1039/D0CE01193B
_journal_year                    2020
_chemical_formula_moiety         'C35 H22 Cd2 N4 O11'
_chemical_formula_sum            'C35 H22 Cd2 N4 O11'
_chemical_formula_weight         899.39
_space_group_crystal_system      monoclinic
_space_group_IT_number           14
_space_group_name_Hall           '-P 2ybc'
_space_group_name_H-M_alt        'P 1 21/c 1'
_atom_sites_solution_hydrogens   mixed
_audit_creation_date             2017-09-07
_audit_creation_method
;
Olex2 1.2-beta
(compiled 2016.09.09 svn.r3337 for OlexSys, GUI svn.r5227)
;
_audit_update_record
;
2019-09-30 deposited with the CCDC.	2020-09-02 downloaded from the CCDC.
;
_cell_angle_alpha                90
_cell_angle_beta                 102.3140(10)
_cell_angle_gamma                90
_cell_formula_units_Z            4
_cell_length_a                   11.6552(4)
_cell_length_b                   14.9367(7)
_cell_length_c                   19.7696(8)
_cell_measurement_reflns_used    9907
_cell_measurement_temperature    150.15
_cell_measurement_theta_max      26.39
_cell_measurement_theta_min      2.46
_cell_volume                     3362.5(2)
_computing_cell_refinement       'SAINT v8.37A (Bruker, 2015)'
_computing_data_reduction        'SAINT v8.37A (Bruker, 2015)'
_computing_molecular_graphics    'Olex2 (Dolomanov et al., 2009)'
_computing_publication_material  'Olex2 (Dolomanov et al., 2009)'
_computing_structure_refinement  'ShelXL (Sheldrick, 2015)'
_computing_structure_solution    'SHELXT 2014/5 (Sheldrick, 2014)'
_diffrn_ambient_temperature      150.15
_diffrn_measured_fraction_theta_full 0.996
_diffrn_measured_fraction_theta_max 0.994
_diffrn_measurement_device_type  'Bruker APEX-II CCD'
_diffrn_measurement_method       '\f and \w scans'
_diffrn_radiation_type           MoK\a
_diffrn_radiation_wavelength     0.71073
_diffrn_reflns_av_R_equivalents  0.0476
_diffrn_reflns_av_unetI/netI     0.0306
_diffrn_reflns_Laue_measured_fraction_full 0.996
_diffrn_reflns_Laue_measured_fraction_max 0.994
_diffrn_reflns_limit_h_max       14
_diffrn_reflns_limit_h_min       -12
_diffrn_reflns_limit_k_max       18
_diffrn_reflns_limit_k_min       -18
_diffrn_reflns_limit_l_max       24
_diffrn_reflns_limit_l_min       -24
_diffrn_reflns_number            57123
_diffrn_reflns_point_group_measured_fraction_full 0.996
_diffrn_reflns_point_group_measured_fraction_max 0.994
_diffrn_reflns_theta_full        25.242
_diffrn_reflns_theta_max         26.428
_diffrn_reflns_theta_min         2.249
_diffrn_standards_number         0
_exptl_absorpt_coefficient_mu    1.334
_exptl_absorpt_correction_T_max  0.7454
_exptl_absorpt_correction_T_min  0.6412
_exptl_absorpt_correction_type   multi-scan
_exptl_absorpt_process_details
;
SADABS-2016/2 (Bruker,2016/2) was used for absorption correction.
wR2(int) was 0.0775 before and 0.0555 after correction.
The Ratio of minimum to maximum transmission is 0.8602.
The \l/2 correction factor is Not present.
;
_exptl_crystal_colour            colourless
_exptl_crystal_colour_primary    colourless
_exptl_crystal_density_diffrn    1.777
_exptl_crystal_description       plate
_exptl_crystal_F_000             1776
_exptl_crystal_size_max          0.3
_exptl_crystal_size_mid          0.3
_exptl_crystal_size_min          0.1
_refine_diff_density_max         1.327
_refine_diff_density_min         -0.808
_refine_diff_density_rms         0.124
_refine_ls_extinction_method     none
_refine_ls_goodness_of_fit_ref   1.147
_refine_ls_hydrogen_treatment    constr
_refine_ls_matrix_type           full
_refine_ls_number_parameters     507
_refine_ls_number_reflns         6882
_refine_ls_number_restraints     132
_refine_ls_restrained_S_all      1.145
_refine_ls_R_factor_all          0.0536
_refine_ls_R_factor_gt           0.0430
_refine_ls_shift/su_max          0.001
_refine_ls_shift/su_mean         0.000
_refine_ls_structure_factor_coef Fsqd
_refine_ls_weighting_details
'w=1/[\s^2^(Fo^2^)+23.3434P] where P=(Fo^2^+2Fc^2^)/3'
_refine_ls_weighting_scheme      calc
_refine_ls_wR_factor_gt          0.0834
_refine_ls_wR_factor_ref         0.0865
_reflns_Friedel_coverage         0.000
_reflns_number_gt                5932
_reflns_number_total             6882
_reflns_threshold_expression     'I > 2\s(I)'
_cod_data_source_file            d0ce01193b2.cif
_cod_data_source_block           mo_0905_8_0m_sq
_cod_database_code               7241193
_shelx_space_group_comment
;
The symmetry employed for this shelxl refinement is uniquely defined
by the following loop, which should always be used as a source of
symmetry information in preference to the above space-group names.
They are only intended as comments.
;
_shelx_estimated_absorpt_t_max   0.878
_shelx_estimated_absorpt_t_min   0.690
_olex2_refinement_description
;
1. Fixed Uiso
 At 1.2 times of:
  All C(H) groups
 At 1.5 times of:
  All O(H) groups, All O(H,H) groups
2. Uiso/Uaniso restraints and constraints
Uanis(C25) \\sim Ueq, Uanis(C28) \\sim Ueq, Uanis(C29) \\sim Ueq, Uanis(C30)
\\sim Ueq, Uanis(C26A) \\sim Ueq, Uanis(C27A) \\sim Ueq, Uanis(C30A) \\sim Ueq,
Uanis(C29A) \\sim Ueq: with sigma of 0.01 and sigma for terminal atoms of 0.02
Uanis(C26) \\sim Ueq, Uanis(C27) \\sim Ueq: with sigma of 0.001 and sigma for
terminal atoms of 0.002
3. Rigid body (RIGU) restrains
 C25, C26, C26A, C27, C27A, C28, C29, C29A, C30, C30A
 with sigma for 1-2 distances of 0.004 and sigma for 1-3 distances of 0.004
4. Others
 Sof(C26A)=Sof(H26A)=Sof(C27A)=Sof(H27A)=Sof(C29A)=Sof(H29A)=Sof(C30A)=
 Sof(H30A)=1-FVAR(1)
 Sof(C26)=Sof(H26)=Sof(C27)=Sof(H27)=Sof(C29)=Sof(H29)=Sof(C30)=Sof(H30)=FVAR(1)
5.a Riding coordinates:
 O11(H11A,H11B)
5.b Aromatic/amide H refined with riding coordinates:
 C7(H7), C8(H8A), C11(H11), C12(H12), C17(H17), C18(H18), C21(H21), C22(H22),
 C23(H23), C24(H24), C26(H26), C26A(H26A), C27(H27), C27A(H27A), C29(H29),
 C29A(H29A), C30(H30), C30A(H30A), C31(H31), C32(H32), C33(H33), C34(H34),
 C35(H35)
5.c Idealised tetrahedral OH refined as rotating group:
 O8(H8)
;
_shelx_res_file
;
TITL mo_0905_8_0m_a.res in P2(1)/c
    mo_0905_8_0m_sq.res
    created by SHELXL-2016/6 at 14:44:34 on 07-Sep-2017
CELL 0.71073 11.6552 14.9367 19.7696 90 102.314 90
ZERR 4 0.0004 0.0007 0.0008 0 0.001 0
LATT 1
SYMM -X,0.5+Y,0.5-Z
SFAC  C 2.310 20.844 1.02 10.208 1.589 0.569 0.865 51.651 0.216 0.003 0.002 =
 11.5 0.68 12.01
SFAC  H 0.493 10.511 0.323 26.126 0.14 3.142 0.041 57.8 0.003 0 0 0.624 0.35 =
 1.008
SFAC  Cd 19.221 0.595 17.644 6.909 4.461 24.701 1.603 87.483 5.069 -0.808 =
 1.202 5180 1.69 112.41
SFAC  N 12.213 0.006 3.132 9.893 2.013 28.998 1.166 0.583 -11.529 0.006 =
 0.003 19.6 0.68 14.01
SFAC  O 3.049 13.277 2.287 5.701 1.546 0.324 0.867 32.909 0.251 0.011 0.006 =
 32.5 0.68 16
UNIT 140 88 8 16 44

RIGU C25 C26 C26A C27 C27A C28 C29 C29A C30 C30A
ISOR 0.01 0.02 C25 C28 C29 C30 C26A C27A C30A C29A
ISOR 0.001 0.002 C26 C27

L.S. 5 0 20
PLAN  -20
SIZE 0.1 0.3 0.3
TEMP -123
BOND $H
CONF
ABIN
fmap 2
acta
OMIT 1 7 2
OMIT 3 12 6
OMIT -2 13 1
OMIT -3 6 2
OMIT -2 3 4
OMIT -2 12 8
OMIT 3 7 2
OMIT 1 1 6
OMIT 2 8 9
OMIT 2 11 8
OMIT 1 4 1
OMIT -4 1 6
OMIT -2 12 10
OMIT 4 12 4
OMIT 2 3 0
OMIT 0 14 1
OMIT -2 1 10
OMIT 0 5 6
OMIT 1 4 4
OMIT -3 1 10
OMIT -4 10 5
OMIT 1 14 1
OMIT 2 4 3
REM <olex2.extras>
REM <HklSrc "%.\\mo_0905_8_0m_sq.hkl">
REM </olex2.extras>

WGHT    0.000000   23.343401
FVAR       0.27658   0.64187
CD1   3    1.047972    0.561608    0.930160    11.00000    0.01212    0.01316 =
         0.01058   -0.00012    0.00410   -0.00282
CD2   3    1.084920    0.857875    0.979368    11.00000    0.01260    0.01522 =
         0.01866    0.00023   -0.00273   -0.00118
O1    5    1.033101    0.573736    1.046789    11.00000    0.01560    0.00935 =
         0.01462   -0.00058    0.00675   -0.00379
O2    5    1.030854    0.703798    0.993889    11.00000    0.01603    0.01332 =
         0.01159   -0.00004    0.00198   -0.00398
O3    5    0.973212    0.933176    1.044539    11.00000    0.01704    0.01732 =
         0.02818   -0.00438    0.00520   -0.00196
O4    5    0.814246    1.016272    1.042962    11.00000    0.02051    0.01196 =
         0.04304    0.00199    0.00417    0.00110
O5    5    1.070168    0.842641    1.347147    11.00000    0.03946    0.03065 =
         0.01573   -0.01004    0.01174   -0.01101
O6    5    0.944904    0.936821    1.283375    11.00000    0.03336    0.02523 =
         0.04089   -0.01309    0.02598   -0.00544
O7    5    0.837016    0.597376    0.917923    11.00000    0.01212    0.02647 =
         0.02388    0.00043    0.00205   -0.00376
O8    5    0.753899    0.523156    0.822026    11.00000    0.02080    0.12631 =
         0.02573   -0.02577    0.00987   -0.02637
AFIX 147
H8    2    0.818621    0.533353    0.811289    11.00000   -1.50000
AFIX   0
O9    5    0.209591    0.491177    0.899398    11.00000    0.01100    0.01601 =
         0.03262    0.00087    0.00480   -0.00228
O10   5    0.251349    0.601260    0.975638    11.00000    0.01473    0.03205 =
         0.02923   -0.00373    0.00730   -0.00021
O11   5    1.225354    0.784564    0.925347    11.00000    0.03658    0.04164 =
         0.03523   -0.00236    0.00979    0.00952
AFIX   3
H11A  2    1.263794    0.740304    0.950747    11.00000   -1.50000
H11B  2    1.195024    0.754994    0.888677    11.00000   -1.50000
AFIX   0
N1    4    0.959921    0.859684    0.876009    11.00000    0.01963    0.01952 =
         0.01679    0.00492   -0.00041   -0.00352
N2    4    0.808004    0.829152    0.791921    11.00000    0.01601    0.02832 =
         0.01844    0.00254   -0.00333   -0.00605
N3    4    0.220982    0.647907    0.579076    11.00000    0.01409    0.02199 =
         0.02561    0.00164   -0.00559   -0.00409
N4    4    0.383538    0.672469    0.656149    11.00000    0.02537    0.03944 =
         0.03810    0.00774   -0.01552   -0.01293
C1    1    1.025477    0.658820    1.047081    11.00000    0.00718    0.01278 =
         0.01151   -0.00139   -0.00090   -0.00247
C2    1    0.863651    0.942470    1.037677    11.00000    0.01886    0.01615 =
         0.02292    0.00592    0.00026   -0.00234
C3    1    0.787788    0.861475    1.020130    11.00000    0.01475    0.01709 =
         0.03481    0.00283    0.00413   -0.00557
C4    1    0.825644    0.777936    1.048169    11.00000    0.01142    0.01838 =
         0.01673   -0.00027    0.00555   -0.00107
C5    1    0.925292    0.770288    1.109294    11.00000    0.01407    0.01552 =
         0.01500   -0.00023    0.00483   -0.00599
C6    1    1.014539    0.707604    1.111593    11.00000    0.01264    0.01613 =
         0.01080    0.00075    0.00133   -0.00732
C7    1    1.099828    0.694922    1.171926    11.00000    0.01823    0.01792 =
         0.01501   -0.00195   -0.00054    0.00527
AFIX  43
H7    2    1.158937    0.650748    1.173349    11.00000   -1.20000
AFIX   0
C8    1    1.098396    0.746472    1.229512    11.00000    0.02498    0.02494 =
         0.01073   -0.00457    0.00104   -0.00386
AFIX  43
H8A   2    1.156142    0.737393    1.270770    11.00000   -1.20000
AFIX   0
C9    1    1.012478    0.811907    1.227425    11.00000    0.02049    0.01980 =
         0.01506   -0.00655    0.01035   -0.00656
C10   1    1.008834    0.868037    1.290262    11.00000    0.02993    0.02494 =
         0.02089   -0.00984    0.01659   -0.01388
C11   1    0.926358    0.822950    1.167531    11.00000    0.01838    0.00864 =
         0.02156   -0.00181    0.00998    0.00090
AFIX  43
H11   2    0.867289    0.867111    1.166291    11.00000   -1.20000
AFIX   0
C12   1    0.763051    0.701687    1.022325    11.00000    0.01145    0.02008 =
         0.01781    0.00186    0.00633    0.00056
AFIX  43
H12   2    0.789861    0.644802    1.040646    11.00000   -1.20000
AFIX   0
C13   1    0.661961    0.706765    0.970201    11.00000    0.01477    0.02072 =
         0.02861    0.00725   -0.00070   -0.00740
C14   1    0.592807    0.626353    0.940720    11.00000    0.01535    0.02228 =
         0.01940    0.00469   -0.00085   -0.00597
C15   1    0.632305    0.560613    0.899068    11.00000    0.01144    0.03522 =
         0.02234    0.00105    0.00110   -0.00728
C16   1    0.751181    0.563580    0.881407    11.00000    0.01513    0.04255 =
         0.01940    0.00242    0.00248   -0.01146
C17   1    0.556943    0.491297    0.870103    11.00000    0.01750    0.03155 =
         0.03391   -0.00700    0.00435   -0.00342
AFIX  43
H17   2    0.583471    0.447371    0.842226    11.00000   -1.20000
AFIX   0
C18   1    0.443694    0.486055    0.881698    11.00000    0.01443    0.02293 =
         0.03394   -0.01130    0.00364   -0.00787
AFIX  43
H18   2    0.393313    0.438614    0.861860    11.00000   -1.20000
AFIX   0
C19   1    0.404193    0.549797    0.922079    11.00000    0.01287    0.01993 =
         0.01922    0.00421    0.00188   -0.00040
C20   1    0.280421    0.547120    0.933825    11.00000    0.01185    0.02009 =
         0.02194    0.00532    0.00509    0.00006
C21   1    0.478687    0.619227    0.950637    11.00000    0.01383    0.01609 =
         0.02627    0.00237    0.00000   -0.00201
AFIX  43
H21   2    0.450536    0.663187    0.977808    11.00000   -1.20000
AFIX   0
C22   1    0.618967    0.791985    0.949096    11.00000    0.02183    0.02766 =
         0.07489    0.02405   -0.02563   -0.00746
AFIX  43
H22   2    0.544767    0.797639    0.918219    11.00000   -1.20000
AFIX   0
C23   1    0.682139    0.867499    0.972234    11.00000    0.02412    0.01976 =
         0.08052    0.02170   -0.01933   -0.00685
AFIX  43
H23   2    0.653258    0.924509    0.955293    11.00000   -1.20000
AFIX   0
C24   1    0.866670    0.808152    0.857012    11.00000    0.02264    0.03145 =
         0.01631    0.00771   -0.00135   -0.01155
AFIX  43
H24   2    0.843707    0.762645    0.884980    11.00000   -1.20000
AFIX   0
C25   1    0.700276    0.788721    0.756659    11.00000    0.02322    0.03260 =
         0.02227    0.00132   -0.00471   -0.00374
PART 1
C26   1    0.621073    0.764456    0.789972    21.00000    0.05570    0.05753 =
         0.05490    0.00083    0.01239   -0.00242
AFIX  43
H26   2    0.634718    0.773999    0.838543    21.00000   -1.20000
AFIX   0
PART 0
PART 2
C26A  1    0.592938    0.834137    0.758353   -21.00000    0.02677    0.03615 =
         0.05978   -0.02086    0.00725    0.00234
AFIX  43
H26A  2    0.594191    0.891232    0.779672   -21.00000   -1.20000
AFIX   0
PART 0
PART 1
C27   1    0.515647    0.724429    0.756042    21.00000    0.05658    0.05806 =
         0.05579    0.00079    0.01228   -0.00207
AFIX  43
H27   2    0.460270    0.706194    0.782275    21.00000   -1.20000
AFIX   0
PART 0
PART 2
C27A  1    0.486582    0.793766    0.728419   -21.00000    0.02060    0.04026 =
         0.05808   -0.00899    0.00547   -0.00087
AFIX  43
H27A  2    0.413628    0.818858    0.732811   -21.00000   -1.20000
AFIX   0
PART 0
C28   1    0.492360    0.711901    0.690353    11.00000    0.02177    0.04338 =
         0.04232    0.00319   -0.01055   -0.01007
PART 1
C29   1    0.578565    0.738003    0.650030    21.00000    0.01196    0.02202 =
         0.01674   -0.00615   -0.00678    0.00205
AFIX  43
H29   2    0.563541    0.727669    0.601523    21.00000   -1.20000
AFIX   0
PART 0
PART 2
C29A  1    0.584561    0.656782    0.711190   -21.00000    0.02700    0.03671 =
         0.04111   -0.00608   -0.00179   -0.00596
AFIX  43
H29A  2    0.577610    0.593973    0.703902   -21.00000   -1.20000
AFIX   0
PART 0
PART 1
C30   1    0.682425    0.778000    0.683526    21.00000    0.01075    0.01657 =
         0.01742   -0.00459    0.00027    0.00174
AFIX  43
H30   2    0.739360    0.797464    0.658788    21.00000   -1.20000
AFIX   0
PART 0
PART 2
C30A  1    0.692268    0.696301    0.744404   -21.00000    0.02599    0.02881 =
         0.03666    0.00145    0.00297   -0.00558
AFIX  43
H30A  2    0.759854    0.659767    0.758538   -21.00000   -1.20000
AFIX   0
PART 0
C31   1    0.870296    0.897070    0.767962    11.00000    0.02706    0.01880 =
         0.01569    0.00420   -0.00061    0.00101
AFIX  43
H31   2    0.851605    0.925267    0.723905    11.00000   -1.20000
AFIX   0
C32   1    0.962730    0.914811    0.820014    11.00000    0.01931    0.01811 =
         0.02236    0.00551    0.00403   -0.00135
AFIX  43
H32   2    1.021190    0.958653    0.818528    11.00000   -1.20000
AFIX   0
C33   1    0.314819    0.699583    0.595651    11.00000    0.01987    0.02685 =
         0.03881    0.00560   -0.00610   -0.00068
AFIX  43
H33   2    0.331591    0.748771    0.568870    11.00000   -1.20000
AFIX   0
C34   1    0.329081    0.599486    0.678473    11.00000    0.03538    0.06280 =
         0.04588    0.02884   -0.01995   -0.01793
AFIX  43
H34   2    0.355897    0.566276    0.719805    11.00000   -1.20000
AFIX   0
C35   1    0.230688    0.584619    0.630276    11.00000    0.02734    0.04196 =
         0.04230    0.01864   -0.00938   -0.01110
AFIX  43
H35   2    0.176296    0.537581    0.631475    11.00000   -1.20000
AFIX   0
HKLF 4




REM  mo_0905_8_0m_a.res in P2(1)/c
REM R1 =  0.0430 for    5932 Fo > 4sig(Fo)  and  0.0536 for all    6882 data
REM    507 parameters refined using    132 restraints

END

WGHT      0.0000     23.3436

REM Highest difference peak  1.327,  deepest hole -0.808,  1-sigma level  0.124
Q1    1   0.6428  0.7228  0.7865  11.00000  0.05    1.33
Q2    1   0.5430  0.6817  0.7526  11.00000  0.05    1.29
Q3    1   0.6011  0.8009  0.7938  11.00000  0.05    1.25
Q4    1   1.1388  0.7818  0.9340  11.00000  0.05    1.14
Q5    1   0.4962  0.7630  0.7606  11.00000  0.05    1.09
Q6    1   0.5580  0.5029  0.7066  11.00000  0.05    0.87
Q7    1   0.7813  0.7236  1.1083  11.00000  0.05    0.72
Q8    1   0.9711  0.7377  1.1192  11.00000  0.05    0.62
Q9    1   1.0254  0.6786  1.1413  11.00000  0.05    0.62
Q10   1   0.8914  0.8415  0.9779  11.00000  0.05    0.61
Q11   1   0.9868  0.5537  0.9105  11.00000  0.05    0.59
Q12   1   0.7456  0.5776  0.8069  11.00000  0.05    0.53
Q13   1   1.2934  0.8547  0.8748  11.00000  0.05    0.52
Q14   1   0.6416  0.7864  0.9170  11.00000  0.05    0.51
Q15   1   0.7755  0.5024  0.8217  11.00000  0.05    0.51
Q16   1   1.2827  0.8257  0.9035  11.00000  0.05    0.49
Q17   1   1.0181  0.4155  0.9266  11.00000  0.05    0.46
Q18   1   0.8014  0.8252  1.0496  11.00000  0.05    0.43
Q19   1   0.2087  0.4008  0.9056  11.00000  0.05    0.43
Q20   1   0.7116  0.7637  0.7268  11.00000  0.05    0.43
;
_shelx_res_checksum              77589
_shelx_fab_checksum              96859
_shelx_fab_file
;
    2    0    0     11.00      0.00
    3    0    0     11.12      0.00
    4    0    0    -19.40      0.00
    5    0    0     17.78      0.00
    6    0    0     -9.43      0.00
    7    0    0      5.57      0.00
    8    0    0     -4.26      0.00
    9    0    0      1.45      0.00
   10    0    0      1.10      0.00
   11    0    0     -4.12      0.00
   12    0    0      5.53      0.00
   13    0    0     -3.01      0.00
   14    0    0      0.32      0.00
    1    1    0     16.25      0.00
    2    1    0    -16.46      0.00
    3    1    0      8.08      0.00
    4    1    0     -0.72      0.00
    5    1    0     -3.45      0.00
    6    1    0      2.88      0.00
    7    1    0     -0.67      0.00
    8    1    0      0.42      0.00
    9    1    0     -1.00      0.00
   10    1    0      1.43      0.00
   11    1    0     -1.30      0.00
   12    1    0      0.10      0.00
   13    1    0      0.86      0.00
   14    1    0     -0.77      0.00
    0    2    0     47.93      0.00
    1    2    0    -33.60      0.00
    2    2    0     10.68      0.00
    3    2    0      2.23      0.00
    4    2    0    -11.02      0.00
    5    2    0     14.50      0.00
    6    2    0    -11.00      0.00
    7    2    0      7.50      0.00
    8    2    0     -4.45      0.00
    9    2    0      0.81      0.00
   10    2    0      1.52      0.00
   11    2    0     -3.17      0.00
   12    2    0      3.41      0.00
   13    2    0     -1.41      0.00
   14    2    0     -0.11      0.00
    1    3    0     24.66      0.00
    2    3    0    -25.24      0.00
    3    3    0     14.22      0.00
    4    3    0     -4.19      0.00
    5    3    0     -3.33      0.00
    6    3    0      4.46      0.00
    7    3    0     -2.68      0.00
    8    3    0      3.01      0.00
    9    3    0     -3.51      0.00
   10    3    0      3.08      0.00
   11    3    0     -1.56      0.00
   12    3    0     -0.78      0.00
   13    3    0      1.64      0.00
   14    3    0     -0.92      0.00
    0    4    0      2.27      0.00
    1    4    0     -4.26      0.00
    2    4    0      8.31      0.00
    3    4    0     -8.32      0.00
    4    4    0      1.04      0.00
    5    4    0      6.94      0.00
    6    4    0     -9.23      0.00
    7    4    0      7.20      0.00
    8    4    0     -3.51      0.00
    9    4    0      0.21      0.00
   10    4    0      0.76      0.00
   11    4    0     -0.54      0.00
   12    4    0      0.45      0.00
   13    4    0      0.01      0.00
    1    5    0      5.73      0.00
    2    5    0     -6.35      0.00
    3    5    0      7.38      0.00
    4    5    0     -7.49      0.00
    5    5    0      3.15      0.00
    6    5    0      1.20      0.00
    7    5    0     -3.70      0.00
    8    5    0      5.07      0.00
    9    5    0     -4.30      0.00
   10    5    0      2.07      0.00
   11    5    0      0.18      0.00
   12    5    0     -1.45      0.00
   13    5    0      1.06      0.00
    0    6    0     -3.76      0.00
    1    6    0      0.95      0.00
    2    6    0      3.75      0.00
    3    6    0     -4.95      0.00
    4    6    0      2.31      0.00
    5    6    0      0.53      0.00
    6    6    0     -1.44      0.00
    7    6    0      1.79      0.00
    8    6    0     -1.70      0.00
    9    6    0      1.23      0.00
   10    6    0     -1.86      0.00
   11    6    0      1.99      0.00
   12    6    0     -0.44      0.00
   13    6    0     -0.38      0.00
    1    7    0     -4.30      0.00
    2    7    0      4.19      0.00
    3    7    0      1.12      0.00
    4    7    0     -5.02      0.00
    5    7    0      3.54      0.00
    6    7    0     -0.73      0.00
    7    7    0     -0.86      0.00
    8    7    0      1.66      0.00
    9    7    0     -0.83      0.00
   10    7    0     -0.52      0.00
   11    7    0      0.36      0.00
   12    7    0      0.21      0.00
   13    7    0     -0.03      0.00
    0    8    0      5.28      0.00
    1    8    0     -3.78      0.00
    2    8    0      0.81      0.00
    3    8    0      1.20      0.00
    4    8    0     -1.09      0.00
    5    8    0     -0.88      0.00
    6    8    0      1.99      0.00
    7    8    0     -0.24      0.00
    8    8    0     -1.69      0.00
    9    8    0      2.19      0.00
   10    8    0     -2.38      0.00
   11    8    0      1.69      0.00
   12    8    0     -0.48      0.00
    1    9    0     -1.16      0.00
    2    9    0      1.58      0.00
    3    9    0     -0.30      0.00
    4    9    0     -0.32      0.00
    5    9    0     -0.34      0.00
    6    9    0     -0.95      0.00
    7    9    0      2.95      0.00
    8    9    0     -2.99      0.00
    9    9    0      2.79      0.00
   10    9    0     -2.14      0.00
   11    9    0     -0.05      0.00
   12    9    0      1.40      0.00
    0   10    0      5.55      0.00
    1   10    0     -3.84      0.00
    2   10    0      0.80      0.00
    3   10    0      1.06      0.00
    4   10    0     -1.42      0.00
    5   10    0      0.96      0.00
    6   10    0     -1.30      0.00
    7   10    0      2.45      0.00
    8   10    0     -2.37      0.00
    9   10    0      1.05      0.00
   10   10    0      0.31      0.00
   11   10    0     -1.05      0.00
   12   10    0      0.45      0.00
    1   11    0      1.19      0.00
    2   11    0     -0.17      0.00
    3   11    0     -0.52      0.00
    4   11    0      0.53      0.00
    5   11    0     -0.25      0.00
    6   11    0     -1.72      0.00
    7   11    0      3.15      0.00
    8   11    0     -2.66      0.00
    9   11    0      2.38      0.00
   10   11    0     -1.70      0.00
   11   11    0      0.25      0.00
    0   12    0      3.99      0.00
    1   12    0     -2.77      0.00
    2   12    0      0.86      0.00
    3   12    0      0.25      0.00
    4   12    0     -1.19      0.00
    5   12    0      2.07      0.00
    6   12    0     -2.68      0.00
    7   12    0      2.84      0.00
    8   12    0     -1.86      0.00
    9   12    0     -0.25      0.00
   10   12    0      2.13      0.00
    1   13    0      2.74      0.00
    2   13    0     -0.46      0.00
    3   13    0     -1.00      0.00
    4   13    0     -0.25      0.00
    5   13    0      0.97      0.00
    6   13    0     -1.53      0.00
    7   13    0      1.28      0.00
    8   13    0     -0.08      0.00
    9   13    0      0.12      0.00
   10   13    0     -0.42      0.00
    0   14    0      1.67      0.00
    1   14    0     -1.73      0.00
    2   14    0      0.94      0.00
    3   14    0      0.92      0.00
    4   14    0     -1.94      0.00
    5   14    0      1.54      0.00
    6   14    0     -0.88      0.00
    7   14    0      0.82      0.00
    8   14    0     -1.02      0.00
    9   14    0      0.08      0.00
    1   15    0      3.71      0.00
    2   15    0     -0.95      0.00
    3   15    0     -1.20      0.00
    4   15    0      0.34      0.00
    5   15    0     -0.32      0.00
    6   15    0     -0.08      0.00
    7   15    0      0.65      0.00
    8   15    0      0.32      0.00
    0   16    0     -1.57      0.00
    1   16    0     -0.79      0.00
    2   16    0      2.20      0.00
    3   16    0      0.40      0.00
    4   16    0     -1.35      0.00
    5   16    0      0.34      0.00
    6   16    0     -0.18      0.00
    7   16    0      0.11      0.00
    1   17    0      2.09      0.00
    2   17    0     -0.97      0.00
    3   17    0     -0.24      0.00
    4   17    0      0.54      0.00
    5   17    0     -0.94      0.00
    0   18    0     -2.52      0.00
    1   18    0     -0.21      0.00
    2   18    0      2.29      0.00
    3   18    0     -0.54      0.00
  -14    1    1      1.18      0.00
  -13    1    1     -3.45      0.00
  -12    1    1      3.53      0.00
  -11    1    1     -1.23      0.00
  -10    1    1     -0.43      0.00
   -9    1    1      2.25      0.00
   -8    1    1     -3.87      0.00
   -7    1    1      5.71      0.00
   -6    1    1    -11.75      0.00
   -5    1    1     14.93      0.00
   -4    1    1     -7.59      0.00
   -3    1    1     -8.04      0.00
   -2    1    1     36.88      0.00
   -1    1    1    -63.59      0.00
    1    1    1    -11.78      0.00
    2    1    1    -10.82      0.00
    3    1    1     17.30      0.00
    4    1    1    -19.13      0.00
    5    1    1     13.79      0.00
    6    1    1     -8.04      0.00
    7    1    1      5.46      0.00
    8    1    1     -1.61      0.00
    9    1    1     -1.92      0.00
   10    1    1      4.20      0.00
   11    1    1     -5.57      0.00
   12    1    1      3.66      0.00
   13    1    1     -0.36      0.00
   14    1    1     -0.74      0.00
  -14    2    1      0.84      0.00
  -13    2    1     -0.39      0.00
  -12    2    1     -1.21      0.00
  -11    2    1      1.89      0.00
  -10    2    1     -1.43      0.00
   -9    2    1      1.22      0.00
   -8    2    1     -1.77      0.00
   -7    2    1      4.54      0.00
   -6    2    1     -6.23      0.00
   -5    2    1      0.29      0.00
   -4    2    1     10.60      0.00
   -3    2    1    -21.00      0.00
   -2    2    1     22.74      0.00
   -1    2    1     -3.03      0.00
    0    2    1    -23.62      0.00
    1    2    1     27.16      0.00
    2    2    1    -13.11      0.00
    3    2    1      2.25      0.00
    4    2    1      3.14      0.00
    5    2    1     -3.73      0.00
    6    2    1      1.15      0.00
    7    2    1     -1.15      0.00
    8    2    1      2.71      0.00
    9    2    1     -2.93      0.00
   10    2    1      2.10      0.00
   11    2    1     -0.02      0.00
   12    2    1     -1.90      0.00
   13    2    1      1.83      0.00
   14    2    1     -0.75      0.00
  -14    3    1     -0.35      0.00
  -13    3    1     -0.92      0.00
  -12    3    1      1.71      0.00
  -11    3    1     -1.37      0.00
  -10    3    1      0.18      0.00
   -9    3    1      2.81      0.00
   -8    3    1     -6.22      0.00
   -7    3    1      7.67      0.00
   -6    3    1     -7.07      0.00
   -5    3    1      2.40      0.00
   -4    3    1      4.92      0.00
   -3    3    1     -8.64      0.00
   -2    3    1     12.11      0.00
   -1    3    1    -18.33      0.00
    0    3    1     17.76      0.00
    1    3    1     -9.88      0.00
    2    3    1      2.78      0.00
    3    3    1      5.36      0.00
    4    3    1    -13.36      0.00
    5    3    1     13.81      0.00
    6    3    1     -8.98      0.00
    7    3    1      4.11      0.00
    8    3    1      0.05      0.00
    9    3    1     -2.25      0.00
   10    3    1      2.54      0.00
   11    3    1     -2.32      0.00
   12    3    1      1.28      0.00
   13    3    1     -0.10      0.00
  -14    4    1      0.80      0.00
  -13    4    1     -1.61      0.00
  -12    4    1      0.44      0.00
  -11    4    1      1.61      0.00
  -10    4    1     -3.01      0.00
   -9    4    1      3.61      0.00
   -8    4    1     -3.08      0.00
   -7    4    1      2.81      0.00
   -6    4    1     -1.84      0.00
   -5    4    1     -3.11      0.00
   -4    4    1      8.57      0.00
   -3    4    1    -12.48      0.00
   -2    4    1     13.85      0.00
   -1    4    1     -2.89      0.00
    0    4    1    -14.43      0.00
    1    4    1     18.10      0.00
    2    4    1    -11.76      0.00
    3    4    1      6.96      0.00
    4    4    1     -1.57      0.00
    5    4    1     -2.93      0.00
    6    4    1      4.03      0.00
    7    4    1     -4.92      0.00
    8    4    1      5.18      0.00
    9    4    1     -3.60      0.00
   10    4    1      1.25      0.00
   11    4    1      1.12      0.00
   12    4    1     -2.06      0.00
   13    4    1      1.34      0.00
  -13    5    1     -0.07      0.00
  -12    5    1     -0.57      0.00
  -11    5    1      0.61      0.00
  -10    5    1     -0.31      0.00
   -9    5    1      1.85      0.00
   -8    5    1     -4.01      0.00
   -7    5    1      3.98      0.00
   -6    5    1     -0.99      0.00
   -5    5    1     -4.65      0.00
   -4    5    1      9.39      0.00
   -3    5    1     -7.51      0.00
   -2    5    1     -0.44      0.00
   -1    5    1      5.74      0.00
    0    5    1     -2.56      0.00
    1    5    1     -4.04      0.00
    2    5    1      5.83      0.00
    3    5    1     -1.04      0.00
    4    5    1     -5.17      0.00
    5    5    1      6.71      0.00
    6    5    1     -4.20      0.00
    7    5    1      1.62      0.00
    8    5    1      0.11      0.00
    9    5    1     -0.31      0.00
   10    5    1     -0.65      0.00
   11    5    1      0.40      0.00
   12    5    1      0.34      0.00
   13    5    1     -0.11      0.00
  -13    6    1     -1.11      0.00
  -12    6    1      1.17      0.00
  -11    6    1     -0.22      0.00
  -10    6    1     -1.58      0.00
   -9    6    1      2.77      0.00
   -8    6    1     -1.47      0.00
   -7    6    1     -1.36      0.00
   -6    6    1      4.01      0.00
   -5    6    1     -5.29      0.00
   -4    6    1      2.15      0.00
   -3    6    1      3.28      0.00
   -2    6    1     -3.64      0.00
   -1    6    1      0.16      0.00
    0    6    1      1.52      0.00
    1    6    1     -0.70      0.00
    2    6    1     -3.09      0.00
    3    6    1      6.58      0.00
    4    6    1     -3.97      0.00
    5    6    1     -1.67      0.00
    6    6    1      4.59      0.00
    7    6    1     -4.99      0.00
    8    6    1      3.75      0.00
    9    6    1     -1.39      0.00
   10    6    1     -0.23      0.00
   11    6    1      0.61      0.00
   12    6    1     -0.60      0.00
   13    6    1      0.52      0.00
  -13    7    1     -0.21      0.00
  -12    7    1     -1.38      0.00
  -11    7    1      2.41      0.00
  -10    7    1     -1.54      0.00
   -9    7    1      0.79      0.00
   -8    7    1     -0.05      0.00
   -7    7    1     -1.52      0.00
   -6    7    1      1.97      0.00
   -5    7    1     -1.76      0.00
   -4    7    1      2.84      0.00
   -3    7    1     -3.95      0.00
   -2    7    1      3.24      0.00
   -1    7    1     -1.32      0.00
    0    7    1     -0.12      0.00
    1    7    1      0.83      0.00
    2    7    1     -1.18      0.00
    3    7    1      1.15      0.00
    4    7    1     -0.43      0.00
    5    7    1     -0.93      0.00
    6    7    1      0.74      0.00
    7    7    1      1.11      0.00
    8    7    1     -1.85      0.00
    9    7    1      2.07      0.00
   10    7    1     -2.37      0.00
   11    7    1      1.20      0.00
   12    7    1      0.06      0.00
   13    7    1      0.04      0.00
  -12    8    1      0.02      0.00
  -11    8    1     -1.61      0.00
  -10    8    1      2.15      0.00
   -9    8    1     -1.67      0.00
   -8    8    1      2.24      0.00
   -7    8    1     -2.73      0.00
   -6    8    1      2.43      0.00
   -5    8    1     -2.23      0.00
   -4    8    1     -0.23      0.00
   -3    8    1      4.89      0.00
   -2    8    1     -6.13      0.00
   -1    8    1      2.63      0.00
    0    8    1      1.31      0.00
    1    8    1     -2.81      0.00
    2    8    1      1.24      0.00
    3    8    1      0.76      0.00
    4    8    1      0.37      0.00
    5    8    1     -1.94      0.00
    6    8    1      0.81      0.00
    7    8    1      0.32      0.00
    8    8    1     -0.68      0.00
    9    8    1      1.42      0.00
   10    8    1     -0.58      0.00
   11    8    1     -1.26      0.00
   12    8    1      1.28      0.00
  -12    9    1     -0.19      0.00
  -11    9    1      1.03      0.00
  -10    9    1     -1.35      0.00
   -9    9    1      1.29      0.00
   -8    9    1     -0.78      0.00
   -7    9    1     -0.68      0.00
   -6    9    1      0.64      0.00
   -5    9    1      1.15      0.00
   -4    9    1     -1.28      0.00
   -3    9    1     -1.23      0.00
   -2    9    1      4.57      0.00
   -1    9    1     -6.04      0.00
    0    9    1      3.69      0.00
    1    9    1      0.44      0.00
    2    9    1     -2.65      0.00
    3    9    1      2.27      0.00
    4    9    1     -0.73      0.00
    5    9    1     -0.18      0.00
    6    9    1     -0.97      0.00
    7    9    1      2.46      0.00
    8    9    1     -2.10      0.00
    9    9    1      0.91      0.00
   10    9    1     -0.02      0.00
   11    9    1     -0.16      0.00
   12    9    1     -0.29      0.00
  -12   10    1     -0.09      0.00
  -11   10    1     -1.70      0.00
  -10   10    1      3.46      0.00
   -9   10    1     -3.61      0.00
   -8   10    1      3.68      0.00
   -7   10    1     -2.61      0.00
   -6   10    1      0.01      0.00
   -5   10    1      0.78      0.00
   -4   10    1     -0.76      0.00
   -3   10    1      2.06      0.00
   -2   10    1     -2.78      0.00
   -1   10    1      2.77      0.00
    0   10    1     -2.61      0.00
    1   10    1      0.82      0.00
    2   10    1      1.26      0.00
    3   10    1     -1.94      0.00
    4   10    1      2.23      0.00
    5   10    1     -0.85      0.00
    6   10    1     -2.18      0.00
    7   10    1      3.08      0.00
    8   10    1     -2.45      0.00
    9   10    1      2.24      0.00
   10   10    1     -0.87      0.00
   11   10    1     -1.12      0.00
  -11   11    1     -1.18      0.00
  -10   11    1      0.09      0.00
   -9   11    1      1.65      0.00
   -8   11    1     -2.74      0.00
   -7   11    1      2.21      0.00
   -6   11    1     -1.41      0.00
   -5   11    1      1.28      0.00
   -4   11    1     -0.82      0.00
   -3   11    1     -0.46      0.00
   -2   11    1      2.64      0.00
   -1   11    1     -4.53      0.00
    0   11    1      3.79      0.00
    1   11    1     -1.37      0.00
    2   11    1     -0.19      0.00
    3   11    1      1.08      0.00
    4   11    1     -2.14      0.00
    5   11    1      3.12      0.00
    6   11    1     -3.51      0.00
    7   11    1      2.56      0.00
    8   11    1     -0.45      0.00
    9   11    1     -1.87      0.00
   10   11    1      3.29      0.00
   11   11    1     -2.63      0.00
  -11   12    1     -0.96      0.00
  -10   12    1      1.83      0.00
   -9   12    1     -1.62      0.00
   -8   12    1      2.22      0.00
   -7   12    1     -2.58      0.00
   -6   12    1      0.90      0.00
   -5   12    1      0.38      0.00
   -4   12    1     -1.18      0.00
   -3   12    1      1.79      0.00
   -2   12    1     -0.93      0.00
   -1   12    1      1.56      0.00
    0   12    1     -3.53      0.00
    1   12    1      1.88      0.00
    2   12    1      1.03      0.00
    3   12    1     -0.91      0.00
    4   12    1     -0.02      0.00
    5   12    1      0.65      0.00
    6   12    1     -1.35      0.00
    7   12    1      0.88      0.00
    8   12    1     -0.52      0.00
    9   12    1      0.97      0.00
   10   12    1     -0.81      0.00
  -10   13    1      0.58      0.00
   -9   13    1      1.10      0.00
   -8   13    1     -1.54      0.00
   -7   13    1      1.27      0.00
   -6   13    1     -1.54      0.00
   -5   13    1      1.83      0.00
   -4   13    1     -1.34      0.00
   -3   13    1      0.17      0.00
   -2   13    1      1.52      0.00
   -1   13    1     -3.19      0.00
    0   13    1      3.36      0.00
    1   13    1     -1.97      0.00
    2   13    1      0.24      0.00
    3   13    1      1.27      0.00
    4   13    1     -2.27      0.00
    5   13    1      2.54      0.00
    6   13    1     -2.35      0.00
    7   13    1      1.78      0.00
    8   13    1     -0.32      0.00
    9   13    1     -1.91      0.00
   10   13    1      3.20      0.00
   -9   14    1     -0.02      0.00
   -8   14    1      1.05      0.00
   -7   14    1     -1.47      0.00
   -6   14    1      0.26      0.00
   -5   14    1      0.41      0.00
   -4   14    1     -1.50      0.00
   -3   14    1      1.54      0.00
   -2   14    1      1.20      0.00
   -1   14    1     -0.15      0.00
    0   14    1     -4.25      0.00
    1   14    1      2.81      0.00
    2   14    1      1.14      0.00
    3   14    1     -0.53      0.00
    4   14    1     -0.71      0.00
    5   14    1      0.29      0.00
    6   14    1     -0.08      0.00
    7   14    1     -0.72      0.00
    8   14    1      1.34      0.00
    9   14    1     -0.67      0.00
   -8   15    1      0.00      0.00
   -7   15    1      0.01      0.00
   -6   15    1     -0.87      0.00
   -5   15    1      1.93      0.00
   -4   15    1     -1.81      0.00
   -3   15    1     -0.27      0.00
   -2   15    1      1.17      0.00
   -1   15    1     -0.36      0.00
    0   15    1      1.57      0.00
    1   15    1     -2.85      0.00
    2   15    1      0.48      0.00
    3   15    1      1.90      0.00
    4   15    1     -1.40      0.00
    5   15    1      0.63      0.00
    6   15    1     -0.71      0.00
    7   15    1      0.96      0.00
    8   15    1     -0.84      0.00
   -7   16    1     -0.21      0.00
   -6   16    1     -1.30      0.00
   -5   16    1      1.15      0.00
   -4   16    1     -1.12      0.00
   -3   16    1      0.76      0.00
   -2   16    1      1.77      0.00
   -1   16    1     -1.12      0.00
    0   16    1     -3.02      0.00
    1   16    1      2.73      0.00
    2   16    1      0.38      0.00
    3   16    1     -0.66      0.00
    4   16    1      0.39      0.00
    5   16    1     -0.55      0.00
    6   16    1     -0.19      0.00
    7   16    1     -0.08      0.00
   -6   17    1     -0.23      0.00
   -5   17    1      0.31      0.00
   -4   17    1     -0.51      0.00
   -3   17    1     -1.59      0.00
   -2   17    1      1.60      0.00
   -1   17    1      1.57      0.00
    0   17    1     -0.29      0.00
    1   17    1     -3.06      0.00
    2   17    1      1.21      0.00
    3   17    1      0.92      0.00
    4   17    1      0.21      0.00
    5   17    1     -0.29      0.00
   -3   18    1     -0.26      0.00
   -2   18    1      0.55      0.00
   -1   18    1     -0.48      0.00
    0   18    1     -0.88      0.00
    1   18    1      1.55      0.00
    2   18    1     -0.55      0.00
    3   18    1     -0.61      0.00
  -14    0    2      1.99      0.00
  -13    0    2     -2.99      0.00
  -12    0    2      1.52      0.00
  -11    0    2     -0.61      0.00
  -10    0    2      0.53      0.00
   -9    0    2      0.76      0.00
   -8    0    2     -2.31      0.00
   -7    0    2      7.53      0.00
   -6    0    2    -14.38      0.00
   -5    0    2     10.99      0.00
   -4    0    2      2.71      0.00
   -3    0    2    -25.28      0.00
   -2    0    2     51.87      0.00
   -1    0    2    -49.20      0.00
    1    0    2     14.59      0.00
    2    0    2    -16.50      0.00
    3    0    2     16.10      0.00
    4    0    2    -14.13      0.00
    5    0    2      9.10      0.00
    6    0    2     -6.54      0.00
    7    0    2      2.69      0.00
    8    0    2      2.30      0.00
    9    0    2     -4.75      0.00
   10    0    2      5.85      0.00
   11    0    2     -4.49      0.00
   12    0    2      0.45      0.00
   13    0    2      1.74      0.00
  -14    1    2      0.16      0.00
  -13    1    2      0.35      0.00
  -12    1    2     -0.58      0.00
  -11    1    2      0.12      0.00
  -10    1    2     -0.18      0.00
   -9    1    2      1.01      0.00
   -8    1    2     -2.68      0.00
   -7    1    2      4.32      0.00
   -6    1    2     -2.00      0.00
   -5    1    2     -4.30      0.00
   -4    1    2      9.93      0.00
   -3    1    2    -11.25      0.00
   -2    1    2      2.96      0.00
   -1    1    2     11.46      0.00
    0    1    2    -14.99      0.00
    1    1    2      5.78      0.00
    2    1    2      1.10      0.00
    3    1    2     -1.96      0.00
    4    1    2      1.03      0.00
    5    1    2      0.52      0.00
    6    1    2     -0.36      0.00
    7    1    2     -1.39      0.00
    8    1    2      1.93      0.00
    9    1    2     -1.34      0.00
   10    1    2      0.22      0.00
   11    1    2      1.17      0.00
   12    1    2     -1.47      0.00
   13    1    2      0.55      0.00
  -14    2    2      0.92      0.00
  -13    2    2     -2.25      0.00
  -12    2    2      1.83      0.00
  -11    2    2     -0.98      0.00
  -10    2    2     -0.27      0.00
   -9    2    2      2.63      0.00
   -8    2    2     -4.09      0.00
   -7    2    2      5.83      0.00
   -6    2    2     -7.30      0.00
   -5    2    2      3.11      0.00
   -4    2    2      4.21      0.00
   -3    2    2    -14.17      0.00
   -2    2    2     28.95      0.00
   -1    2    2    -30.64      0.00
    0    2    2     11.47      0.00
    1    2    2      4.82      0.00
    2    2    2    -10.21      0.00
    3    2    2     14.88      0.00
    4    2    2    -15.17      0.00
    5    2    2      9.59      0.00
    6    2    2     -4.73      0.00
    7    2    2      0.50      0.00
    8    2    2      3.04      0.00
    9    2    2     -4.13      0.00
   10    2    2      4.16      0.00
   11    2    2     -2.96      0.00
   12    2    2      0.49      0.00
   13    2    2      0.75      0.00
  -14    3    2      1.09      0.00
  -13    3    2     -0.59      0.00
  -12    3    2     -0.66      0.00
  -11    3    2      1.07      0.00
  -10    3    2     -1.69      0.00
   -9    3    2      2.73      0.00
   -8    3    2     -4.41      0.00
   -7    3    2      6.19      0.00
   -6    3    2     -2.51      0.00
   -5    3    2     -6.45      0.00
   -4    3    2     13.86      0.00
   -3    3    2    -16.44      0.00
   -2    3    2      5.97      0.00
   -1    3    2     15.58      0.00
    0    3    2    -22.64      0.00
    1    3    2     10.76      0.00
    2    3    2     -1.82      0.00
    3    3    2     -0.32      0.00
    4    3    2      1.67      0.00
    5    3    2     -1.36      0.00
    6    3    2      2.11      0.00
    7    3    2     -4.21      0.00
    8    3    2      3.99      0.00
    9    3    2     -2.02      0.00
   10    3    2     -0.45      0.00
   11    3    2      2.52      0.00
   12    3    2     -2.55      0.00
   13    3    2      1.19      0.00
  -14    4    2      0.06      0.00
  -13    4    2     -0.70      0.00
  -12    4    2      0.94      0.00
  -11    4    2     -0.81      0.00
  -10    4    2     -0.88      0.00
   -9    4    2      3.79      0.00
   -8    4    2     -4.53      0.00
   -7    4    2      1.69      0.00
   -6    4    2      3.27      0.00
   -5    4    2     -7.77      0.00
   -4    4    2      6.87      0.00
   -3    4    2     -0.55      0.00
   -2    4    2     -2.16      0.00
   -1    4    2     -2.41      0.00
    0    4    2      6.83      0.00
    1    4    2     -5.39      0.00
    2    4    2     -1.52      0.00
    3    4    2      9.63      0.00
    4    4    2    -11.57      0.00
    5    4    2      6.33      0.00
    6    4    2     -0.70      0.00
    7    4    2     -2.11      0.00
    8    4    2      2.81      0.00
    9    4    2     -1.79      0.00
   10    4    2      0.86      0.00
   11    4    2     -0.84      0.00
   12    4    2      0.58      0.00
   13    4    2     -0.21      0.00
  -13    5    2     -1.88      0.00
  -12    5    2      0.53      0.00
  -11    5    2      1.28      0.00
  -10    5    2     -2.59      0.00
   -9    5    2      2.37      0.00
   -8    5    2     -0.81      0.00
   -7    5    2     -0.22      0.00
   -6    5    2      1.20      0.00
   -5    5    2     -1.60      0.00
   -4    5    2      0.19      0.00
   -3    5    2     -1.17      0.00
   -2    5    2      2.96      0.00
   -1    5    2      0.78      0.00
    0    5    2     -4.81      0.00
    1    5    2      5.22      0.00
    2    5    2     -5.86      0.00
    3    5    2      3.80      0.00
    4    5    2      1.96      0.00
    5    5    2     -5.35      0.00
    6    5    2      5.64      0.00
    7    5    2     -4.71      0.00
    8    5    2      2.58      0.00
    9    5    2     -0.30      0.00
   10    5    2     -1.19      0.00
   11    5    2      1.72      0.00
   12    5    2     -1.46      0.00
   13    5    2      1.10      0.00
  -13    6    2      0.28      0.00
  -12    6    2     -1.18      0.00
  -11    6    2      0.57      0.00
  -10    6    2     -0.19      0.00
   -9    6    2      1.07      0.00
   -8    6    2     -0.61      0.00
   -7    6    2     -1.74      0.00
   -6    6    2      4.42      0.00
   -5    6    2     -6.72      0.00
   -4    6    2      6.47      0.00
   -3    6    2     -1.78      0.00
   -2    6    2     -3.68      0.00
   -1    6    2      4.19      0.00
    0    6    2     -1.03      0.00
    1    6    2     -0.34      0.00
    2    6    2     -1.05      0.00
    3    6    2      2.81      0.00
    4    6    2     -2.24      0.00
    5    6    2     -0.26      0.00
    6    6    2      1.06      0.00
    7    6    2     -0.47      0.00
    8    6    2      0.06      0.00
    9    6    2      1.09      0.00
   10    6    2     -1.32      0.00
   11    6    2      0.01      0.00
   12    6    2      0.35      0.00
   13    6    2      0.09      0.00
  -13    7    2     -0.84      0.00
  -12    7    2      1.31      0.00
  -11    7    2     -1.09      0.00
  -10    7    2      0.13      0.00
   -9    7    2     -0.54      0.00
   -8    7    2      2.55      0.00
   -7    7    2     -3.43      0.00
   -6    7    2      2.25      0.00
   -5    7    2      1.26      0.00
   -4    7    2     -6.74      0.00
   -3    7    2      8.29      0.00
   -2    7    2     -2.62      0.00
   -1    7    2     -3.54      0.00
    0    7    2      4.64      0.00
    1    7    2     -1.84      0.00
    2    7    2     -1.35      0.00
    3    7    2      0.47      0.00
    4    7    2      3.66      0.00
    5    7    2     -4.92      0.00
    6    7    2      2.99      0.00
    7    7    2     -1.23      0.00
    8    7    2     -0.35      0.00
    9    7    2      1.06      0.00
   10    7    2      0.05      0.00
   11    7    2     -0.72      0.00
   12    7    2      0.00      0.00
  -13    8    2      0.05      0.00
  -12    8    2     -1.19      0.00
  -11    8    2      1.13      0.00
  -10    8    2     -0.05      0.00
   -9    8    2     -0.35      0.00
   -8    8    2      1.15      0.00
   -7    8    2     -1.59      0.00
   -6    8    2      0.28      0.00
   -5    8    2     -0.23      0.00
   -4    8    2      2.77      0.00
   -3    8    2     -5.01      0.00
   -2    8    2      4.50      0.00
   -1    8    2     -1.14      0.00
    0    8    2     -2.95      0.00
    1    8    2      4.60      0.00
    2    8    2     -3.12      0.00
    3    8    2      0.70      0.00
    4    8    2      1.09      0.00
    5    8    2     -1.04      0.00
    6    8    2     -1.01      0.00
    7    8    2      2.01      0.00
    8    8    2     -1.19      0.00
    9    8    2      0.83      0.00
   10    8    2     -0.70      0.00
   11    8    2      0.30      0.00
   12    8    2     -0.15      0.00
  -12    9    2      1.22      0.00
  -11    9    2     -3.07      0.00
  -10    9    2      3.16      0.00
   -9    9    2     -2.69      0.00
   -8    9    2      2.72      0.00
   -7    9    2     -1.22      0.00
   -6    9    2     -0.57      0.00
   -5    9    2      1.69      0.00
   -4    9    2     -4.49      0.00
   -3    9    2      6.76      0.00
   -2    9    2     -5.12      0.00
   -1    9    2      1.78      0.00
    0    9    2      1.17      0.00
    1    9    2     -3.45      0.00
    2    9    2      3.97      0.00
    3    9    2     -3.91      0.00
    4    9    2      3.64      0.00
    5    9    2     -0.84      0.00
    6    9    2     -1.98      0.00
    7    9    2      2.08      0.00
    8    9    2     -2.11      0.00
    9    9    2      1.73      0.00
   10    9    2      0.71      0.00
   11    9    2     -2.25      0.00
   12    9    2      1.46      0.00
  -12   10    2      0.44      0.00
  -11   10    2      0.13      0.00
  -10   10    2     -0.74      0.00
   -9   10    2      1.49      0.00
   -8   10    2     -1.19      0.00
   -7   10    2      0.57      0.00
   -6   10    2     -1.37      0.00
   -5   10    2      1.66      0.00
   -4   10    2      0.26      0.00
   -3   10    2     -3.08      0.00
   -2   10    2      4.88      0.00
   -1   10    2     -3.75      0.00
    0   10    2      0.41      0.00
    1   10    2      1.78      0.00
    2   10    2     -2.01      0.00
    3   10    2      1.98      0.00
    4   10    2     -2.28      0.00
    5   10    2      2.71      0.00
    6   10    2     -2.60      0.00
    7   10    2      1.23      0.00
    8   10    2      0.90      0.00
    9   10    2     -2.64      0.00
   10   10    2      2.64      0.00
   11   10    2     -1.00      0.00
  -11   11    2     -2.48      0.00
  -10   11    2      2.70      0.00
   -9   11    2     -2.11      0.00
   -8   11    2      2.25      0.00
   -7   11    2     -0.58      0.00
   -6   11    2     -1.54      0.00
   -5   11    2      2.00      0.00
   -4   11    2     -3.16      0.00
   -3   11    2      4.32      0.00
   -2   11    2     -4.00      0.00
   -1   11    2      3.57      0.00
    0   11    2     -1.55      0.00
    1   11    2     -2.23      0.00
    2   11    2      3.63      0.00
    3   11    2     -2.56      0.00
    4   11    2      1.24      0.00
    5   11    2      0.80      0.00
    6   11    2     -2.05      0.00
    7   11    2      1.66      0.00
    8   11    2     -1.87      0.00
    9   11    2      2.05      0.00
   10   11    2     -0.68      0.00
   11   11    2     -1.01      0.00
  -11   12    2     -0.71      0.00
  -10   12    2     -0.88      0.00
   -9   12    2      2.07      0.00
   -8   12    2     -1.68      0.00
   -7   12    2      1.23      0.00
   -6   12    2     -1.57      0.00
   -5   12    2      1.54      0.00
   -4   12    2     -0.57      0.00
   -3   12    2     -1.29      0.00
   -2   12    2      3.71      0.00
   -1   12    2     -4.48      0.00
    0   12    2      2.74      0.00
    1   12    2     -0.74      0.00
    2   12    2     -0.76      0.00
    3   12    2      2.51      0.00
    4   12    2     -3.79      0.00
    5   12    2      3.70      0.00
    6   12    2     -2.40      0.00
    7   12    2      0.49      0.00
    8   12    2      1.96      0.00
    9   12    2     -4.32      0.00
   10   12    2      4.68      0.00
  -10   13    2      0.79      0.00
   -9   13    2     -0.92      0.00
   -8   13    2      2.04      0.00
   -7   13    2     -0.99      0.00
   -6   13    2     -0.93      0.00
   -5   13    2      1.94      0.00
   -4   13    2     -3.08      0.00
   -3   13    2      2.34      0.00
   -2   13    2     -1.31      0.00
   -1   13    2      3.26      0.00
    0   13    2     -2.74      0.00
    1   13    2     -1.63      0.00
    2   13    2      2.39      0.00
    3   13    2     -0.05      0.00
    4   13    2     -0.31      0.00
    5   13    2     -0.12      0.00
    6   13    2      0.30      0.00
    7   13    2     -0.64      0.00
    8   13    2      0.07      0.00
    9   13    2      0.90      0.00
   -9   14    2      0.54      0.00
   -8   14    2      0.08      0.00
   -7   14    2      0.70      0.00
   -6   14    2     -2.06      0.00
   -5   14    2      2.37      0.00
   -4   14    2     -1.05      0.00
   -3   14    2     -0.88      0.00
   -2   14    2      2.37      0.00
   -1   14    2     -3.63      0.00
    0   14    2      3.79      0.00
    1   14    2     -1.52      0.00
    2   14    2     -1.43      0.00
    3   14    2      2.50      0.00
    4   14    2     -2.26      0.00
    5   14    2      2.11      0.00
    6   14    2     -1.97      0.00
    7   14    2      1.34      0.00
    8   14    2      0.36      0.00
    9   14    2     -2.27      0.00
   -8   15    2      1.10      0.00
   -7   15    2      0.64      0.00
   -6   15    2     -1.72      0.00
   -5   15    2      1.74      0.00
   -4   15    2     -2.28      0.00
   -3   15    2      0.40      0.00
   -2   15    2      1.22      0.00
   -1   15    2      2.23      0.00
    0   15    2     -3.53      0.00
    1   15    2     -0.55      0.00
    2   15    2      1.67      0.00
    3   15    2      0.27      0.00
    4   15    2     -0.16      0.00
    5   15    2     -0.34      0.00
    6   15    2      0.56      0.00
    7   15    2     -1.64      0.00
    8   15    2      1.73      0.00
   -7   16    2      0.68      0.00
   -6   16    2     -1.27      0.00
   -5   16    2      1.65      0.00
   -4   16    2     -0.10      0.00
   -3   16    2     -1.69      0.00
   -2   16    2      0.55      0.00
   -1   16    2     -0.85      0.00
    0   16    2      3.69      0.00
    1   16    2     -2.20      0.00
    2   16    2     -1.79      0.00
    3   16    2      1.66      0.00
    4   16    2     -0.18      0.00
    5   16    2      0.50      0.00
    6   16    2     -0.64      0.00
    7   16    2      0.61      0.00
   -6   17    2     -1.39      0.00
   -5   17    2      0.66      0.00
   -4   17    2     -0.74      0.00
   -3   17    2     -0.05      0.00
   -2   17    2      1.40      0.00
   -1   17    2      0.42      0.00
    0   17    2     -2.48      0.00
    1   17    2      0.93      0.00
    2   17    2      0.83      0.00
    3   17    2     -0.84      0.00
    4   17    2      0.56      0.00
    5   17    2     -0.02      0.00
   -3   18    2     -1.90      0.00
   -2   18    2     -0.20      0.00
   -1   18    2      1.22      0.00
    0   18    2      1.82      0.00
    1   18    2     -1.99      0.00
    2   18    2     -0.50      0.00
    3   18    2     -0.08      0.00
  -14    1    3      1.58      0.00
  -13    1    3     -1.80      0.00
  -12    1    3      1.64      0.00
  -11    1    3     -2.25      0.00
  -10    1    3      0.92      0.00
   -9    1    3      1.70      0.00
   -8    1    3     -4.96      0.00
   -7    1    3     10.40      0.00
   -6    1    3    -10.74      0.00
   -5    1    3      2.33      0.00
   -4    1    3      9.52      0.00
   -3    1    3    -25.34      0.00
   -2    1    3     31.70      0.00
   -1    1    3    -12.21      0.00
    0    1    3     -8.55      0.00
    1    1    3      9.07      0.00
    2    1    3     -7.56      0.00
    3    1    3     11.05      0.00
    4    1    3    -10.22      0.00
    5    1    3      7.43      0.00
    6    1    3     -3.66      0.00
    7    1    3     -1.90      0.00
    8    1    3      4.68      0.00
    9    1    3     -4.76      0.00
   10    1    3      3.65      0.00
   11    1    3     -0.51      0.00
   12    1    3     -2.01      0.00
   13    1    3      1.58      0.00
  -14    2    3      0.70      0.00
  -13    2    3     -0.36      0.00
  -12    2    3      0.48      0.00
  -11    2    3      0.08      0.00
  -10    2    3     -2.10      0.00
   -9    2    3      4.31      0.00
   -8    2    3     -6.29      0.00
   -7    2    3      4.53      0.00
   -6    2    3      3.26      0.00
   -5    2    3    -10.53      0.00
   -4    2    3     12.36      0.00
   -3    2    3     -5.92      0.00
   -2    2    3     -9.25      0.00
   -1    2    3     15.92      0.00
    0    2    3     -4.43      0.00
    1    2    3     -5.12      0.00
    2    2    3      2.40      0.00
    3    2    3      1.67      0.00
    4    2    3     -2.87      0.00
    5    2    3      1.33      0.00
    6    2    3      2.60      0.00
    7    2    3     -4.13      0.00
    8    2    3      2.48      0.00
    9    2    3     -0.25      0.00
   10    2    3     -1.90      0.00
   11    2    3      2.61      0.00
   12    2    3     -1.16      0.00
   13    2    3     -0.45      0.00
  -14    3    3      1.07      0.00
  -13    3    3     -1.75      0.00
  -12    3    3      1.59      0.00
  -11    3    3     -0.68      0.00
  -10    3    3     -1.66      0.00
   -9    3    3      3.45      0.00
   -8    3    3     -2.77      0.00
   -7    3    3      1.40      0.00
   -6    3    3      0.39      0.00
   -5    3    3     -1.60      0.00
   -4    3    3      0.37      0.00
   -3    3    3     -2.88      0.00
   -2    3    3     10.25      0.00
   -1    3    3    -11.04      0.00
    0    3    3      4.15      0.00
    1    3    3      2.84      0.00
    2    3    3     -9.61      0.00
    3    3    3     12.90      0.00
    4    3    3     -8.28      0.00
    5    3    3      1.63      0.00
    6    3    3      2.01      0.00
    7    3    3     -3.59      0.00
    8    3    3      3.32      0.00
    9    3    3     -2.14      0.00
   10    3    3      1.47      0.00
   11    3    3     -0.72      0.00
   12    3    3     -0.08      0.00
   13    3    3      0.38      0.00
  -14    4    3      1.83      0.00
  -13    4    3     -1.03      0.00
  -12    4    3     -0.22      0.00
  -11    4    3      1.46      0.00
  -10    4    3     -2.86      0.00
   -9    4    3      3.58      0.00
   -8    4    3     -4.25      0.00
   -7    4    3      3.53      0.00
   -6    4    3      0.54      0.00
   -5    4    3     -4.25      0.00
   -4    4    3      6.43      0.00
   -3    4    3     -6.52      0.00
   -2    4    3     -0.84      0.00
   -1    4    3      7.82      0.00
    0    4    3     -4.54      0.00
    1    4    3      1.02      0.00
    2    4    3     -2.29      0.00
    3    4    3      1.14      0.00
    4    4    3      1.30      0.00
    5    4    3     -2.61      0.00
    6    4    3      3.90      0.00
    7    4    3     -3.42      0.00
    8    4    3      1.23      0.00
    9    4    3      0.88      0.00
   10    4    3     -2.31      0.00
   11    4    3      2.46      0.00
   12    4    3     -1.62      0.00
   13    4    3      0.70      0.00
  -13    5    3     -0.24      0.00
  -12    5    3      0.35      0.00
  -11    5    3     -0.09      0.00
  -10    5    3     -1.64      0.00
   -9    5    3      2.49      0.00
   -8    5    3      0.08      0.00
   -7    5    3     -4.13      0.00
   -6    5    3      6.59      0.00
   -5    5    3     -5.37      0.00
   -4    5    3     -0.49      0.00
   -3    5    3      6.12      0.00
   -2    5    3     -4.04      0.00
   -1    5    3     -2.81      0.00
    0    5    3      4.44      0.00
    1    5    3      0.39      0.00
    2    5    3     -5.65      0.00
    3    5    3      6.37      0.00
    4    5    3     -1.59      0.00
    5    5    3     -3.21      0.00
    6    5    3      3.83      0.00
    7    5    3     -2.60      0.00
    8    5    3      0.91      0.00
    9    5    3      0.58      0.00
   10    5    3     -0.15      0.00
   11    5    3     -0.68      0.00
   12    5    3      0.47      0.00
   13    5    3     -0.16      0.00
  -13    6    3     -1.29      0.00
  -12    6    3      0.35      0.00
  -11    6    3      0.84      0.00
  -10    6    3     -1.14      0.00
   -9    6    3     -0.25      0.00
   -8    6    3      1.26      0.00
   -7    6    3      0.02      0.00
   -6    6    3     -2.50      0.00
   -5    6    3      5.33      0.00
   -4    6    3     -5.28      0.00
   -3    6    3     -0.91      0.00
   -2    6    3      6.57      0.00
   -1    6    3     -5.26      0.00
    0    6    3      0.76      0.00
    1    6    3      2.73      0.00
    2    6    3     -2.57      0.00
    3    6    3     -2.14      0.00
    4    6    3      5.61      0.00
    5    6    3     -4.37      0.00
    6    6    3      1.84      0.00
    7    6    3     -0.05      0.00
    8    6    3     -1.09      0.00
    9    6    3      1.01      0.00
   10    6    3     -0.41      0.00
   11    6    3      0.53      0.00
   12    6    3     -0.98      0.00
   13    6    3      0.81      0.00
  -13    7    3      0.58      0.00
  -12    7    3     -0.71      0.00
  -11    7    3     -0.40      0.00
  -10    7    3      0.31      0.00
   -9    7    3      0.15      0.00
   -8    7    3      0.97      0.00
   -7    7    3     -1.94      0.00
   -6    7    3      2.69      0.00
   -5    7    3     -4.29      0.00
   -4    7    3      4.30      0.00
   -3    7    3     -1.16      0.00
   -2    7    3     -2.38      0.00
   -1    7    3      4.04      0.00
    0    7    3     -4.10      0.00
    1    7    3      2.74      0.00
    2    7    3     -0.79      0.00
    3    7    3     -0.90      0.00
    4    7    3      2.38      0.00
    5    7    3     -1.99      0.00
    6    7    3      0.22      0.00
    7    7    3      0.08      0.00
    8    7    3     -0.31      0.00
    9    7    3      1.13      0.00
   10    7    3     -0.62      0.00
   11    7    3     -0.12      0.00
   12    7    3      0.09      0.00
  -13    8    3     -0.87      0.00
  -12    8    3      1.90      0.00
  -11    8    3     -1.86      0.00
  -10    8    3      1.16      0.00
   -9    8    3     -1.89      0.00
   -8    8    3      2.16      0.00
   -7    8    3     -0.08      0.00
   -6    8    3     -2.64      0.00
   -5    8    3      5.86      0.00
   -4    8    3     -8.14      0.00
   -3    8    3      4.88      0.00
   -2    8    3      1.66      0.00
   -1    8    3     -4.97      0.00
    0    8    3      4.95      0.00
    1    8    3     -3.94      0.00
    2    8    3      3.35      0.00
    3    8    3     -4.26      0.00
    4    8    3      3.61      0.00
    5    8    3     -0.20      0.00
    6    8    3     -1.71      0.00
    7    8    3      1.92      0.00
    8    8    3     -2.09      0.00
    9    8    3      0.33      0.00
   10    8    3      1.86      0.00
   11    8    3     -1.53      0.00
   12    8    3      0.33      0.00
  -12    9    3     -0.17      0.00
  -11    9    3     -0.17      0.00
  -10    9    3     -0.01      0.00
   -9    9    3      0.56      0.00
   -8    9    3     -0.34      0.00
   -7    9    3      1.04      0.00
   -6    9    3     -1.60      0.00
   -5    9    3     -0.67      0.00
   -4    9    3      3.81      0.00
   -3    9    3     -4.64      0.00
   -2    9    3      2.22      0.00
   -1    9    3      1.98      0.00
    0    9    3     -4.29      0.00
    1    9    3      3.18      0.00
    2    9    3     -1.22      0.00
    3    9    3      0.43      0.00
    4    9    3     -0.56      0.00
    5    9    3      1.28      0.00
    6    9    3     -1.37      0.00
    7    9    3     -0.06      0.00
    8    9    3      1.45      0.00
    9    9    3     -1.44      0.00
   10    9    3      0.51      0.00
   11    9    3      0.05      0.00
  -12   10    3      1.90      0.00
  -11   10    3     -2.68      0.00
  -10   10    3      1.42      0.00
   -9   10    3     -1.14      0.00
   -8   10    3      0.70      0.00
   -7   10    3      1.49      0.00
   -6   10    3     -2.62      0.00
   -5   10    3      3.75      0.00
   -4   10    3     -6.10      0.00
   -3   10    3      5.84      0.00
   -2   10    3     -2.81      0.00
   -1   10    3     -0.49      0.00
    0   10    3      4.16      0.00
    1   10    3     -6.20      0.00
    2   10    3      4.95      0.00
    3   10    3     -2.82      0.00
    4   10    3      0.20      0.00
    5   10    3      2.59      0.00
    6   10    3     -2.93      0.00
    7   10    3      2.46      0.00
    8   10    3     -2.87      0.00
    9   10    3      1.40      0.00
   10   10    3      1.37      0.00
   11   10    3     -2.15      0.00
  -11   11    3      0.20      0.00
  -10   11    3     -1.47      0.00
   -9   11    3      1.65      0.00
   -8   11    3     -1.00      0.00
   -7   11    3      1.40      0.00
   -6   11    3     -2.02      0.00
   -5   11    3      1.01      0.00
   -4   11    3      1.17      0.00
   -3   11    3     -3.51      0.00
   -2   11    3      4.28      0.00
   -1   11    3     -2.38      0.00
    0   11    3      0.05      0.00
    1   11    3      1.11      0.00
    2   11    3     -2.32      0.00
    3   11    3      3.63      0.00
    4   11    3     -3.68      0.00
    5   11    3      2.29      0.00
    6   11    3     -0.45      0.00
    7   11    3     -1.51      0.00
    8   11    3      3.81      0.00
    9   11    3     -4.91      0.00
   10   11    3      3.23      0.00
   11   11    3     -0.86      0.00
  -11   12    3     -1.34      0.00
  -10   12    3      0.44      0.00
   -9   12    3     -0.98      0.00
   -8   12    3      0.98      0.00
   -7   12    3      1.27      0.00
   -6   12    3     -2.49      0.00
   -5   12    3      3.26      0.00
   -4   12    3     -4.24      0.00
   -3   12    3      3.27      0.00
   -2   12    3     -2.17      0.00
   -1   12    3      1.03      0.00
    0   12    3      2.59      0.00
    1   12    3     -4.66      0.00
    2   12    3      2.41      0.00
    3   12    3     -0.33      0.00
    4   12    3     -0.22      0.00
    5   12    3      1.04      0.00
    6   12    3     -1.36      0.00
    7   12    3      1.58      0.00
    8   12    3     -2.44      0.00
    9   12    3      2.44      0.00
   10   12    3     -1.01      0.00
  -10   13    3     -1.14      0.00
   -9   13    3      0.43      0.00
   -8   13    3     -0.22      0.00
   -7   13    3      1.49      0.00
   -6   13    3     -2.29      0.00
   -5   13    3      1.51      0.00
   -4   13    3      0.37      0.00
   -3   13    3     -2.88      0.00
   -2   13    3      4.82      0.00
   -1   13    3     -4.46      0.00
    0   13    3      2.16      0.00
    1   13    3      0.44      0.00
    2   13    3     -2.55      0.00
    3   13    3      3.68      0.00
    4   13    3     -3.58      0.00
    5   13    3      2.60      0.00
    6   13    3     -1.29      0.00
    7   13    3     -0.58      0.00
    8   13    3      3.21      0.00
    9   13    3     -4.81      0.00
   -9   14    3     -1.17      0.00
   -8   14    3      0.61      0.00
   -7   14    3      1.46      0.00
   -6   14    3     -2.03      0.00
   -5   14    3      2.56      0.00
   -4   14    3     -2.34      0.00
   -3   14    3      0.03      0.00
   -2   14    3     -0.48      0.00
   -1   14    3      1.93      0.00
    0   14    3      1.39      0.00
    1   14    3     -3.60      0.00
    2   14    3      0.59      0.00
    3   14    3      1.00      0.00
    4   14    3      0.12      0.00
    5   14    3     -0.47      0.00
    6   14    3      0.77      0.00
    7   14    3     -1.06      0.00
    8   14    3      0.05      0.00
   -8   15    3     -0.05      0.00
   -7   15    3      1.55      0.00
   -6   15    3     -2.31      0.00
   -5   15    3      1.46      0.00
   -4   15    3      0.74      0.00
   -3   15    3     -1.98      0.00
   -2   15    3      2.88      0.00
   -1   15    3     -4.51      0.00
    0   15    3      3.12      0.00
    1   15    3      1.39      0.00
    2   15    3     -3.22      0.00
    3   15    3      2.00      0.00
    4   15    3     -1.63      0.00
    5   15    3      1.86      0.00
    6   15    3     -1.45      0.00
    7   15    3      0.71      0.00
   -7   16    3      2.10      0.00
   -6   16    3     -1.51      0.00
   -5   16    3      1.35      0.00
   -4   16    3     -1.00      0.00
   -3   16    3     -1.47      0.00
   -2   16    3      1.12      0.00
   -1   16    3      1.88      0.00
    0   16    3     -0.83      0.00
    1   16    3     -1.51      0.00
    2   16    3      0.44      0.00
    3   16    3      0.51      0.00
    4   16    3     -0.04      0.00
    5   16    3     -0.21      0.00
    6   16    3      1.10      0.00
   -6   17    3     -0.74      0.00
   -5   17    3      0.41      0.00
   -4   17    3      1.51      0.00
   -3   17    3     -1.32      0.00
   -2   17    3     -0.04      0.00
   -1   17    3     -2.04      0.00
    0   17    3      2.60      0.00
    1   17    3      1.26      0.00
    2   17    3     -2.15      0.00
    3   17    3     -0.25      0.00
    4   17    3      0.45      0.00
    5   17    3     -0.07      0.00
   -3   18    3     -0.49      0.00
   -2   18    3      1.19      0.00
   -1   18    3      0.65      0.00
    0   18    3     -1.52      0.00
    1   18    3     -0.45      0.00
    2   18    3      1.74      0.00
    3   18    3     -0.98      0.00
  -14    0    4      1.31      0.00
  -13    0    4     -1.92      0.00
  -12    0    4      3.44      0.00
  -11    0    4     -3.04      0.00
  -10    0    4     -0.91      0.00
   -9    0    4      5.19      0.00
   -8    0    4    -10.41      0.00
   -7    0    4     13.33      0.00
   -6    0    4     -6.90      0.00
   -5    0    4     -3.56      0.00
   -4    0    4     14.14      0.00
   -3    0    4    -22.15      0.00
   -2    0    4     12.93      0.00
   -1    0    4      3.61      0.00
    0    0    4     -2.07      0.00
    1    0    4     -4.06      0.00
    2    0    4     -3.10      0.00
    3    0    4     10.89      0.00
    4    0    4    -11.93      0.00
    5    0    4      8.68      0.00
    6    0    4     -1.35      0.00
    7    0    4     -4.13      0.00
    8    0    4      4.67      0.00
    9    0    4     -3.47      0.00
   10    0    4      0.70      0.00
   11    0    4      2.39      0.00
   12    0    4     -2.28      0.00
   13    0    4      0.31      0.00
  -14    1    4      0.72      0.00
  -13    1    4     -0.86      0.00
  -12    1    4      0.54      0.00
  -11    1    4      1.00      0.00
  -10    1    4     -2.55      0.00
   -9    1    4      3.34      0.00
   -8    1    4     -2.69      0.00
   -7    1    4     -0.97      0.00
   -6    1    4      5.02      0.00
   -5    1    4     -5.65      0.00
   -4    1    4      2.95      0.00
   -3    1    4      2.52      0.00
   -2    1    4     -5.31      0.00
   -1    1    4     -0.67      0.00
    0    1    4      6.42      0.00
    1    1    4     -2.76      0.00
    2    1    4     -3.14      0.00
    3    1    4      4.56      0.00
    4    1    4     -2.57      0.00
    5    1    4     -1.14      0.00
    6    1    4      3.30      0.00
    7    1    4     -2.39      0.00
    8    1    4      0.66      0.00
    9    1    4      0.75      0.00
   10    1    4     -1.48      0.00
   11    1    4      0.74      0.00
   12    1    4      0.56      0.00
   13    1    4     -0.78      0.00
  -14    2    4      1.44      0.00
  -13    2    4     -1.73      0.00
  -12    2    4      2.05      0.00
  -11    2    4     -0.93      0.00
  -10    2    4     -2.12      0.00
   -9    2    4      4.27      0.00
   -8    2    4     -6.17      0.00
   -7    2    4      7.45      0.00
   -6    2    4     -4.54      0.00
   -5    2    4      0.30      0.00
   -4    2    4      5.31      0.00
   -3    2    4    -13.91      0.00
   -2    2    4     13.84      0.00
   -1    2    4     -4.12      0.00
    0    2    4     -0.23      0.00
    1    2    4      1.88      0.00
    2    2    4     -7.91      0.00
    3    2    4     10.15      0.00
    4    2    4     -6.87      0.00
    5    2    4      3.09      0.00
    6    2    4      0.90      0.00
    7    2    4     -3.26      0.00
    8    2    4      2.86      0.00
    9    2    4     -1.94      0.00
   10    2    4      0.64      0.00
   11    2    4      0.96      0.00
   12    2    4     -1.26      0.00
   13    2    4      0.68      0.00
  -14    3    4      1.48      0.00
  -13    3    4     -1.03      0.00
  -12    3    4      0.08      0.00
  -11    3    4      2.40      0.00
  -10    3    4     -4.78      0.00
   -9    3    4      5.94      0.00
   -8    3    4     -5.21      0.00
   -7    3    4     -0.01      0.00
   -6    3    4      6.38      0.00
   -5    3    4     -8.49      0.00
   -4    3    4      6.99      0.00
   -3    3    4     -0.52      0.00
   -2    3    4     -5.61      0.00
   -1    3    4      0.20      0.00
    0    3    4      6.42      0.00
    1    3    4     -1.05      0.00
    2    3    4     -5.82      0.00
    3    3    4      5.86      0.00
    4    3    4     -2.35      0.00
    5    3    4     -2.60      0.00
    6    3    4      5.11      0.00
    7    3    4     -3.27      0.00
    8    3    4      0.45      0.00
    9    3    4      1.71      0.00
   10    3    4     -2.65      0.00
   11    3    4      1.66      0.00
   12    3    4      0.02      0.00
   13    3    4     -0.72      0.00
  -14    4    4      0.87      0.00
  -13    4    4     -0.79      0.00
  -12    4    4      0.18      0.00
  -11    4    4      1.46      0.00
  -10    4    4     -3.21      0.00
   -9    4    4      2.31      0.00
   -8    4    4      0.53      0.00
   -7    4    4     -1.88      0.00
   -6    4    4      0.78      0.00
   -5    4    4      2.63      0.00
   -4    4    4     -4.89      0.00
   -3    4    4     -0.50      0.00
   -2    4    4      9.37      0.00
   -1    4    4     -9.75      0.00
    0    4    4      1.48      0.00
    1    4    4      6.75      0.00
    2    4    4     -9.54      0.00
    3    4    4      5.13      0.00
    4    4    4      1.89      0.00
    5    4    4     -4.47      0.00
    6    4    4      3.23      0.00
    7    4    4     -1.53      0.00
    8    4    4     -0.05      0.00
    9    4    4      0.32      0.00
   10    4    4      0.55      0.00
   11    4    4     -0.72      0.00
   12    4    4      0.12      0.00
   13    4    4      0.48      0.00
  -14    5    4      1.23      0.00
  -13    5    4     -0.29      0.00
  -12    5    4     -0.83      0.00
  -11    5    4      1.95      0.00
  -10    5    4     -2.35      0.00
   -9    5    4      2.21      0.00
   -8    5    4     -2.83      0.00
   -7    5    4      2.83      0.00
   -6    5    4     -1.47      0.00
   -5    5    4     -0.66      0.00
   -4    5    4      5.30      0.00
   -3    5    4     -8.43      0.00
   -2    5    4      4.70      0.00
   -1    5    4      0.23      0.00
    0    5    4     -2.58      0.00
    1    5    4      4.17      0.00
    2    5    4     -2.49      0.00
    3    5    4     -1.28      0.00
    4    5    4      2.32      0.00
    5    5    4     -1.61      0.00
    6    5    4      0.90      0.00
    7    5    4      0.04      0.00
    8    5    4     -0.70      0.00
    9    5    4      0.90      0.00
   10    5    4     -1.04      0.00
   11    5    4      1.26      0.00
   12    5    4     -1.06      0.00
   13    5    4      0.14      0.00
  -13    6    4      0.31      0.00
  -12    6    4     -0.01      0.00
  -11    6    4      0.59      0.00
  -10    6    4     -2.01      0.00
   -9    6    4      1.08      0.00
   -8    6    4      1.80      0.00
   -7    6    4     -3.55      0.00
   -6    6    4      3.82      0.00
   -5    6    4     -2.20      0.00
   -4    6    4     -1.60      0.00
   -3    6    4      3.40      0.00
   -2    6    4     -0.87      0.00
   -1    6    4     -0.91      0.00
    0    6    4     -0.69      0.00
    1    6    4      2.17      0.00
    2    6    4     -1.52      0.00
    3    6    4     -1.41      0.00
    4    6    4      4.27      0.00
    5    6    4     -3.57      0.00
    6    6    4      1.59      0.00
    7    6    4     -0.47      0.00
    8    6    4     -0.94      0.00
    9    6    4      1.06      0.00
   10    6    4      0.23      0.00
   11    6    4     -0.57      0.00
   12    6    4      0.43      0.00
  -13    7    4     -0.80      0.00
  -12    7    4      0.53      0.00
  -11    7    4      0.07      0.00
  -10    7    4      0.41      0.00
   -9    7    4     -1.45      0.00
   -8    7    4      0.11      0.00
   -7    7    4      2.90      0.00
   -6    7    4     -4.98      0.00
   -5    7    4      5.31      0.00
   -4    7    4     -1.14      0.00
   -3    7    4     -6.10      0.00
   -2    7    4      8.00      0.00
   -1    7    4     -3.70      0.00
    0    7    4     -0.05      0.00
    1    7    4      0.57      0.00
    2    7    4      1.72      0.00
    3    7    4     -3.81      0.00
    4    7    4      1.85      0.00
    5    7    4      1.35      0.00
    6    7    4     -2.13      0.00
    7    7    4      1.85      0.00
    8    7    4     -0.77      0.00
    9    7    4     -1.13      0.00
   10    7    4      1.39      0.00
   11    7    4     -0.21      0.00
   12    7    4     -0.14      0.00
  -13    8    4      0.19      0.00
  -12    8    4      0.24      0.00
  -11    8    4     -0.44      0.00
  -10    8    4     -0.93      0.00
   -9    8    4      1.24      0.00
   -8    8    4     -0.58      0.00
   -7    8    4      0.21      0.00
   -6    8    4      1.80      0.00
   -5    8    4     -4.34      0.00
   -4    8    4      3.71      0.00
   -3    8    4     -0.02      0.00
   -2    8    4     -3.83      0.00
   -1    8    4      5.22      0.00
    0    8    4     -3.13      0.00
    1    8    4     -0.15      0.00
    2    8    4      1.62      0.00
    3    8    4     -1.61      0.00
    4    8    4      0.96      0.00
    5    8    4      0.19      0.00
    6    8    4     -0.03      0.00
    7    8    4     -0.90      0.00
    8    8    4      0.38      0.00
    9    8    4      0.38      0.00
   10    8    4     -0.20      0.00
   11    8    4     -0.22      0.00
   12    8    4      0.42      0.00
  -12    9    4      1.86      0.00
  -11    9    4     -0.90      0.00
  -10    9    4      0.37      0.00
   -9    9    4     -1.28      0.00
   -8    9    4      0.14      0.00
   -7    9    4      2.06      0.00
   -6    9    4     -3.44      0.00
   -5    9    4      5.53      0.00
   -4    9    4     -5.48      0.00
   -3    9    4      0.94      0.00
   -2    9    4      3.32      0.00
   -1    9    4     -5.08      0.00
    0    9    4      5.80      0.00
    1    9    4     -4.59      0.00
    2    9    4      2.41      0.00
    3    9    4     -0.61      0.00
    4    9    4     -2.05      0.00
    5    9    4      3.45      0.00
    6    9    4     -2.59      0.00
    7    9    4      2.44      0.00
    8    9    4     -1.56      0.00
    9    9    4     -1.38      0.00
   10    9    4      2.61      0.00
   11    9    4     -1.40      0.00
  -12   10    4      0.25      0.00
  -11   10    4      0.35      0.00
  -10   10    4     -1.27      0.00
   -9   10    4      1.29      0.00
   -8   10    4     -1.40      0.00
   -7   10    4      2.13      0.00
   -6   10    4     -1.11      0.00
   -5   10    4     -1.46      0.00
   -4   10    4      3.27      0.00
   -3   10    4     -3.10      0.00
   -2   10    4      0.71      0.00
   -1   10    4      1.69      0.00
    0   10    4     -1.98      0.00
    1   10    4      1.54      0.00
    2   10    4     -1.89      0.00
    3   10    4      2.05      0.00
    4   10    4     -1.27      0.00
    5   10    4      0.21      0.00
    6   10    4      0.87      0.00
    7   10    4     -2.31      0.00
    8   10    4      3.21      0.00
    9   10    4     -2.21      0.00
   10   10    4      0.57      0.00
   11   10    4     -0.18      0.00
  -11   11    4     -0.33      0.00
  -10   11    4     -0.33      0.00
   -9   11    4     -0.67      0.00
   -8   11    4     -0.44      0.00
   -7   11    4      2.16      0.00
   -6   11    4     -2.59      0.00
   -5   11    4      4.09      0.00
   -4   11    4     -4.52      0.00
   -3   11    4      2.03      0.00
   -2   11    4      0.59      0.00
   -1   11    4     -3.27      0.00
    0   11    4      5.58      0.00
    1   11    4     -4.21      0.00
    2   11    4      0.88      0.00
    3   11    4      1.05      0.00
    4   11    4     -2.52      0.00
    5   11    4      3.31      0.00
    6   11    4     -2.95      0.00
    7   11    4      3.24      0.00
    8   11    4     -3.06      0.00
    9   11    4      0.73      0.00
   10   11    4      1.43      0.00
  -11   12    4      0.92      0.00
  -10   12    4     -0.92      0.00
   -9   12    4      0.15      0.00
   -8   12    4     -0.87      0.00
   -7   12    4      2.16      0.00
   -6   12    4     -1.90      0.00
   -5   12    4      0.24      0.00
   -4   12    4      2.21      0.00
   -3   12    4     -4.39      0.00
   -2   12    4      4.25      0.00
   -1   12    4     -2.17      0.00
    0   12    4      0.18      0.00
    1   12    4      1.79      0.00
    2   12    4     -3.66      0.00
    3   12    4      3.85      0.00
    4   12    4     -2.23      0.00
    5   12    4      0.44      0.00
    6   12    4      0.88      0.00
    7   12    4     -2.93      0.00
    8   12    4      5.12      0.00
    9   12    4     -4.75      0.00
   10   12    4      2.08      0.00
  -10   13    4      0.16      0.00
   -9   13    4     -1.03      0.00
   -8   13    4     -0.53      0.00
   -7   13    4      1.92      0.00
   -6   13    4     -1.98      0.00
   -5   13    4      2.50      0.00
   -4   13    4     -1.35      0.00
   -3   13    4     -0.48      0.00
   -2   13    4      0.51      0.00
   -1   13    4     -2.25      0.00
    0   13    4      4.65      0.00
    1   13    4     -2.39      0.00
    2   13    4     -0.91      0.00
    3   13    4      0.81      0.00
    4   13    4     -0.52      0.00
    5   13    4      1.24      0.00
    6   13    4     -1.21      0.00
    7   13    4      1.42      0.00
    8   13    4     -2.21      0.00
    9   13    4      2.02      0.00
   -9   14    4     -0.68      0.00
   -8   14    4     -0.89      0.00
   -7   14    4      2.24      0.00
   -6   14    4     -1.91      0.00
   -5   14    4      0.17      0.00
   -4   14    4      1.94      0.00
   -3   14    4     -3.80      0.00
   -2   14    4      4.91      0.00
   -1   14    4     -3.63      0.00
    0   14    4      0.03      0.00
    1   14    4      2.83      0.00
    2   14    4     -3.38      0.00
    3   14    4      3.10      0.00
    4   14    4     -2.75      0.00
    5   14    4      1.83      0.00
    6   14    4     -0.44      0.00
    7   14    4     -1.46      0.00
    8   14    4      3.29      0.00
   -8   15    4     -1.31      0.00
   -7   15    4      1.56      0.00
   -6   15    4     -0.98      0.00
   -5   15    4      1.25      0.00
   -4   15    4      0.60      0.00
   -3   15    4     -2.34      0.00
   -2   15    4      0.41      0.00
   -1   15    4     -0.37      0.00
    0   15    4      2.72      0.00
    1   15    4     -1.06      0.00
    2   15    4     -1.64      0.00
    3   15    4      0.81      0.00
    4   15    4      0.34      0.00
    5   15    4     -0.76      0.00
    6   15    4      1.69      0.00
    7   15    4     -1.46      0.00
   -7   16    4      1.41      0.00
   -6   16    4     -1.45      0.00
   -5   16    4     -0.07      0.00
   -4   16    4      1.46      0.00
   -3   16    4     -1.36      0.00
   -2   16    4      2.66      0.00
   -1   16    4     -3.16      0.00
    0   16    4     -0.87      0.00
    1   16    4      3.72      0.00
    2   16    4     -1.71      0.00
    3   16    4      0.29      0.00
    4   16    4     -0.87      0.00
    5   16    4      0.57      0.00
    6   16    4     -0.33      0.00
   -5   17    4      0.70      0.00
   -4   17    4      0.44      0.00
   -3   17    4     -2.43      0.00
   -2   17    4      0.76      0.00
   -1   17    4      1.42      0.00
    0   17    4      0.01      0.00
    1   17    4     -1.10      0.00
    2   17    4      0.02      0.00
    3   17    4      0.49      0.00
    4   17    4     -0.11      0.00
   -3   18    4      0.37      0.00
   -2   18    4     -0.54      0.00
   -1   18    4     -1.11      0.00
    0   18    4     -0.32      0.00
    1   18    4      1.86      0.00
    2   18    4      0.15      0.00
  -14    1    5      1.53      0.00
  -13    1    5     -2.78      0.00
  -12    1    5      2.99      0.00
  -11    1    5      0.66      0.00
  -10    1    5     -5.24      0.00
   -9    1    5      8.37      0.00
   -8    1    5    -10.66      0.00
   -7    1    5      7.56      0.00
   -6    1    5      0.13      0.00
   -5    1    5     -6.15      0.00
   -4    1    5     12.31      0.00
   -3    1    5    -14.02      0.00
   -2    1    5      7.05      0.00
   -1    1    5     -5.74      0.00
    0    1    5      9.45      0.00
    1    1    5     -1.47      0.00
    2    1    5    -11.20      0.00
    3    1    5     15.10      0.00
    4    1    5    -11.91      0.00
    5    1    5      4.57      0.00
    6    1    5      2.38      0.00
    7    1    5     -4.08      0.00
    8    1    5      2.99      0.00
    9    1    5     -1.29      0.00
   10    1    5     -1.09      0.00
   11    1    5      1.78      0.00
   12    1    5     -0.34      0.00
   13    1    5     -0.40      0.00
  -14    2    5      1.58      0.00
  -13    2    5     -1.02      0.00
  -12    2    5     -1.29      0.00
  -11    2    5      4.03      0.00
  -10    2    5     -4.87      0.00
   -9    2    5      3.90      0.00
   -8    2    5     -0.10      0.00
   -7    2    5     -5.31      0.00
   -6    2    5      6.74      0.00
   -5    2    5     -4.29      0.00
   -4    2    5      0.80      0.00
   -3    2    5      1.45      0.00
   -2    2    5      3.66      0.00
   -1    2    5    -10.13      0.00
    0    2    5      3.76      0.00
    1    2    5      8.17      0.00
    2    2    5    -10.99      0.00
    3    2    5      5.86      0.00
    4    2    5      1.57      0.00
    5    2    5     -6.41      0.00
    6    2    5      5.37      0.00
    7    2    5     -1.88      0.00
    8    2    5     -0.67      0.00
    9    2    5      2.04      0.00
   10    2    5     -1.49      0.00
   11    2    5     -0.41      0.00
   12    2    5      1.20      0.00
   13    2    5     -0.33      0.00
  -14    3    5      0.67      0.00
  -13    3    5     -0.39      0.00
  -12    3    5     -0.48      0.00
  -11    3    5      2.63      0.00
  -10    3    5     -4.13      0.00
   -9    3    5      3.70      0.00
   -8    3    5     -3.65      0.00
   -7    3    5      3.77      0.00
   -6    3    5     -2.90      0.00
   -5    3    5      1.12      0.00
   -4    3    5      5.43      0.00
   -3    3    5    -14.12      0.00
   -2    3    5     13.72      0.00
   -1    3    5     -5.08      0.00
    0    3    5     -2.96      0.00
    1    3    5      8.38      0.00
    2    3    5     -9.13      0.00
    3    3    5      4.65      0.00
    4    3    5     -0.82      0.00
    5    3    5     -0.27      0.00
    6    3    5      0.66      0.00
    7    3    5     -0.36      0.00
    8    3    5      0.06      0.00
    9    3    5     -0.55      0.00
   10    3    5      0.63      0.00
   11    3    5      0.06      0.00
   12    3    5     -0.68      0.00
   13    3    5      0.75      0.00
  -14    4    5      0.78      0.00
  -13    4    5     -0.01      0.00
  -12    4    5     -1.63      0.00
  -11    4    5      3.64      0.00
  -10    4    5     -4.38      0.00
   -9    4    5      4.14      0.00
   -8    4    5     -2.21      0.00
   -7    4    5     -1.95      0.00
   -6    4    5      5.02      0.00
   -5    4    5     -6.75      0.00
   -4    4    5      7.41      0.00
   -3    4    5     -4.02      0.00
   -2    4    5      1.08      0.00
   -1    4    5     -1.07      0.00
    0    4    5     -2.86      0.00
    1    4    5      7.77      0.00
    2    4    5     -6.52      0.00
    3    4    5      2.35      0.00
    4    4    5      1.40      0.00
    5    4    5     -3.64      0.00
    6    4    5      2.99      0.00
    7    4    5     -1.13      0.00
    8    4    5     -0.27      0.00
    9    4    5      1.15      0.00
   10    4    5     -1.29      0.00
   11    4    5      0.71      0.00
   12    4    5      0.20      0.00
  -14    5    5     -0.18      0.00
  -13    5    5      0.67      0.00
  -12    5    5     -1.57      0.00
  -11    5    5      3.14      0.00
  -10    5    5     -3.21      0.00
   -9    5    5      0.53      0.00
   -8    5    5      1.58      0.00
   -7    5    5     -1.19      0.00
   -6    5    5     -0.26      0.00
   -5    5    5      1.84      0.00
   -4    5    5     -0.40      0.00
   -3    5    5     -5.75      0.00
   -2    5    5      8.56      0.00
   -1    5    5     -2.42      0.00
    0    5    5     -4.98      0.00
    1    5    5      6.51      0.00
    2    5    5     -2.70      0.00
    3    5    5     -2.92      0.00
    4    5    5      4.72      0.00
    5    5    5     -2.14      0.00
    6    5    5     -0.07      0.00
    7    5    5      1.17      0.00
    8    5    5     -1.39      0.00
    9    5    5     -0.08      0.00
   10    5    5      1.14      0.00
   11    5    5     -0.76      0.00
   12    5    5      0.16      0.00
  -13    6    5      0.20      0.00
  -12    6    5     -0.63      0.00
  -11    6    5      0.87      0.00
  -10    6    5     -0.47      0.00
   -9    6    5      0.88      0.00
   -8    6    5     -2.49      0.00
   -7    6    5      2.46      0.00
   -6    6    5     -0.25      0.00
   -5    6    5     -3.81      0.00
   -4    6    5      8.93      0.00
   -3    6    5     -8.45      0.00
   -2    6    5      0.87      0.00
   -1    6    5      5.13      0.00
    0    6    5     -5.58      0.00
    1    6    5      2.64      0.00
    2    6    5      1.10      0.00
    3    6    5     -1.70      0.00
    4    6    5     -0.56      0.00
    5    6    5      1.52      0.00
    6    6    5     -0.76      0.00
    7    6    5     -0.20      0.00
    8    6    5      1.16      0.00
    9    6    5     -1.31      0.00
   10    6    5      0.18      0.00
   11    6    5      0.60      0.00
   12    6    5      0.08      0.00
  -13    7    5      0.26      0.00
  -12    7    5     -0.24      0.00
  -11    7    5      1.86      0.00
  -10    7    5     -2.84      0.00
   -9    7    5      1.01      0.00
   -8    7    5      1.01      0.00
   -7    7    5     -2.57      0.00
   -6    7    5      4.08      0.00
   -5    7    5     -2.94      0.00
   -4    7    5     -0.57      0.00
   -3    7    5      2.55      0.00
   -2    7    5     -2.30      0.00
   -1    7    5      1.35      0.00
    0    7    5      0.18      0.00
    1    7    5     -1.31      0.00
    2    7    5      1.64      0.00
    3    7    5     -2.15      0.00
    4    7    5      1.60      0.00
    5    7    5     -0.47      0.00
    6    7    5      0.58      0.00
    7    7    5     -0.06      0.00
    8    7    5     -0.93      0.00
    9    7    5      0.35      0.00
   10    7    5      0.46      0.00
   11    7    5     -0.67      0.00
   12    7    5      0.77      0.00
  -13    8    5     -0.82      0.00
  -12    8    5      0.57      0.00
  -11    8    5     -0.14      0.00
  -10    8    5      1.39      0.00
   -9    8    5     -1.66      0.00
   -8    8    5     -0.61      0.00
   -7    8    5      2.10      0.00
   -6    8    5     -2.60      0.00
   -5    8    5      2.16      0.00
   -4    8    5      1.83      0.00
   -3    8    5     -5.26      0.00
   -2    8    5      3.49      0.00
   -1    8    5     -0.87      0.00
    0    8    5      0.26      0.00
    1    8    5     -0.10      0.00
    2    8    5      0.31      0.00
    3    8    5      0.65      0.00
    4    8    5     -2.64      0.00
    5    8    5      2.41      0.00
    6    8    5     -1.22      0.00
    7    8    5      0.50      0.00
    8    8    5      1.48      0.00
    9    8    5     -2.73      0.00
   10    8    5      1.56      0.00
   11    8    5     -0.56      0.00
  -12    9    5      0.08      0.00
  -11    9    5      1.08      0.00
  -10    9    5     -2.10      0.00
   -9    9    5      1.60      0.00
   -8    9    5     -1.19      0.00
   -7    9    5      0.00      0.00
   -6    9    5      2.52      0.00
   -5    9    5     -3.49      0.00
   -4    9    5      1.77      0.00
   -3    9    5      1.22      0.00
   -2    9    5     -3.20      0.00
   -1    9    5      2.31      0.00
    0    9    5      0.00      0.00
    1    9    5     -0.74      0.00
    2    9    5      0.06      0.00
    3    9    5      0.18      0.00
    4    9    5      0.00      0.00
    5    9    5     -0.34      0.00
    6    9    5      1.14      0.00
    7    9    5     -1.41      0.00
    8    9    5      0.55      0.00
    9    9    5      0.16      0.00
   10    9    5      0.20      0.00
   11    9    5     -0.59      0.00
  -12   10    5      0.66      0.00
  -11   10    5      0.49      0.00
  -10   10    5      0.80      0.00
   -9   10    5     -1.58      0.00
   -8   10    5     -0.24      0.00
   -7   10    5      1.28      0.00
   -6   10    5     -2.58      0.00
   -5   10    5      4.35      0.00
   -4   10    5     -2.49      0.00
   -3   10    5     -1.13      0.00
   -2   10    5      2.88      0.00
   -1   10    5     -3.99      0.00
    0   10    5      3.50      0.00
    1   10    5     -0.29      0.00
    2   10    5     -2.20      0.00
    3   10    5      3.20      0.00
    4   10    5     -3.68      0.00
    5   10    5      2.80      0.00
    6   10    5     -2.22      0.00
    7   10    5      2.24      0.00
    8   10    5     -0.16      0.00
    9   10    5     -2.30      0.00
   10   10    5      2.03      0.00
   11   10    5     -0.44      0.00
  -11   11    5      0.90      0.00
  -10   11    5     -0.59      0.00
   -9   11    5      0.70      0.00
   -8   11    5     -1.89      0.00
   -7   11    5      2.09      0.00
   -6   11    5     -0.62      0.00
   -5   11    5     -1.41      0.00
   -4   11    5      3.15      0.00
   -3   11    5     -3.15      0.00
   -2   11    5      1.45      0.00
   -1   11    5     -0.12      0.00
    0   11    5     -0.89      0.00
    1   11    5      2.35      0.00
    2   11    5     -2.72      0.00
    3   11    5      1.13      0.00
    4   11    5      0.62      0.00
    5   11    5     -1.08      0.00
    6   11    5      1.60      0.00
    7   11    5     -3.13      0.00
    8   11    5      3.43      0.00
    9   11    5     -1.67      0.00
   10   11    5      0.33      0.00
  -11   12    5      0.55      0.00
  -10   12    5      0.70      0.00
   -9   12    5     -0.83      0.00
   -8   12    5     -0.93      0.00
   -7   12    5      1.25      0.00
   -6   12    5     -1.58      0.00
   -5   12    5      2.05      0.00
   -4   12    5     -0.30      0.00
   -3   12    5     -1.29      0.00
   -2   12    5      2.00      0.00
   -1   12    5     -3.55      0.00
    0   12    5      2.98      0.00
    1   12    5      0.35      0.00
    2   12    5     -1.94      0.00
    3   12    5      1.96      0.00
    4   12    5     -2.87      0.00
    5   12    5      3.17      0.00
    6   12    5     -2.63      0.00
    7   12    5      2.50      0.00
    8   12    5     -1.53      0.00
    9   12    5     -0.51      0.00
  -10   13    5      0.69      0.00
   -9   13    5      0.10      0.00
   -8   13    5     -1.88      0.00
   -7   13    5      2.13      0.00
   -6   13    5     -0.89      0.00
   -5   13    5     -1.01      0.00
   -4   13    5      3.20      0.00
   -3   13    5     -4.51      0.00
   -2   13    5      3.76      0.00
   -1   13    5     -1.53      0.00
    0   13    5     -1.04      0.00
    1   13    5      3.11      0.00
    2   13    5     -3.64      0.00
    3   13    5      2.55      0.00
    4   13    5     -1.01      0.00
    5   13    5     -0.19      0.00
    6   13    5      1.69      0.00
    7   13    5     -3.83      0.00
    8   13    5      4.64      0.00
    9   13    5     -2.90      0.00
   -9   14    5     -0.12      0.00
   -8   14    5     -0.98      0.00
   -7   14    5      0.36      0.00
   -6   14    5     -0.40      0.00
   -5   14    5     -0.02      0.00
   -4   14    5      2.28      0.00
   -3   14    5     -2.40      0.00
   -2   14    5      1.63      0.00
   -1   14    5     -3.01      0.00
    0   14    5      2.02      0.00
    1   14    5      1.48      0.00
    2   14    5     -1.63      0.00
    3   14    5      0.05      0.00
    4   14    5     -0.36      0.00
    5   14    5      0.38      0.00
    6   14    5      0.26      0.00
    7   14    5      0.39      0.00
    8   14    5     -1.23      0.00
   -8   15    5     -1.50      0.00
   -7   15    5      1.70      0.00
   -6   15    5     -0.77      0.00
   -5   15    5     -0.78      0.00
   -4   15    5      1.77      0.00
   -3   15    5     -2.99      0.00
   -2   15    5      3.51      0.00
   -1   15    5     -0.57      0.00
    0   15    5     -2.98      0.00
    1   15    5      3.00      0.00
    2   15    5     -1.85      0.00
    3   15    5      2.09      0.00
    4   15    5     -1.76      0.00
    5   15    5      0.48      0.00
    6   15    5      0.41      0.00
    7   15    5     -1.35      0.00
   -7   16    5      0.01      0.00
   -6   16    5     -0.25      0.00
   -5   16    5      0.06      0.00
   -4   16    5      2.46      0.00
   -3   16    5     -2.47      0.00
   -2   16    5     -0.08      0.00
   -1   16    5     -0.24      0.00
    0   16    5      0.89      0.00
    1   16    5      0.98      0.00
    2   16    5     -1.37      0.00
    3   16    5     -0.07      0.00
    4   16    5      0.89      0.00
    5   16    5     -1.58      0.00
    6   16    5      1.82      0.00
   -5   17    5     -0.23      0.00
   -4   17    5      0.14      0.00
   -3   17    5      0.07      0.00
   -2   17    5      1.23      0.00
   -1   17    5      0.05      0.00
    0   17    5     -2.75      0.00
    1   17    5      1.32      0.00
    2   17    5      1.02      0.00
    3   17    5     -0.37      0.00
    4   17    5     -0.05      0.00
   -3   18    5     -2.33      0.00
   -2   18    5     -0.15      0.00
   -1   18    5      0.95      0.00
    0   18    5      1.05      0.00
    1   18    5     -1.11      0.00
  -14    0    6      2.46      0.00
  -13    0    6     -3.46      0.00
  -12    0    6      0.74      0.00
  -11    0    6      4.60      0.00
  -10    0    6     -7.68      0.00
   -9    0    6      8.86      0.00
   -8    0    6     -6.69      0.00
   -7    0    6     -0.95      0.00
   -6    0    6      6.91      0.00
   -5    0    6     -9.56      0.00
   -4    0    6     12.26      0.00
   -3    0    6    -11.02      0.00
   -2    0    6     10.82      0.00
   -1    0    6    -14.76      0.00
    0    0    6      7.18      0.00
    1    0    6     11.31      0.00
    2    0    6    -21.44      0.00
    3    0    6     18.90      0.00
    4    0    6     -9.23      0.00
    5    0    6     -1.41      0.00
    6    0    6      5.76      0.00
    7    0    6     -4.74      0.00
    8    0    6      2.74      0.00
    9    0    6     -0.22      0.00
   10    0    6     -1.25      0.00
   11    0    6      0.12      0.00
   12    0    6      0.96      0.00
   13    0    6     -0.16      0.00
  -14    1    6      0.74      0.00
  -13    1    6      0.39      0.00
  -12    1    6     -2.05      0.00
  -11    1    6      2.55      0.00
  -10    1    6     -1.80      0.00
   -9    1    6      0.19      0.00
   -8    1    6      2.24      0.00
   -7    1    6     -3.02      0.00
   -6    1    6      1.30      0.00
   -5    1    6      0.05      0.00
   -4    1    6      0.33      0.00
   -3    1    6     -3.28      0.00
   -2    1    6      6.59      0.00
   -1    1    6     -2.98      0.00
    0    1    6     -5.67      0.00
    1    1    6      8.88      0.00
    2    1    6     -5.01      0.00
    3    1    6     -0.81      0.00
    4    1    6      4.75      0.00
    5    1    6     -4.53      0.00
    6    1    6      1.85      0.00
    7    1    6      0.15      0.00
    8    1    6     -1.11      0.00
    9    1    6      1.01      0.00
   10    1    6      0.10      0.00
   11    1    6     -0.78      0.00
   12    1    6      0.16      0.00
   13    1    6      0.51      0.00
  -14    2    6      0.90      0.00
  -13    2    6     -1.09      0.00
  -12    2    6     -0.83      0.00
  -11    2    6      4.23      0.00
  -10    2    6     -5.77      0.00
   -9    2    6      6.09      0.00
   -8    2    6     -5.24      0.00
   -7    2    6      1.05      0.00
   -6    2    6      3.44      0.00
   -5    2    6     -7.87      0.00
   -4    2    6     13.93      0.00
   -3    2    6    -14.60      0.00
   -2    2    6      9.24      0.00
   -1    2    6     -4.69      0.00
    0    2    6     -2.21      0.00
    1    2    6     11.32      0.00
    2    2    6    -14.04      0.00
    3    2    6     10.55      0.00
    4    2    6     -5.23      0.00
    5    2    6     -0.02      0.00
    6    2    6      2.41      0.00
    7    2    6     -2.21      0.00
    8    2    6      1.79      0.00
    9    2    6     -1.01      0.00
   10    2    6     -0.05      0.00
   11    2    6      0.30      0.00
   12    2    6     -0.12      0.00
  -14    3    6      0.78      0.00
  -13    3    6      0.81      0.00
  -12    3    6     -3.45      0.00
  -11    3    6      4.61      0.00
  -10    3    6     -3.79      0.00
   -9    3    6      1.51      0.00
   -8    3    6      2.67      0.00
   -7    3    6     -5.37      0.00
   -6    3    6      4.57      0.00
   -5    3    6     -3.70      0.00
   -4    3    6      3.06      0.00
   -3    3    6     -3.57      0.00
   -2    3    6      5.57      0.00
   -1    3    6     -0.46      0.00
    0    3    6    -10.53      0.00
    1    3    6     13.53      0.00
    2    3    6     -7.03      0.00
    3    3    6     -1.37      0.00
    4    3    6      6.94      0.00
    5    3    6     -6.74      0.00
    6    3    6      3.13      0.00
    7    3    6     -0.36      0.00
    8    3    6     -1.16      0.00
    9    3    6      1.43      0.00
   10    3    6     -0.41      0.00
   11    3    6     -0.58      0.00
   12    3    6      0.45      0.00
  -14    4    6     -0.90      0.00
  -13    4    6      1.69      0.00
  -12    4    6     -2.86      0.00
  -11    4    6      3.90      0.00
  -10    4    6     -2.96      0.00
   -9    4    6      1.31      0.00
   -8    4    6     -1.40      0.00
   -7    4    6      1.39      0.00
   -6    4    6      0.24      0.00
   -5    4    6     -4.16      0.00
   -4    4    6     11.23      0.00
   -3    4    6    -14.09      0.00
   -2    4    6      5.52      0.00
   -1    4    6      6.24      0.00
    0    4    6    -10.66      0.00
    1    4    6      8.04      0.00
    2    4    6     -2.40      0.00
    3    4    6     -1.29      0.00
    4    4    6      0.36      0.00
    5    4    6      1.39      0.00
    6    4    6     -1.46      0.00
    7    4    6      0.90      0.00
    8    4    6      0.45      0.00
    9    4    6     -1.73      0.00
   10    4    6      1.30      0.00
   11    4    6      0.02      0.00
   12    4    6     -0.62      0.00
  -14    5    6     -0.13      0.00
  -13    5    6      0.52      0.00
  -12    5    6     -1.42      0.00
  -11    5    6      2.07      0.00
  -10    5    6     -2.10      0.00
   -9    5    6      2.07      0.00
   -8    5    6     -0.41      0.00
   -7    5    6     -3.05      0.00
   -6    5    6      6.06      0.00
   -5    5    6     -8.23      0.00
   -4    5    6      6.66      0.00
   -3    5    6      0.38      0.00
   -2    5    6     -6.17      0.00
   -1    5    6      7.38      0.00
    0    5    6     -6.54      0.00
    1    5    6      3.70      0.00
    2    5    6     -0.61      0.00
    3    5    6     -0.50      0.00
    4    5    6      1.09      0.00
    5    5    6     -1.82      0.00
    6    5    6      2.06      0.00
    7    5    6     -1.91      0.00
    8    5    6      1.29      0.00
    9    5    6     -0.13      0.00
   10    5    6     -0.83      0.00
   11    5    6      0.37      0.00
   12    5    6      0.89      0.00
  -13    6    6      1.18      0.00
  -12    6    6     -2.48      0.00
  -11    6    6      3.84      0.00
  -10    6    6     -2.34      0.00
   -9    6    6     -0.62      0.00
   -8    6    6      2.02      0.00
   -7    6    6     -2.85      0.00
   -6    6    6      2.96      0.00
   -5    6    6     -1.70      0.00
   -4    6    6      2.04      0.00
   -3    6    6     -3.41      0.00
   -2    6    6      1.09      0.00
   -1    6    6      2.86      0.00
    0    6    6     -3.61      0.00
    1    6    6      1.81      0.00
    2    6    6      0.90      0.00
    3    6    6     -2.34      0.00
    4    6    6      0.88      0.00
    5    6    6      0.38      0.00
    6    6    6     -0.45      0.00
    7    6    6      0.87      0.00
    8    6    6     -0.23      0.00
    9    6    6     -0.97      0.00
   10    6    6      1.04      0.00
   11    6    6     -0.78      0.00
   12    6    6      0.53      0.00
  -13    7    6     -0.26      0.00
  -12    7    6      0.16      0.00
  -11    7    6     -0.71      0.00
  -10    7    6      1.48      0.00
   -9    7    6     -0.33      0.00
   -8    7    6     -0.61      0.00
   -7    7    6     -0.79      0.00
   -6    7    6      2.40      0.00
   -5    7    6     -4.45      0.00
   -4    7    6      5.32      0.00
   -3    7    6     -0.27      0.00
   -2    7    6     -5.80      0.00
   -1    7    6      5.73      0.00
    0    7    6     -2.31      0.00
    1    7    6     -0.44      0.00
    2    7    6      1.14      0.00
    3    7    6      0.67      0.00
    4    7    6     -1.59      0.00
    5    7    6      0.07      0.00
    6    7    6      1.33      0.00
    7    7    6     -2.28      0.00
    8    7    6      2.73      0.00
    9    7    6     -1.45      0.00
   10    7    6      0.05      0.00
   11    7    6     -0.37      0.00
  -13    8    6      0.25      0.00
  -12    8    6     -1.17      0.00
  -11    8    6      2.93      0.00
  -10    8    6     -2.26      0.00
   -9    8    6      0.10      0.00
   -8    8    6      1.70      0.00
   -7    8    6     -3.88      0.00
   -6    8    6      4.40      0.00
   -5    8    6     -1.66      0.00
   -4    8    6     -1.63      0.00
   -3    8    6      2.85      0.00
   -2    8    6     -1.64      0.00
   -1    8    6     -0.77      0.00
    0    8    6      1.85      0.00
    1    8    6     -0.66      0.00
    2    8    6     -0.40      0.00
    3    8    6      0.28      0.00
    4    8    6     -0.01      0.00
    5    8    6     -0.65      0.00
    6    8    6      0.88      0.00
    7    8    6      0.17      0.00
    8    8    6     -0.62      0.00
    9    8    6     -0.16      0.00
   10    8    6      0.86      0.00
   11    8    6     -0.82      0.00
  -12    9    6      0.13      0.00
  -11    9    6     -1.02      0.00
  -10    9    6      3.09      0.00
   -9    9    6     -2.18      0.00
   -8    9    6      0.41      0.00
   -7    9    6      0.36      0.00
   -6    9    6     -2.25      0.00
   -5    9    6      2.27      0.00
   -4    9    6      0.62      0.00
   -3    9    6     -1.15      0.00
   -2    9    6     -0.07      0.00
   -1    9    6     -0.03      0.00
    0    9    6     -0.85      0.00
    1    9    6      2.32      0.00
    2    9    6     -2.25      0.00
    3    9    6      2.00      0.00
    4    9    6     -1.26      0.00
    5    9    6      0.10      0.00
    6    9    6     -0.11      0.00
    7    9    6     -0.66      0.00
    8    9    6      2.41      0.00
    9    9    6     -2.16      0.00
   10    9    6      0.78      0.00
   11    9    6     -0.50      0.00
  -12   10    6     -0.65      0.00
  -11   10    6      1.16      0.00
  -10   10    6     -0.97      0.00
   -9   10    6      1.06      0.00
   -8   10    6     -1.08      0.00
   -7   10    6     -0.13      0.00
   -6   10    6      1.47      0.00
   -5   10    6     -2.04      0.00
   -4   10    6      1.59      0.00
   -3   10    6     -0.25      0.00
   -2   10    6     -0.26      0.00
   -1   10    6     -0.11      0.00
    0   10    6     -0.35      0.00
    1   10    6      1.14      0.00
    2   10    6     -0.60      0.00
    3   10    6     -0.67      0.00
    4   10    6      0.91      0.00
    5   10    6     -0.51      0.00
    6   10    6      0.86      0.00
    7   10    6     -1.13      0.00
    8   10    6      0.48      0.00
    9   10    6     -0.36      0.00
   10   10    6      0.86      0.00
  -11   11    6     -0.59      0.00
  -10   11    6      2.31      0.00
   -9   11    6     -1.18      0.00
   -8   11    6     -0.27      0.00
   -7   11    6      0.73      0.00
   -6   11    6     -2.33      0.00
   -5   11    6      2.36      0.00
   -4   11    6     -0.24      0.00
   -3   11    6     -0.58      0.00
   -2   11    6      1.02      0.00
   -1   11    6     -1.67      0.00
    0   11    6     -0.22      0.00
    1   11    6      2.74      0.00
    2   11    6     -2.96      0.00
    3   11    6      2.74      0.00
    4   11    6     -2.71      0.00
    5   11    6      2.01      0.00
    6   11    6     -1.59      0.00
    7   11    6      0.62      0.00
    8   11    6      1.60      0.00
    9   11    6     -2.41      0.00
   10   11    6      0.84      0.00
  -11   12    6     -0.24      0.00
  -10   12    6      0.21      0.00
   -9   12    6      1.43      0.00
   -8   12    6     -2.34      0.00
   -7   12    6      1.63      0.00
   -6   12    6     -0.17      0.00
   -5   12    6     -1.95      0.00
   -4   12    6      3.68      0.00
   -3   12    6     -3.58      0.00
   -2   12    6      2.32      0.00
   -1   12    6     -0.49      0.00
    0   12    6     -1.96      0.00
    1   12    6      3.12      0.00
    2   12    6     -1.63      0.00
    3   12    6     -0.45      0.00
    4   12    6      0.95      0.00
    5   12    6     -0.86      0.00
    6   12    6      2.12      0.00
    7   12    6     -3.44      0.00
    8   12    6      2.60      0.00
    9   12    6     -0.79      0.00
  -10   13    6      1.20      0.00
   -9   13    6      0.04      0.00
   -8   13    6     -0.29      0.00
   -7   13    6     -0.17      0.00
   -6   13    6     -0.16      0.00
   -5   13    6     -0.96      0.00
   -4   13    6      2.21      0.00
   -3   13    6     -1.49      0.00
   -2   13    6      1.49      0.00
   -1   13    6     -1.61      0.00
    0   13    6     -0.55      0.00
    1   13    6      1.75      0.00
    2   13    6     -0.75      0.00
    3   13    6      1.23      0.00
    4   13    6     -2.42      0.00
    5   13    6      1.64      0.00
    6   13    6     -0.71      0.00
    7   13    6      0.58      0.00
    8   13    6      0.36      0.00
   -9   14    6      1.28      0.00
   -8   14    6     -1.72      0.00
   -7   14    6      1.00      0.00
   -6   14    6      0.14      0.00
   -5   14    6     -1.33      0.00
   -4   14    6      2.72      0.00
   -3   14    6     -3.58      0.00
   -2   14    6      2.21      0.00
   -1   14    6      0.65      0.00
    0   14    6     -2.51      0.00
    1   14    6      2.90      0.00
    2   14    6     -2.67      0.00
    3   14    6      1.85      0.00
    4   14    6     -0.43      0.00
    5   14    6     -0.94      0.00
    6   14    6      2.23      0.00
    7   14    6     -3.19      0.00
    8   14    6      2.60      0.00
   -8   15    6      0.40      0.00
   -7   15    6     -0.65      0.00
   -6   15    6     -0.05      0.00
   -5   15    6     -1.52      0.00
   -4   15    6      3.06      0.00
   -3   15    6     -1.40      0.00
   -2   15    6      0.56      0.00
   -1   15    6     -0.92      0.00
    0   15    6     -0.80      0.00
    1   15    6      1.52      0.00
    2   15    6      0.30      0.00
    3   15    6     -0.83      0.00
    4   15    6      0.44      0.00
    5   15    6     -0.96      0.00
    6   15    6      0.74      0.00
    7   15    6      0.29      0.00
   -7   16    6      1.33      0.00
   -6   16    6     -0.50      0.00
   -5   16    6     -0.14      0.00
   -4   16    6      0.44      0.00
   -3   16    6     -1.64      0.00
   -2   16    6      0.94      0.00
   -1   16    6      1.96      0.00
    0   16    6     -2.19      0.00
    1   16    6      0.39      0.00
    2   16    6     -0.91      0.00
    3   16    6      1.83      0.00
    4   16    6     -0.85      0.00
    5   16    6      0.27      0.00
   -5   17    6     -0.53      0.00
   -4   17    6      2.68      0.00
   -3   17    6     -0.90      0.00
   -2   17    6     -1.16      0.00
   -1   17    6     -0.16      0.00
    0   17    6      0.53      0.00
    1   17    6      0.86      0.00
    2   17    6     -0.63      0.00
    3   17    6     -0.53      0.00
    4   17    6      0.96      0.00
   -2   18    6      0.31      0.00
   -1   18    6      0.62      0.00
    0   18    6     -0.66      0.00
  -14    1    7      2.10      0.00
  -13    1    7     -1.10      0.00
  -12    1    7     -2.70      0.00
  -11    1    7      5.29      0.00
  -10    1    7     -5.17      0.00
   -9    1    7      3.85      0.00
   -8    1    7      0.78      0.00
   -7    1    7     -6.19      0.00
   -6    1    7      7.78      0.00
   -5    1    7     -9.60      0.00
   -4    1    7     11.84      0.00
   -3    1    7    -11.18      0.00
   -2    1    7     10.14      0.00
   -1    1    7     -3.79      0.00
    0    1    7    -11.06      0.00
    1    1    7     21.19      0.00
    2    1    7    -18.99      0.00
    3    1    7      9.71      0.00
    4    1    7      0.65      0.00
    5    1    7     -6.14      0.00
    6    1    7      5.77      0.00
    7    1    7     -3.93      0.00
    8    1    7      2.06      0.00
    9    1    7     -0.30      0.00
   10    1    7      0.03      0.00
   11    1    7     -0.51      0.00
   12    1    7     -0.02      0.00
  -14    2    7     -0.25      0.00
  -13    2    7      2.32      0.00
  -12    2    7     -3.48      0.00
  -11    2    7      2.67      0.00
  -10    2    7     -1.11      0.00
   -9    2    7     -1.26      0.00
   -8    2    7      2.94      0.00
   -7    2    7     -1.50      0.00
   -6    2    7      0.08      0.00
   -5    2    7     -1.51      0.00
   -4    2    7      4.41      0.00
   -3    2    7     -6.78      0.00
   -2    2    7      2.49      0.00
   -1    2    7      9.04      0.00
    0    2    7    -14.67      0.00
    1    2    7      8.50      0.00
    2    2    7      1.33      0.00
    3    2    7     -7.79      0.00
    4    2    7      7.89      0.00
    5    2    7     -3.54      0.00
    6    2    7      0.04      0.00
    7    2    7      1.33      0.00
    8    2    7     -1.49      0.00
    9    2    7      0.44      0.00
   10    2    7      0.60      0.00
   11    2    7     -0.24      0.00
   12    2    7     -0.65      0.00
  -14    3    7     -0.68      0.00
  -13    3    7      1.25      0.00
  -12    3    7     -2.79      0.00
  -11    3    7      3.57      0.00
  -10    3    7     -2.66      0.00
   -9    3    7      2.07      0.00
   -8    3    7     -0.74      0.00
   -7    3    7     -2.80      0.00
   -6    3    7      6.77      0.00
   -5    3    7    -11.55      0.00
   -4    3    7     14.02      0.00
   -3    3    7     -7.46      0.00
   -2    3    7     -3.49      0.00
   -1    3    7      9.72      0.00
    0    3    7    -11.02      0.00
    1    3    7      9.11      0.00
    2    3    7     -5.49      0.00
    3    3    7      3.08      0.00
    4    3    7     -1.51      0.00
    5    3    7     -0.31      0.00
    6    3    7      1.45      0.00
    7    3    7     -2.16      0.00
    8    3    7      2.61      0.00
    9    3    7     -1.83      0.00
   10    3    7      0.25      0.00
   11    3    7      0.59      0.00
   12    3    7     -0.27      0.00
  -14    4    7     -0.19      0.00
  -13    4    7      1.44      0.00
  -12    4    7     -2.68      0.00
  -11    4    7      2.72      0.00
  -10    4    7     -1.98      0.00
   -9    4    7      0.13      0.00
   -8    4    7      2.84      0.00
   -7    4    7     -4.36      0.00
   -6    4    7      4.52      0.00
   -5    4    7     -4.02      0.00
   -4    4    7      1.09      0.00
   -3    4    7      2.14      0.00
   -2    4    7     -4.62      0.00
   -1    4    7      8.35      0.00
    0    4    7     -9.14      0.00
    1    4    7      4.46      0.00
    2    4    7      1.13      0.00
    3    4    7     -4.65      0.00
    4    4    7      5.22      0.00
    5    4    7     -3.50      0.00
    6    4    7      1.84      0.00
    7    4    7     -0.67      0.00
    8    4    7     -0.35      0.00
    9    4    7      0.91      0.00
   10    4    7     -0.58      0.00
   11    4    7     -0.30      0.00
   12    4    7      0.56      0.00
  -14    5    7     -1.45      0.00
  -13    5    7      2.21      0.00
  -12    5    7     -3.29      0.00
  -11    5    7      3.04      0.00
  -10    5    7     -0.69      0.00
   -9    5    7     -0.80      0.00
   -8    5    7      1.39      0.00
   -7    5    7     -3.17      0.00
   -6    5    7      4.94      0.00
   -5    5    7     -6.79      0.00
   -4    5    7      7.98      0.00
   -3    5    7     -2.76      0.00
   -2    5    7     -6.89      0.00
   -1    5    7     10.57      0.00
    0    5    7     -6.88      0.00
    1    5    7      1.67      0.00
    2    5    7      1.49      0.00
    3    5    7     -0.72      0.00
    4    5    7     -1.38      0.00
    5    5    7      1.20      0.00
    6    5    7     -0.20      0.00
    7    5    7     -0.72      0.00
    8    5    7      1.85      0.00
    9    5    7     -1.71      0.00
   10    5    7      0.60      0.00
   11    5    7      0.03      0.00
   12    5    7      0.12      0.00
  -13    6    7     -0.18      0.00
  -12    6    7     -0.07      0.00
  -11    6    7     -0.06      0.00
  -10    6    7     -0.12      0.00
   -9    6    7      0.25      0.00
   -8    6    7      1.99      0.00
   -7    6    7     -4.72      0.00
   -6    6    7      5.44      0.00
   -5    6    7     -4.11      0.00
   -4    6    7     -1.64      0.00
   -3    6    7      8.69      0.00
   -2    6    7     -8.75      0.00
   -1    6    7      3.46      0.00
    0    6    7      0.66      0.00
    1    6    7     -2.05      0.00
    2    6    7      1.08      0.00
    3    6    7      0.07      0.00
    4    6    7      0.94      0.00
    5    6    7     -2.63      0.00
    6    6    7      3.17      0.00
    7    6    7     -2.65      0.00
    8    6    7      1.11      0.00
    9    6    7      0.65      0.00
   10    6    7     -0.70      0.00
   11    6    7     -0.77      0.00
   12    6    7      1.44      0.00
  -13    7    7      1.21      0.00
  -12    7    7     -2.97      0.00
  -11    7    7      3.02      0.00
  -10    7    7     -0.18      0.00
   -9    7    7     -2.36      0.00
   -8    7    7      4.22      0.00
   -7    7    7     -5.28      0.00
   -6    7    7      3.37      0.00
   -5    7    7     -0.37      0.00
   -4    7    7     -0.57      0.00
   -3    7    7      0.72      0.00
   -2    7    7     -1.29      0.00
   -1    7    7      1.36      0.00
    0    7    7     -1.54      0.00
    1    7    7      1.74      0.00
    2    7    7     -0.76      0.00
    3    7    7     -0.04      0.00
    4    7    7      0.39      0.00
    5    7    7     -0.92      0.00
    6    7    7      0.37      0.00
    7    7    7      0.27      0.00
    8    7    7      0.34      0.00
    9    7    7     -0.87      0.00
   10    7    7      0.95      0.00
   11    7    7     -0.77      0.00
  -13    8    7     -0.55      0.00
  -12    8    7      0.87      0.00
  -11    8    7     -2.66      0.00
  -10    8    7      2.99      0.00
   -9    8    7     -1.44      0.00
   -8    8    7      1.34      0.00
   -7    8    7     -0.91      0.00
   -6    8    7     -0.52      0.00
   -5    8    7      0.07      0.00
   -4    8    7     -1.09      0.00
   -3    8    7      4.55      0.00
   -2    8    7     -4.23      0.00
   -1    8    7      1.03      0.00
    0    8    7      0.28      0.00
    1    8    7     -0.71      0.00
    2    8    7      0.74      0.00
    3    8    7     -0.40      0.00
    4    8    7      1.24      0.00
    5    8    7     -1.87      0.00
    6    8    7      1.76      0.00
    7    8    7     -2.07      0.00
    8    8    7      1.48      0.00
    9    8    7     -0.20      0.00
   10    8    7      0.30      0.00
   11    8    7     -1.05      0.00
  -12    9    7     -1.43      0.00
  -11    9    7      1.55      0.00
  -10    9    7     -0.28      0.00
   -9    9    7     -0.79      0.00
   -8    9    7      2.00      0.00
   -7    9    7     -2.84      0.00
   -6    9    7      2.00      0.00
   -5    9    7     -0.38      0.00
   -4    9    7     -0.83      0.00
   -3    9    7      0.68      0.00
   -2    9    7      0.65      0.00
   -1    9    7     -1.01      0.00
    0    9    7     -0.40      0.00
    1    9    7      1.53      0.00
    2    9    7     -0.89      0.00
    3    9    7     -0.19      0.00
    4    9    7      0.46      0.00
    5    9    7     -0.43      0.00
    6    9    7      0.10      0.00
    7    9    7      0.37      0.00
    8    9    7      0.15      0.00
    9    9    7     -1.27      0.00
   10    9    7      1.26      0.00
  -12   10    7      0.66      0.00
  -11   10    7     -2.88      0.00
  -10   10    7      3.23      0.00
   -9   10    7     -1.10      0.00
   -8   10    7      0.01      0.00
   -7   10    7      1.87      0.00
   -6   10    7     -3.96      0.00
   -5   10    7      2.69      0.00
   -4   10    7     -1.21      0.00
   -3   10    7      1.45      0.00
   -2   10    7     -0.47      0.00
   -1   10    7      0.06      0.00
    0   10    7     -2.01      0.00
    1   10    7      2.43      0.00
    2   10    7     -0.90      0.00
    3   10    7      0.08      0.00
    4   10    7      0.21      0.00
    5   10    7     -0.10      0.00
    6   10    7      0.10      0.00
    7   10    7     -1.43      0.00
    8   10    7      2.22      0.00
    9   10    7     -1.11      0.00
   10   10    7      0.14      0.00
  -11   11    7     -0.11      0.00
  -10   11    7     -0.69      0.00
   -9   11    7      1.68      0.00
   -8   11    7     -1.52      0.00
   -7   11    7      0.71      0.00
   -6   11    7      0.78      0.00
   -5   11    7     -2.55      0.00
   -4   11    7      2.87      0.00
   -3   11    7     -2.15      0.00
   -2   11    7      1.16      0.00
   -1   11    7      0.82      0.00
    0   11    7     -2.38      0.00
    1   11    7      1.36      0.00
    2   11    7      0.79      0.00
    3   11    7     -1.21      0.00
    4   11    7      0.01      0.00
    5   11    7      0.15      0.00
    6   11    7      0.99      0.00
    7   11    7     -1.28      0.00
    8   11    7      0.90      0.00
    9   11    7     -1.09      0.00
  -11   12    7     -1.75      0.00
  -10   12    7      1.25      0.00
   -9   12    7      0.23      0.00
   -8   12    7     -0.29      0.00
   -7   12    7      0.82      0.00
   -6   12    7     -1.27      0.00
   -5   12    7      0.17      0.00
   -4   12    7     -0.03      0.00
   -3   12    7      0.61      0.00
   -2   12    7      0.16      0.00
   -1   12    7     -0.17      0.00
    0   12    7     -1.22      0.00
    1   12    7      1.35      0.00
    2   12    7     -1.11      0.00
    3   12    7      2.12      0.00
    4   12    7     -2.12      0.00
    5   12    7      0.77      0.00
    6   12    7      0.15      0.00
    7   12    7     -1.33      0.00
    8   12    7      2.47      0.00
    9   12    7     -1.56      0.00
  -10   13    7     -0.96      0.00
   -9   13    7      1.96      0.00
   -8   13    7     -1.53      0.00
   -7   13    7      0.71      0.00
   -6   13    7      0.47      0.00
   -5   13    7     -2.23      0.00
   -4   13    7      3.55      0.00
   -3   13    7     -3.26      0.00
   -2   13    7      1.28      0.00
   -1   13    7      1.52      0.00
    0   13    7     -3.31      0.00
    1   13    7      2.66      0.00
    2   13    7     -0.82      0.00
    3   13    7     -0.17      0.00
    4   13    7      0.43      0.00
    5   13    7     -1.24      0.00
    6   13    7      2.45      0.00
    7   13    7     -2.48      0.00
    8   13    7      1.05      0.00
   -9   14    7     -0.04      0.00
   -8   14    7      0.65      0.00
   -7   14    7     -0.20      0.00
   -6   14    7      0.54      0.00
   -5   14    7     -2.19      0.00
   -4   14    7      1.71      0.00
   -3   14    7     -0.20      0.00
   -2   14    7      0.25      0.00
   -1   14    7      0.09      0.00
    0   14    7     -0.53      0.00
    1   14    7     -0.67      0.00
    2   14    7      0.67      0.00
    3   14    7      1.23      0.00
    4   14    7     -1.36      0.00
    5   14    7      0.10      0.00
    6   14    7      0.07      0.00
    7   14    7     -0.20      0.00
   -8   15    7     -0.81      0.00
   -7   15    7      0.35      0.00
   -6   15    7      0.16      0.00
   -5   15    7     -0.65      0.00
   -4   15    7      1.90      0.00
   -3   15    7     -2.04      0.00
   -2   15    7     -0.18      0.00
   -1   15    7      1.77      0.00
    0   15    7     -1.69      0.00
    1   15    7      2.18      0.00
    2   15    7     -2.86      0.00
    3   15    7      1.75      0.00
    4   15    7     -0.03      0.00
    5   15    7     -0.76      0.00
    6   15    7      1.35      0.00
   -7   16    7      0.59      0.00
   -6   16    7     -0.55      0.00
   -5   16    7     -1.84      0.00
   -4   16    7      1.78      0.00
   -3   16    7      0.55      0.00
   -2   16    7     -0.28      0.00
   -1   16    7     -0.60      0.00
    0   16    7     -0.13      0.00
    1   16    7     -0.19      0.00
    2   16    7      0.98      0.00
    3   16    7     -0.60      0.00
    4   16    7      0.37      0.00
    5   16    7     -0.34      0.00
   -5   17    7      0.30      0.00
   -4   17    7      0.07      0.00
   -3   17    7     -0.92      0.00
   -2   17    7      0.02      0.00
   -1   17    7      0.78      0.00
    0   17    7      0.20      0.00
    1   17    7      0.25      0.00
    2   17    7     -2.11      0.00
    3   17    7      1.94      0.00
  -14    0    8      1.69      0.00
  -13    0    8      0.82      0.00
  -12    0    8     -3.42      0.00
  -11    0    8      3.11      0.00
  -10    0    8     -1.73      0.00
   -9    0    8     -0.98      0.00
   -8    0    8      5.24      0.00
   -7    0    8     -5.91      0.00
   -6    0    8      4.52      0.00
   -5    0    8     -6.60      0.00
   -4    0    8      9.20      0.00
   -3    0    8     -9.51      0.00
   -2    0    8      4.51      0.00
   -1    0    8      9.33      0.00
    0    0    8    -21.57      0.00
    1    0    8     20.66      0.00
    2    0    8    -10.14      0.00
    3    0    8     -1.90      0.00
    4    0    8      8.73      0.00
    5    0    8     -8.18      0.00
    6    0    8      5.21      0.00
    7    0    8     -2.86      0.00
    8    0    8      0.85      0.00
    9    0    8     -0.09      0.00
   10    0    8      0.35      0.00
   11    0    8      0.27      0.00
   12    0    8     -1.22      0.00
  -14    1    8     -0.91      0.00
  -13    1    8      1.59      0.00
  -12    1    8     -1.28      0.00
  -11    1    8      0.65      0.00
  -10    1    8      0.01      0.00
   -9    1    8     -0.62      0.00
   -8    1    8     -0.02      0.00
   -7    1    8      0.91      0.00
   -6    1    8      0.32      0.00
   -5    1    8     -2.81      0.00
   -4    1    8      4.21      0.00
   -3    1    8     -1.97      0.00
   -2    1    8     -4.44      0.00
   -1    1    8      8.60      0.00
    0    1    8     -5.41      0.00
    1    1    8     -0.93      0.00
    2    1    8      4.94      0.00
    3    1    8     -4.90      0.00
    4    1    8      1.97      0.00
    5    1    8      0.48      0.00
    6    1    8     -1.07      0.00
    7    1    8      0.86      0.00
    8    1    8     -0.26      0.00
    9    1    8     -0.34      0.00
   10    1    8      0.15      0.00
   11    1    8      0.43      0.00
   12    1    8     -0.28      0.00
  -14    2    8      0.45      0.00
  -13    2    8      0.98      0.00
  -12    2    8     -2.67      0.00
  -11    2    8      2.31      0.00
  -10    2    8     -1.23      0.00
   -9    2    8     -0.26      0.00
   -8    2    8      3.64      0.00
   -7    2    8     -6.09      0.00
   -6    2    8      7.07      0.00
   -5    2    8     -8.72      0.00
   -4    2    8      7.19      0.00
   -3    2    8     -1.49      0.00
   -2    2    8     -4.29      0.00
   -1    2    8     10.12      0.00
    0    2    8    -13.98      0.00
    1    2    8     11.94      0.00
    2    2    8     -6.06      0.00
    3    2    8     -0.18      0.00
    4    2    8      4.39      0.00
    5    2    8     -5.15      0.00
    6    2    8      4.28      0.00
    7    2    8     -3.30      0.00
    8    2    8      1.86      0.00
    9    2    8     -0.39      0.00
   10    2    8     -0.32      0.00
   11    2    8      0.47      0.00
   12    2    8     -0.35      0.00
  -14    3    8     -1.14      0.00
  -13    3    8      2.41      0.00
  -12    3    8     -2.48      0.00
  -11    3    8      1.82      0.00
  -10    3    8     -0.80      0.00
   -9    3    8     -0.84      0.00
   -8    3    8      1.26      0.00
   -7    3    8     -0.65      0.00
   -6    3    8      1.76      0.00
   -5    3    8     -3.35      0.00
   -4    3    8      3.13      0.00
   -3    3    8      0.16      0.00
   -2    3    8     -7.55      0.00
   -1    3    8     12.29      0.00
    0    3    8     -7.61      0.00
    1    3    8     -1.22      0.00
    2    3    8      6.94      0.00
    3    3    8     -7.23      0.00
    4    3    8      3.50      0.00
    5    3    8     -0.30      0.00
    6    3    8     -0.69      0.00
    7    3    8      0.95      0.00
    8    3    8     -0.80      0.00
    9    3    8      0.35      0.00
   10    3    8     -0.07      0.00
   11    3    8      0.17      0.00
   12    3    8     -0.05      0.00
  -14    4    8     -1.16      0.00
  -13    4    8      1.66      0.00
  -12    4    8     -2.25      0.00
  -11    4    8      1.28      0.00
  -10    4    8      0.10      0.00
   -9    4    8     -0.58      0.00
   -8    4    8      2.72      0.00
   -7    4    8     -6.06      0.00
   -6    4    8      8.06      0.00
   -5    4    8     -8.32      0.00
   -4    4    8      3.07      0.00
   -3    4    8      7.70      0.00
   -2    4    8    -13.35      0.00
   -1    4    8      9.60      0.00
    0    4    8     -3.60      0.00
    1    4    8      0.23      0.00
    2    4    8     -0.03      0.00
    3    4    8      1.24      0.00
    4    4    8     -0.59      0.00
    5    4    8     -1.41      0.00
    6    4    8      2.58      0.00
    7    4    8     -3.00      0.00
    8    4    8      2.33      0.00
    9    4    8     -0.56      0.00
   10    4    8     -0.64      0.00
   11    4    8      0.34      0.00
   12    4    8      0.57      0.00
  -13    5    8      0.53      0.00
  -12    5    8     -1.11      0.00
  -11    5    8      1.21      0.00
  -10    5    8     -1.03      0.00
   -9    5    8     -0.69      0.00
   -8    5    8      3.39      0.00
   -7    5    8     -4.09      0.00
   -6    5    8      2.81      0.00
   -5    5    8      0.57      0.00
   -4    5    8     -5.41      0.00
   -3    5    8      6.48      0.00
   -2    5    8     -3.49      0.00
   -1    5    8      1.00      0.00
    0    5    8      0.38      0.00
    1    5    8     -1.21      0.00
    2    5    8      1.51      0.00
    3    5    8     -2.08      0.00
    4    5    8      2.64      0.00
    5    5    8     -2.59      0.00
    6    5    8      1.80      0.00
    7    5    8     -0.39      0.00
    8    5    8     -1.12      0.00
    9    5    8      1.52      0.00
   10    5    8     -0.20      0.00
   11    5    8     -1.02      0.00
  -13    6    8      2.02      0.00
  -12    6    8     -2.84      0.00
  -11    6    8      1.02      0.00
  -10    6    8      1.61      0.00
   -9    6    8     -3.08      0.00
   -8    6    8      4.74      0.00
   -7    6    8     -5.23      0.00
   -6    6    8      3.46      0.00
   -5    6    8     -1.95      0.00
   -4    6    8     -0.37      0.00
   -3    6    8      5.17      0.00
   -2    6    8     -7.60      0.00
   -1    6    8      5.28      0.00
    0    6    8     -2.13      0.00
    1    6    8     -0.03      0.00
    2    6    8      0.86      0.00
    3    6    8     -0.35      0.00
    4    6    8      0.62      0.00
    5    6    8     -1.22      0.00
    6    6    8      0.98      0.00
    7    6    8     -1.01      0.00
    8    6    8      0.94      0.00
    9    6    8     -0.47      0.00
   10    6    8      0.32      0.00
   11    6    8     -0.25      0.00
  -13    7    8     -0.59      0.00
  -12    7    8      1.11      0.00
  -11    7    8     -1.69      0.00
  -10    7    8      0.95      0.00
   -9    7    8     -1.23      0.00
   -8    7    8      2.67      0.00
   -7    7    8     -1.82      0.00
   -6    7    8      0.11      0.00
   -5    7    8      2.06      0.00
   -4    7    8     -6.14      0.00
   -3    7    8      6.12      0.00
   -2    7    8      0.00      0.00
   -1    7    8     -4.24      0.00
    0    7    8      4.04      0.00
    1    7    8     -2.39      0.00
    2    7    8      0.73      0.00
    3    7    8     -0.81      0.00
    4    7    8      2.20      0.00
    5    7    8     -2.51      0.00
    6    7    8      1.83      0.00
    7    7    8     -0.64      0.00
    8    7    8     -0.77      0.00
    9    7    8      0.75      0.00
   10    7    8      0.64      0.00
   11    7    8     -1.35      0.00
  -13    8    8      1.14      0.00
  -12    8    8     -2.04      0.00
  -11    8    8      0.54      0.00
  -10    8    8      1.71      0.00
   -9    8    8     -3.26      0.00
   -8    8    8      4.31      0.00
   -7    8    8     -3.22      0.00
   -6    8    8      0.51      0.00
   -5    8    8      1.14      0.00
   -4    8    8     -1.17      0.00
   -3    8    8      0.51      0.00
   -2    8    8     -0.26      0.00
   -1    8    8      1.33      0.00
    0    8    8     -2.88      0.00
    1    8    8      2.52      0.00
    2    8    8     -0.35      0.00
    3    8    8     -1.22      0.00
    4    8    8      1.53      0.00
    5    8    8     -0.85      0.00
    6    8    8     -0.20      0.00
    7    8    8      0.13      0.00
    8    8    8      0.82      0.00
    9    8    8     -1.28      0.00
   10    8    8      0.86      0.00
   11    8    8     -0.18      0.00
  -12    9    8      1.98      0.00
  -11    9    8     -3.43      0.00
  -10    9    8      1.94      0.00
   -9    9    8     -0.55      0.00
   -8    9    8     -0.49      0.00
   -7    9    8      3.27      0.00
   -6    9    8     -3.90      0.00
   -5    9    8      2.37      0.00
   -4    9    8     -2.76      0.00
   -3    9    8      2.05      0.00
   -2    9    8      1.00      0.00
   -1    9    8     -1.43      0.00
    0    9    8      0.44      0.00
    1    9    8     -1.42      0.00
    2    9    8      2.19      0.00
    3    9    8     -1.78      0.00
    4    9    8      1.18      0.00
    5    9    8     -0.46      0.00
    6    9    8      0.53      0.00
    7    9    8     -0.84      0.00
    8    9    8      0.36      0.00
    9    9    8     -0.26      0.00
   10    9    8      0.90      0.00
  -12   10    8     -0.22      0.00
  -11   10    8      0.12      0.00
  -10   10    8     -0.22      0.00
   -9   10    8      0.07      0.00
   -8   10    8      0.24      0.00
   -7   10    8     -0.52      0.00
   -6   10    8      1.29      0.00
   -5   10    8     -1.56      0.00
   -4   10    8      1.16      0.00
   -3   10    8     -1.05      0.00
   -2   10    8      0.10      0.00
   -1   10    8      1.78      0.00
    0   10    8     -2.26      0.00
    1   10    8      0.88      0.00
    2   10    8      0.41      0.00
    3   10    8     -0.16      0.00
    4   10    8     -0.51      0.00
    5   10    8      0.22      0.00
    6   10    8      0.21      0.00
    7   10    8     -0.67      0.00
    8   10    8      1.76      0.00
    9   10    8     -1.99      0.00
   10   10    8      0.60      0.00
  -11   11    8     -2.23      0.00
  -10   11    8      0.46      0.00
   -9   11    8      0.81      0.00
   -8   11    8     -1.60      0.00
   -7   11    8      3.30      0.00
   -6   11    8     -3.15      0.00
   -5   11    8      1.75      0.00
   -4   11    8     -1.59      0.00
   -3   11    8      0.65      0.00
   -2   11    8      0.95      0.00
   -1   11    8     -0.08      0.00
    0   11    8     -1.29      0.00
    1   11    8      0.39      0.00
    2   11    8      0.21      0.00
    3   11    8      0.51      0.00
    4   11    8     -0.51      0.00
    5   11    8     -0.03      0.00
    6   11    8      0.86      0.00
    7   11    8     -1.96      0.00
    8   11    8      1.67      0.00
    9   11    8     -0.23      0.00
  -10   12    8     -1.74      0.00
   -9   12    8      1.87      0.00
   -8   12    8     -1.53      0.00
   -7   12    8      0.61      0.00
   -6   12    8      1.53      0.00
   -5   12    8     -3.24      0.00
   -4   12    8      3.28      0.00
   -3   12    8     -1.87      0.00
   -2   12    8     -1.04      0.00
   -1   12    8      3.66      0.00
    0   12    8     -3.01      0.00
    1   12    8      0.29      0.00
    2   12    8      0.73      0.00
    3   12    8      0.28      0.00
    4   12    8     -0.66      0.00
    5   12    8     -0.50      0.00
    6   12    8      1.43      0.00
    7   12    8     -1.26      0.00
    8   12    8      0.93      0.00
  -10   13    8     -0.46      0.00
   -9   13    8      0.45      0.00
   -8   13    8     -0.40      0.00
   -7   13    8      0.65      0.00
   -6   13    8      0.30      0.00
   -5   13    8     -0.72      0.00
   -4   13    8     -0.38      0.00
   -3   13    8      0.55      0.00
   -2   13    8      0.38      0.00
   -1   13    8     -0.70      0.00
    0   13    8      0.86      0.00
    1   13    8     -0.55      0.00
    2   13    8     -1.45      0.00
    3   13    8      2.69      0.00
    4   13    8     -1.24      0.00
    5   13    8     -0.27      0.00
    6   13    8      0.86      0.00
    7   13    8     -1.70      0.00
    8   13    8      1.59      0.00
   -9   14    8      0.86      0.00
   -8   14    8     -0.42      0.00
   -7   14    8      0.02      0.00
   -6   14    8      0.69      0.00
   -5   14    8     -2.04      0.00
   -4   14    8      2.76      0.00
   -3   14    8     -1.24      0.00
   -2   14    8     -1.26      0.00
   -1   14    8      2.80      0.00
    0   14    8     -3.07      0.00
    1   14    8      2.45      0.00
    2   14    8     -1.45      0.00
    3   14    8      0.40      0.00
    4   14    8      0.50      0.00
    5   14    8     -1.21      0.00
    6   14    8      1.55      0.00
    7   14    8     -0.90      0.00
   -8   15    8     -0.13      0.00
   -7   15    8      0.70      0.00
   -6   15    8      0.88      0.00
   -5   15    8     -1.96      0.00
   -4   15    8      0.26      0.00
   -3   15    8      0.54      0.00
   -2   15    8      0.69      0.00
   -1   15    8     -1.35      0.00
    0   15    8      1.68      0.00
    1   15    8     -1.39      0.00
    2   15    8     -0.63      0.00
    3   15    8      1.85      0.00
    4   15    8     -1.05      0.00
    5   15    8      0.49      0.00
    6   15    8     -0.44      0.00
   -6   16    8      0.18      0.00
   -5   16    8     -0.62      0.00
   -4   16    8      1.48      0.00
   -3   16    8     -0.75      0.00
   -2   16    8     -0.55      0.00
   -1   16    8      0.63      0.00
    0   16    8     -1.49      0.00
    1   16    8      3.41      0.00
    2   16    8     -3.28      0.00
    3   16    8      1.21      0.00
    4   16    8     -0.10      0.00
   -4   17    8      0.28      0.00
   -3   17    8      0.69      0.00
   -2   17    8      1.29      0.00
   -1   17    8     -1.54      0.00
    0   17    8      0.11      0.00
    1   17    8     -0.09      0.00
    2   17    8      0.35      0.00
  -14    1    9      0.20      0.00
  -13    1    9      1.47      0.00
  -12    1    9     -1.54      0.00
  -11    1    9      0.42      0.00
  -10    1    9      0.37      0.00
   -9    1    9     -2.14      0.00
   -8    1    9      3.19      0.00
   -7    1    9     -1.64      0.00
   -6    1    9      2.03      0.00
   -5    1    9     -4.87      0.00
   -4    1    9      5.14      0.00
   -3    1    9     -1.35      0.00
   -2    1    9     -6.67      0.00
   -1    1    9     14.59      0.00
    0    1    9    -14.48      0.00
    1    1    9      6.78      0.00
    2    1    9      2.28      0.00
    3    1    9     -7.76      0.00
    4    1    9      7.51      0.00
    5    1    9     -4.79      0.00
    6    1    9      2.86      0.00
    7    1    9     -1.30      0.00
    8    1    9      0.17      0.00
    9    1    9      0.23      0.00
   10    1    9     -0.71      0.00
   11    1    9      1.25      0.00
   12    1    9     -0.72      0.00
  -14    2    9     -1.43      0.00
  -13    2    9      1.58      0.00
  -12    2    9     -1.23      0.00
  -11    2    9      1.00      0.00
  -10    2    9     -0.48      0.00
   -9    2    9      0.43      0.00
   -8    2    9     -0.93      0.00
   -7    2    9     -0.66      0.00
   -6    2    9      4.07      0.00
   -5    2    9     -5.49      0.00
   -4    2    9      2.53      0.00
   -3    2    9      4.81      0.00
   -2    2    9    -10.65      0.00
   -1    2    9      7.53      0.00
    0    2    9      1.08      0.00
    1    2    9     -6.62      0.00
    2    2    9      6.35      0.00
    3    2    9     -2.18      0.00
    4    2    9     -1.30      0.00
    5    2    9      1.60      0.00
    6    2    9     -0.76      0.00
    7    2    9      0.17      0.00
    8    2    9      0.18      0.00
    9    2    9      0.00      0.00
   10    2    9     -0.38      0.00
   11    2    9      0.10      0.00
   12    2    9      0.78      0.00
  -14    3    9     -0.26      0.00
  -13    3    9      1.00      0.00
  -12    3    9     -1.03      0.00
  -11    3    9      0.00      0.00
  -10    3    9      0.37      0.00
   -9    3    9     -1.51      0.00
   -8    3    9      4.23      0.00
   -7    3    9     -5.38      0.00
   -6    3    9      4.82      0.00
   -5    3    9     -2.30      0.00
   -4    3    9     -4.11      0.00
   -3    3    9      9.17      0.00
   -2    3    9     -7.96      0.00
   -1    3    9      4.50      0.00
    0    3    9     -2.41      0.00
    1    3    9      1.22      0.00
    2    3    9     -0.08      0.00
    3    3    9     -1.77      0.00
    4    3    9      3.60      0.00
    5    3    9     -4.12      0.00
    6    3    9      3.55      0.00
    7    3    9     -2.18      0.00
    8    3    9      0.31      0.00
    9    3    9      0.95      0.00
   10    3    9     -0.85      0.00
   11    3    9      0.03      0.00
  -14    4    9     -0.72      0.00
  -13    4    9      1.36      0.00
  -12    4    9     -1.65      0.00
  -11    4    9      1.65      0.00
  -10    4    9     -0.93      0.00
   -9    4    9     -0.67      0.00
   -8    4    9      1.61      0.00
   -7    4    9     -1.93      0.00
   -6    4    9      2.17      0.00
   -5    4    9     -0.86      0.00
   -4    4    9     -1.22      0.00
   -3    4    9      2.99      0.00
   -2    4    9     -4.49      0.00
   -1    4    9      3.41      0.00
    0    4    9      0.15      0.00
    1    4    9     -2.82      0.00
    2    4    9      3.21      0.00
    3    4    9     -1.80      0.00
    4    4    9      0.41      0.00
    5    4    9     -0.03      0.00
    6    4    9     -0.34      0.00
    7    4    9      0.98      0.00
    8    4    9     -1.33      0.00
    9    4    9      0.77      0.00
   10    4    9      0.23      0.00
   11    4    9     -0.48      0.00
  -13    5    9      1.58      0.00
  -12    5    9     -1.26      0.00
  -11    5    9     -0.56      0.00
  -10    5    9      1.57      0.00
   -9    5    9     -2.77      0.00
   -8    5    9      5.02      0.00
   -7    5    9     -5.15      0.00
   -6    5    9      3.09      0.00
   -5    5    9      0.51      0.00
   -4    5    9     -7.08      0.00
   -3    5    9     11.26      0.00
   -2    5    9     -7.18      0.00
   -1    5    9      0.42      0.00
    0    5    9      2.45      0.00
    1    5    9     -2.01      0.00
    2    5    9      0.44      0.00
    3    5    9     -0.25      0.00
    4    5    9      1.83      0.00
    5    5    9     -2.61      0.00
    6    5    9      2.14      0.00
    7    5    9     -1.16      0.00
    8    5    9     -0.13      0.00
    9    5    9      0.67      0.00
   10    5    9     -0.29      0.00
   11    5    9     -0.31      0.00
  -13    6    9     -0.05      0.00
  -12    6    9     -0.07      0.00
  -11    6    9      0.37      0.00
  -10    6    9     -0.21      0.00
   -9    6    9     -1.81      0.00
   -8    6    9      2.76      0.00
   -7    6    9     -1.15      0.00
   -6    6    9     -0.90      0.00
   -5    6    9      3.64      0.00
   -4    6    9     -4.14      0.00
   -3    6    9     -0.98      0.00
   -2    6    9      5.46      0.00
   -1    6    9     -4.38      0.00
    0    6    9      1.33      0.00
    1    6    9      0.59      0.00
    2    6    9     -0.56      0.00
    3    6    9     -1.02      0.00
    4    6    9      1.98      0.00
    5    6    9     -1.36      0.00
    6    6    9     -0.04      0.00
    7    6    9      1.41      0.00
    8    6    9     -1.69      0.00
    9    6    9      0.34      0.00
   10    6    9      1.09      0.00
   11    6    9     -0.96      0.00
  -13    7    9      1.76      0.00
  -12    7    9     -1.34      0.00
  -11    7    9     -1.00      0.00
  -10    7    9      2.69      0.00
   -9    7    9     -4.01      0.00
   -8    7    9      4.24      0.00
   -7    7    9     -1.92      0.00
   -6    7    9     -0.48      0.00
   -5    7    9      1.54      0.00
   -4    7    9     -2.89      0.00
   -3    7    9      3.96      0.00
   -2    7    9     -3.38      0.00
   -1    7    9      2.45      0.00
    0    7    9     -1.51      0.00
    1    7    9     -0.49      0.00
    2    7    9      2.14      0.00
    3    7    9     -2.40      0.00
    4    7    9      1.83      0.00
    5    7    9     -0.67      0.00
    6    7    9     -0.08      0.00
    7    7    9     -0.01      0.00
    8    7    9      0.25      0.00
    9    7    9     -0.48      0.00
   10    7    9      0.36      0.00
   11    7    9     -0.10      0.00
  -12    8    9      1.90      0.00
  -11    8    9     -1.48      0.00
  -10    8    9      0.35      0.00
   -9    8    9     -0.59      0.00
   -8    8    9     -0.72      0.00
   -7    8    9      2.67      0.00
   -6    8    9     -2.16      0.00
   -5    8    9      2.32      0.00
   -4    8    9     -2.13      0.00
   -3    8    9     -2.44      0.00
   -2    8    9      5.88      0.00
   -1    8    9     -4.25      0.00
    0    8    9      2.34      0.00
    1    8    9     -1.68      0.00
    2    8    9      0.89      0.00
    3    8    9     -0.65      0.00
    4    8    9      0.54      0.00
    5    8    9     -0.13      0.00
    6    8    9     -0.24      0.00
    7    8    9      0.61      0.00
    8    8    9     -0.19      0.00
    9    8    9     -1.00      0.00
   10    8    9      1.46      0.00
  -12    9    9     -0.44      0.00
  -11    9    9     -0.49      0.00
  -10    9    9      1.28      0.00
   -9    9    9     -1.79      0.00
   -8    9    9      1.46      0.00
   -7    9    9     -0.69      0.00
   -6    9    9      0.25      0.00
   -5    9    9      0.05      0.00
   -4    9    9      0.15      0.00
   -3    9    9     -0.07      0.00
   -2    9    9     -1.48      0.00
   -1    9    9      3.10      0.00
    0    9    9     -2.83      0.00
    1    9    9      0.67      0.00
    2    9    9      1.21      0.00
    3    9    9     -1.24      0.00
    4    9    9      0.50      0.00
    5    9    9      0.03      0.00
    6    9    9      0.04      0.00
    7    9    9     -1.09      0.00
    8    9    9      1.89      0.00
    9    9    9     -1.19      0.00
   10    9    9      0.12      0.00
  -12   10    9      1.92      0.00
  -11   10    9     -1.16      0.00
  -10   10    9     -0.67      0.00
   -9   10    9      1.46      0.00
   -8   10    9     -3.39      0.00
   -7   10    9      4.50      0.00
   -6   10    9     -2.52      0.00
   -5   10    9      1.08      0.00
   -4   10    9     -0.29      0.00
   -3   10    9     -2.10      0.00
   -2   10    9      2.53      0.00
   -1   10    9     -0.20      0.00
    0   10    9      0.18      0.00
    1   10    9     -1.85      0.00
    2   10    9      1.16      0.00
    3   10    9      0.48      0.00
    4   10    9     -0.87      0.00
    5   10    9      0.40      0.00
    6   10    9      0.41      0.00
    7   10    9     -0.83      0.00
    8   10    9      0.67      0.00
    9   10    9     -0.77      0.00
  -11   11    9      0.84      0.00
  -10   11    9     -1.16      0.00
   -9   11    9      1.18      0.00
   -8   11    9     -1.05      0.00
   -7   11    9     -0.56      0.00
   -6   11    9      2.32      0.00
   -5   11    9     -2.28      0.00
   -4   11    9      1.35      0.00
   -3   11    9      0.63      0.00
   -2   11    9     -3.43      0.00
   -1   11    9      3.78      0.00
    0   11    9     -1.35      0.00
    1   11    9     -0.30      0.00
    2   11    9     -0.27      0.00
    3   11    9      1.09      0.00
    4   11    9     -0.48      0.00
    5   11    9     -0.62      0.00
    6   11    9      1.17      0.00
    7   11    9     -1.79      0.00
    8   11    9      1.99      0.00
    9   11    9     -0.84      0.00
  -10   12    9     -1.26      0.00
   -9   12    9      1.44      0.00
   -8   12    9     -2.01      0.00
   -7   12    9      1.88      0.00
   -6   12    9     -0.73      0.00
   -5   12    9      0.45      0.00
   -4   12    9     -0.29      0.00
   -3   12    9     -0.98      0.00
   -2   12    9      1.51      0.00
   -1   12    9     -0.47      0.00
    0   12    9     -0.12      0.00
    1   12    9      0.46      0.00
    2   12    9     -1.70      0.00
    3   12    9      1.83      0.00
    4   12    9     -0.45      0.00
    5   12    9     -0.45      0.00
    6   12    9      1.20      0.00
    7   12    9     -1.60      0.00
    8   12    9      0.55      0.00
   -9   13    9      1.09      0.00
   -8   13    9     -0.84      0.00
   -7   13    9     -0.31      0.00
   -6   13    9      2.01      0.00
   -5   13    9     -2.82      0.00
   -4   13    9      1.64      0.00
   -3   13    9      1.29      0.00
   -2   13    9     -4.01      0.00
   -1   13    9      4.09      0.00
    0   13    9     -1.81      0.00
    1   13    9      0.33      0.00
    2   13    9     -0.68      0.00
    3   13    9      0.77      0.00
    4   13    9      0.14      0.00
    5   13    9     -0.97      0.00
    6   13    9      1.11      0.00
    7   13    9     -0.65      0.00
   -9   14    9      0.36      0.00
   -8   14    9     -0.60      0.00
   -7   14    9     -0.22      0.00
   -6   14    9      1.45      0.00
   -5   14    9     -0.80      0.00
   -4   14    9     -0.33      0.00
   -3   14    9     -0.50      0.00
   -2   14    9      2.19      0.00
   -1   14    9     -2.76      0.00
    0   14    9      1.61      0.00
    1   14    9      1.19      0.00
    2   14    9     -3.34      0.00
    3   14    9      2.50      0.00
    4   14    9     -0.63      0.00
    5   14    9     -0.06      0.00
    6   14    9      0.55      0.00
   -7   15    9     -0.47      0.00
   -6   15    9      0.91      0.00
   -5   15    9     -1.84      0.00
   -4   15    9      1.23      0.00
   -3   15    9      0.62      0.00
   -2   15    9     -1.61      0.00
   -1   15    9      2.34      0.00
    0   15    9     -3.22      0.00
    1   15    9      2.90      0.00
    2   15    9     -1.26      0.00
    3   15    9     -0.17      0.00
    4   15    9      0.66      0.00
    5   15    9     -0.90      0.00
   -6   16    9      1.56      0.00
   -5   16    9     -1.18      0.00
   -4   16    9     -0.39      0.00
   -3   16    9     -1.01      0.00
   -2   16    9      2.85      0.00
   -1   16    9     -2.25      0.00
    0   16    9      0.91      0.00
    1   16    9      0.62      0.00
    2   16    9     -1.97      0.00
    3   16    9      1.80      0.00
    4   16    9     -1.02      0.00
   -3   17    9     -0.71      0.00
   -2   17    9     -0.05      0.00
   -1   17    9      1.18      0.00
    0   17    9     -2.98      0.00
    1   17    9      3.42      0.00
  -14    0   10     -0.57      0.00
  -13    0   10      0.99      0.00
  -12    0   10     -0.26      0.00
  -11    0   10      0.07      0.00
  -10    0   10     -0.04      0.00
   -9    0   10     -0.20      0.00
   -8    0   10     -1.23      0.00
   -7    0   10      1.67      0.00
   -6    0   10      2.27      0.00
   -5    0   10     -6.04      0.00
   -4    0   10      4.49      0.00
   -3    0   10      2.54      0.00
   -2    0   10    -10.57      0.00
   -1    0   10     11.84      0.00
    0    0   10     -5.29      0.00
    1    0   10     -2.85      0.00
    2    0   10      7.42      0.00
    3    0   10     -6.47      0.00
    4    0   10      3.12      0.00
    5    0   10     -1.41      0.00
    6    0   10      0.69      0.00
    7    0   10     -0.07      0.00
    8    0   10     -0.19      0.00
    9    0   10      0.82      0.00
   10    0   10     -1.60      0.00
   11    0   10      1.15      0.00
  -14    1   10     -0.57      0.00
  -13    1   10      0.50      0.00
  -12    1   10     -0.55      0.00
  -11    1   10      0.50      0.00
  -10    1   10     -0.46      0.00
   -9    1   10      0.55      0.00
   -8    1   10      0.41      0.00
   -7    1   10     -2.64      0.00
   -6    1   10      3.85      0.00
   -5    1   10     -2.25      0.00
   -4    1   10     -1.81      0.00
   -3    1   10      5.34      0.00
   -2    1   10     -4.18      0.00
   -1    1   10     -0.63      0.00
    0    1   10      3.79      0.00
    1    1   10     -3.24      0.00
    2    1   10      0.62      0.00
    3    1   10      1.38      0.00
    4    1   10     -1.14      0.00
    5    1   10      0.00      0.00
    6    1   10      0.51      0.00
    7    1   10     -0.46      0.00
    8    1   10      0.06      0.00
    9    1   10      0.29      0.00
   10    1   10     -0.04      0.00
   11    1   10     -0.61      0.00
  -14    2   10     -0.34      0.00
  -13    2   10      0.74      0.00
  -12    2   10     -0.13      0.00
  -11    2   10     -0.14      0.00
  -10    2   10      0.10      0.00
   -9    2   10     -1.18      0.00
   -8    2   10      1.46      0.00
   -7    2   10     -0.71      0.00
   -6    2   10      1.31      0.00
   -5    2   10     -1.10      0.00
   -4    2   10     -1.36      0.00
   -3    2   10      3.55      0.00
   -2    2   10     -4.81      0.00
   -1    2   10      4.73      0.00
    0    2   10     -2.46      0.00
    1    2   10     -0.95      0.00
    2    2   10      3.80      0.00
    3    2   10     -4.58      0.00
    4    2   10      3.64      0.00
    5    2   10     -2.52      0.00
    6    2   10      1.25      0.00
    7    2   10      0.10      0.00
    8    2   10     -0.86      0.00
    9    2   10      1.03      0.00
   10    2   10     -0.83      0.00
   11    2   10      0.36      0.00
  -14    3   10     -0.97      0.00
  -13    3   10      1.23      0.00
  -12    3   10     -1.43      0.00
  -11    3   10      1.29      0.00
  -10    3   10     -0.71      0.00
   -9    3   10      0.00      0.00
   -8    3   10      1.50      0.00
   -7    3   10     -4.11      0.00
   -6    3   10      5.27      0.00
   -5    3   10     -2.90      0.00
   -4    3   10     -2.18      0.00
   -3    3   10      6.84      0.00
   -2    3   10     -6.20      0.00
   -1    3   10      0.52      0.00
    0    3   10      3.87      0.00
    1    3   10     -3.78      0.00
    2    3   10      0.80      0.00
    3    3   10      1.67      0.00
    4    3   10     -1.37      0.00
    5    3   10      0.15      0.00
    6    3   10      0.13      0.00
    7    3   10      0.23      0.00
    8    3   10     -0.59      0.00
    9    3   10      0.36      0.00
   10    3   10      0.22      0.00
   11    3   10     -0.76      0.00
  -13    4   10      0.81      0.00
  -12    4   10      0.00      0.00
  -11    4   10     -0.71      0.00
  -10    4   10      0.92      0.00
   -9    4   10     -2.93      0.00
   -8    4   10      4.45      0.00
   -7    4   10     -2.72      0.00
   -6    4   10     -0.53      0.00
   -5    4   10      5.13      0.00
   -4    4   10     -8.69      0.00
   -3    4   10      5.32      0.00
   -2    4   10      1.69      0.00
   -1    4   10     -4.11      0.00
    0    4   10      2.04      0.00
    1    4   10      0.11      0.00
    2    4   10      0.01      0.00
    3    4   10     -2.13      0.00
    4    4   10      3.58      0.00
    5    4   10     -2.94      0.00
    6    4   10      1.14      0.00
    7    4   10      0.69      0.00
    8    4   10     -1.44      0.00
    9    4   10      0.84      0.00
   10    4   10      0.11      0.00
   11    4   10     -0.41      0.00
  -13    5   10      0.79      0.00
  -12    5   10     -1.09      0.00
  -11    5   10      1.13      0.00
  -10    5   10      0.06      0.00
   -9    5   10     -1.84      0.00
   -8    5   10      1.94      0.00
   -7    5   10     -1.32      0.00
   -6    5   10      0.66      0.00
   -5    5   10      0.12      0.00
   -4    5   10      1.03      0.00
   -3    5   10     -2.32      0.00
   -2    5   10      0.71      0.00
   -1    5   10      1.44      0.00
    0    5   10     -1.86      0.00
    1    5   10      1.13      0.00
    2    5   10     -0.09      0.00
    3    5   10     -0.50      0.00
    4    5   10      0.36      0.00
    5    5   10      0.37      0.00
    6    5   10     -1.25      0.00
    7    5   10      1.63      0.00
    8    5   10     -0.94      0.00
    9    5   10     -0.40      0.00
   10    5   10      0.76      0.00
   11    5   10     -0.20      0.00
  -13    6   10      1.38      0.00
  -12    6   10     -0.04      0.00
  -11    6   10     -1.36      0.00
  -10    6   10      2.21      0.00
   -9    6   10     -3.63      0.00
   -8    6   10      3.32      0.00
   -7    6   10     -0.85      0.00
   -6    6   10     -1.39      0.00
   -5    6   10      4.15      0.00
   -4    6   10     -6.56      0.00
   -3    6   10      4.49      0.00
   -2    6   10      0.23      0.00
   -1    6   10     -2.38      0.00
    0    6   10      2.32      0.00
    1    6   10     -2.09      0.00
    2    6   10      1.82      0.00
    3    6   10     -1.85      0.00
    4    6   10      1.59      0.00
    5    6   10     -0.64      0.00
    6    6   10     -0.29      0.00
    7    6   10      0.86      0.00
    8    6   10     -0.56      0.00
    9    6   10     -0.07      0.00
   10    6   10      0.21      0.00
  -13    7   10     -0.48      0.00
  -12    7   10      0.42      0.00
  -11    7   10      0.30      0.00
  -10    7   10      0.38      0.00
   -9    7   10     -1.20      0.00
   -8    7   10     -0.18      0.00
   -7    7   10      0.85      0.00
   -6    7   10     -0.65      0.00
   -5    7   10      0.67      0.00
   -4    7   10      2.97      0.00
   -3    7   10     -7.35      0.00
   -2    7   10      5.44      0.00
   -1    7   10     -0.60      0.00
    0    7   10     -1.62      0.00
    1    7   10      1.69      0.00
    2    7   10     -0.65      0.00
    3    7   10     -0.47      0.00
    4    7   10      0.40      0.00
    5    7   10      0.41      0.00
    6    7   10     -1.03      0.00
    7    7   10      0.69      0.00
    8    7   10      0.60      0.00
    9    7   10     -1.42      0.00
   10    7   10      1.06      0.00
  -12    8   10     -0.12      0.00
  -11    8   10     -1.17      0.00
  -10    8   10      2.06      0.00
   -9    8   10     -2.35      0.00
   -8    8   10      1.22      0.00
   -7    8   10      0.09      0.00
   -6    8   10     -0.57      0.00
   -5    8   10      0.85      0.00
   -4    8   10     -1.19      0.00
   -3    8   10      1.74      0.00
   -2    8   10     -2.36      0.00
   -1    8   10      2.25      0.00
    0    8   10     -0.35      0.00
    1    8   10     -2.36      0.00
    2    8   10      3.01      0.00
    3    8   10     -1.52      0.00
    4    8   10     -0.02      0.00
    5    8   10      0.64      0.00
    6    8   10     -0.28      0.00
    7    8   10     -0.48      0.00
    8    8   10      0.72      0.00
    9    8   10     -0.38      0.00
   10    8   10      0.14      0.00
  -12    9   10      1.10      0.00
  -11    9   10      0.30      0.00
  -10    9   10     -0.73      0.00
   -9    9   10      1.47      0.00
   -8    9   10     -3.14      0.00
   -7    9   10      1.93      0.00
   -6    9   10      0.21      0.00
   -5    9   10     -0.61      0.00
   -4    9   10      2.75      0.00
   -3    9   10     -4.95      0.00
   -2    9   10      2.60      0.00
   -1    9   10     -0.02      0.00
    0    9   10      0.71      0.00
    1    9   10     -0.64      0.00
    2    9   10     -1.08      0.00
    3    9   10      1.58      0.00
    4    9   10     -0.86      0.00
    5    9   10      0.20      0.00
    6    9   10      0.25      0.00
    7    9   10     -0.91      0.00
    8    9   10      1.64      0.00
    9    9   10     -1.72      0.00
  -11   10   10      0.23      0.00
  -10   10   10      0.05      0.00
   -9   10   10      0.23      0.00
   -8   10   10      0.07      0.00
   -7   10   10     -1.18      0.00
   -6   10   10      1.11      0.00
   -5   10   10     -0.46      0.00
   -4   10   10     -0.17      0.00
   -3   10   10      2.18      0.00
   -2   10   10     -3.75      0.00
   -1   10   10      2.77      0.00
    0   10   10     -0.80      0.00
    1   10   10     -0.40      0.00
    2   10   10      0.48      0.00
    3   10   10     -0.24      0.00
    4   10   10      0.37      0.00
    5   10   10     -0.55      0.00
    6   10   10      1.16      0.00
    7   10   10     -1.85      0.00
    8   10   10      1.13      0.00
    9   10   10      0.16      0.00
  -11   11   10      0.94      0.00
  -10   11   10     -1.57      0.00
   -9   11   10      2.28      0.00
   -8   11   10     -2.98      0.00
   -7   11   10      1.62      0.00
   -6   11   10      0.12      0.00
   -5   11   10     -0.70      0.00
   -4   11   10      1.68      0.00
   -3   11   10     -2.10      0.00
   -2   11   10      0.05      0.00
   -1   11   10      1.43      0.00
    0   11   10     -0.22      0.00
    1   11   10      0.08      0.00
    2   11   10     -1.77      0.00
    3   11   10      1.84      0.00
    4   11   10     -0.64      0.00
    5   11   10     -0.20      0.00
    6   11   10      0.93      0.00
    7   11   10     -1.08      0.00
    8   11   10      0.71      0.00
  -10   12   10     -1.16      0.00
   -9   12   10      1.38      0.00
   -8   12   10     -0.44      0.00
   -7   12   10     -1.53      0.00
   -6   12   10      2.14      0.00
   -5   12   10     -1.10      0.00
   -4   12   10     -1.19      0.00
   -3   12   10      4.20      0.00
   -2   12   10     -4.86      0.00
   -1   12   10      2.08      0.00
    0   12   10      0.19      0.00
    1   12   10      0.42      0.00
    2   12   10     -1.21      0.00
    3   12   10      0.28      0.00
    4   12   10      0.88      0.00
    5   12   10     -1.25      0.00
    6   12   10      1.44      0.00
    7   12   10     -1.29      0.00
    8   12   10      0.42      0.00
   -9   13   10      1.02      0.00
   -8   13   10     -0.65      0.00
   -7   13   10     -0.42      0.00
   -6   13   10      0.85      0.00
   -5   13   10     -0.44      0.00
   -4   13   10      0.65      0.00
   -3   13   10     -1.83      0.00
   -2   13   10      2.16      0.00
   -1   13   10     -0.76      0.00
    0   13   10     -1.15      0.00
    1   13   10      2.66      0.00
    2   13   10     -2.66      0.00
    3   13   10      1.01      0.00
    4   13   10      0.12      0.00
    5   13   10     -0.43      0.00
    6   13   10      0.91      0.00
    7   13   10     -0.63      0.00
   -8   14   10      0.14      0.00
   -7   14   10     -0.96      0.00
   -6   14   10      1.90      0.00
   -5   14   10     -1.42      0.00
   -4   14   10     -0.92      0.00
   -3   14   10      2.89      0.00
   -2   14   10     -3.27      0.00
   -1   14   10      2.38      0.00
    0   14   10     -1.19      0.00
    1   14   10      0.74      0.00
    2   14   10     -0.39      0.00
    3   14   10     -0.31      0.00
    4   14   10      0.70      0.00
    5   14   10     -0.87      0.00
    6   14   10      0.71      0.00
   -7   15   10     -1.35      0.00
   -6   15   10      1.73      0.00
   -5   15   10     -0.36      0.00
   -4   15   10      0.50      0.00
   -3   15   10     -2.80      0.00
   -2   15   10      3.72      0.00
   -1   15   10     -1.92      0.00
    0   15   10     -1.08      0.00
    1   15   10      3.24      0.00
    2   15   10     -2.87      0.00
    3   15   10      1.12      0.00
    4   15   10     -0.20      0.00
    5   15   10     -0.11      0.00
   -5   16   10     -1.17      0.00
   -4   16   10      0.30      0.00
   -3   16   10      0.40      0.00
   -2   16   10     -1.25      0.00
   -1   16   10      2.74      0.00
    0   16   10     -2.98      0.00
    1   16   10      1.23      0.00
    2   16   10      0.52      0.00
    3   16   10     -0.87      0.00
   -2   17   10      2.39      0.00
   -1   17   10     -0.44      0.00
    0   17   10     -0.59      0.00
  -14    1   11     -0.57      0.00
  -13    1   11      0.39      0.00
  -12    1   11     -0.27      0.00
  -11    1   11      0.88      0.00
  -10    1   11     -1.10      0.00
   -9    1   11      1.06      0.00
   -8    1   11     -1.10      0.00
   -7    1   11     -1.15      0.00
   -6    1   11      4.75      0.00
   -5    1   11     -4.89      0.00
   -4    1   11      0.68      0.00
   -3    1   11      4.47      0.00
   -2    1   11     -6.20      0.00
   -1    1   11      3.26      0.00
    0    1   11      1.03      0.00
    1    1   11     -3.52      0.00
    2    1   11      3.06      0.00
    3    1   11     -1.05      0.00
    4    1   11      0.37      0.00
    5    1   11     -0.50      0.00
    6    1   11      0.10      0.00
    7    1   11      0.23      0.00
    8    1   11     -0.72      0.00
    9    1   11      1.34      0.00
   10    1   11     -1.04      0.00
   11    1   11     -0.08      0.00
  -14    2   11     -0.63      0.00
  -13    2   11      0.85      0.00
  -12    2   11     -0.85      0.00
  -11    2   11      0.61      0.00
  -10    2   11     -0.23      0.00
   -9    2   11     -1.26      0.00
   -8    2   11      4.05      0.00
   -7    2   11     -5.68      0.00
   -6    2   11      3.71      0.00
   -5    2   11      1.32      0.00
   -4    2   11     -6.04      0.00
   -3    2   11      5.76      0.00
   -2    2   11     -0.32      0.00
   -1    2   11     -3.97      0.00
    0    2   11      3.29      0.00
    1    2   11      0.05      0.00
    2    2   11     -2.30      0.00
    3    2   11      1.39      0.00
    4    2   11      0.85      0.00
    5    2   11     -1.58      0.00
    6    2   11      0.87      0.00
    7    2   11      0.25      0.00
    8    2   11     -0.75      0.00
    9    2   11      0.10      0.00
   10    2   11      0.84      0.00
   11    2   11     -1.02      0.00
  -13    3   11      0.24      0.00
  -12    3   11      0.32      0.00
  -11    3   11     -0.10      0.00
  -10    3   11      0.79      0.00
   -9    3   11     -2.46      0.00
   -8    3   11      1.91      0.00
   -7    3   11     -0.09      0.00
   -6    3   11     -1.11      0.00
   -5    3   11      2.29      0.00
   -4    3   11     -1.33      0.00
   -3    3   11     -1.85      0.00
   -2    3   11      2.60      0.00
   -1    3   11     -0.28      0.00
    0    3   11     -1.36      0.00
    1    3   11      0.51      0.00
    2    3   11      1.64      0.00
    3    3   11     -2.92      0.00
    4    3   11      2.50      0.00
    5    3   11     -0.86      0.00
    6    3   11     -0.92      0.00
    7    3   11      1.51      0.00
    8    3   11     -0.90      0.00
    9    3   11      0.13      0.00
   10    3   11      0.10      0.00
   11    3   11      0.16      0.00
  -13    4   11      0.98      0.00
  -12    4   11     -0.94      0.00
  -11    4   11      0.53      0.00
  -10    4   11      0.62      0.00
   -9    4   11     -1.97      0.00
   -8    4   11      3.06      0.00
   -7    4   11     -3.75      0.00
   -6    4   11      2.81      0.00
   -5    4   11     -0.41      0.00
   -4    4   11     -2.13      0.00
   -3    4   11      3.77      0.00
   -2    4   11     -3.14      0.00
   -1    4   11      1.15      0.00
    0    4   11     -0.12      0.00
    1    4   11      0.35      0.00
    2    4   11     -0.79      0.00
    3    4   11      0.44      0.00
    4    4   11      0.17      0.00
    5    4   11     -0.03      0.00
    6    4   11     -0.52      0.00
    7    4   11      0.80      0.00
    8    4   11     -0.30      0.00
    9    4   11     -0.39      0.00
   10    4   11      0.41      0.00
   11    4   11     -0.30      0.00
  -13    5   11      0.30      0.00
  -12    5   11      0.71      0.00
  -11    5   11     -0.95      0.00
  -10    5   11      2.16      0.00
   -9    5   11     -3.70      0.00
   -8    5   11      2.30      0.00
   -7    5   11      0.62      0.00
   -6    5   11     -3.29      0.00
   -5    5   11      5.45      0.00
   -4    5   11     -3.28      0.00
   -3    5   11     -2.91      0.00
   -2    5   11      5.58      0.00
   -1    5   11     -2.90      0.00
    0    5   11      0.05      0.00
    1    5   11      0.34      0.00
    2    5   11      1.04      0.00
    3    5   11     -2.28      0.00
    4    5   11      1.79      0.00
    5    5   11     -0.09      0.00
    6    5   11     -1.40      0.00
    7    5   11      1.39      0.00
    8    5   11     -0.16      0.00
    9    5   11     -0.54      0.00
   10    5   11      0.38      0.00
  -13    6   11      0.14      0.00
  -12    6   11     -0.45      0.00
  -11    6   11      0.19      0.00
  -10    6   11      1.21      0.00
   -9    6   11     -1.34      0.00
   -8    6   11      0.47      0.00
   -7    6   11     -0.79      0.00
   -6    6   11      1.10      0.00
   -5    6   11     -2.34      0.00
   -4    6   11      4.50      0.00
   -3    6   11     -2.42      0.00
   -2    6   11     -2.79      0.00
   -1    6   11      4.87      0.00
    0    6   11     -3.38      0.00
    1    6   11      0.95      0.00
    2    6   11      0.72      0.00
    3    6   11     -0.77      0.00
    4    6   11     -0.16      0.00
    5    6   11      0.92      0.00
    6    6   11     -0.80      0.00
    7    6   11     -0.15      0.00
    8    6   11      0.98      0.00
    9    6   11     -0.82      0.00
   10    6   11      0.08      0.00
  -12    7   11      0.49      0.00
  -11    7   11     -1.19      0.00
  -10    7   11      2.10      0.00
   -9    7   11     -2.20      0.00
   -8    7   11      0.87      0.00
   -7    7   11      0.09      0.00
   -6    7   11     -0.93      0.00
   -5    7   11      2.24      0.00
   -4    7   11     -2.16      0.00
   -3    7   11      0.30      0.00
   -2    7   11      0.96      0.00
   -1    7   11     -1.33      0.00
    0    7   11      2.35      0.00
    1    7   11     -2.75      0.00
    2    7   11      1.38      0.00
    3    7   11      0.12      0.00
    4    7   11     -0.72      0.00
    5    7   11      0.83      0.00
    6    7   11     -0.67      0.00
    7    7   11      0.09      0.00
    8    7   11      0.46      0.00
    9    7   11     -0.40      0.00
   10    7   11      0.30      0.00
  -12    8   11     -0.08      0.00
  -11    8   11      0.37      0.00
  -10    8   11      0.23      0.00
   -9    8   11      0.67      0.00
   -8    8   11     -0.79      0.00
   -7    8   11     -1.06      0.00
   -6    8   11      1.37      0.00
   -5    8   11     -2.27      0.00
   -4    8   11      5.04      0.00
   -3    8   11     -3.53      0.00
   -2    8   11     -1.34      0.00
   -1    8   11      2.74      0.00
    0    8   11     -1.68      0.00
    1    8   11      1.50      0.00
    2    8   11     -1.10      0.00
    3    8   11      0.04      0.00
    4    8   11      0.48      0.00
    5    8   11     -0.44      0.00
    6    8   11      0.93      0.00
    7    8   11     -1.88      0.00
    8    8   11      1.90      0.00
    9    8   11     -0.99      0.00
  -12    9   11     -0.16      0.00
  -11    9   11     -0.60      0.00
  -10    9   11      0.84      0.00
   -9    9   11     -0.56      0.00
   -8    9   11      0.77      0.00
   -7    9   11     -0.86      0.00
   -6    9   11      0.28      0.00
   -5    9   11      0.01      0.00
   -4    9   11     -0.92      0.00
   -3    9   11      2.42      0.00
   -2    9   11     -2.49      0.00
   -1    9   11      0.95      0.00
    0    9   11      1.20      0.00
    1    9   11     -2.26      0.00
    2    9   11      1.19      0.00
    3    9   11      0.17      0.00
    4    9   11     -0.55      0.00
    5    9   11      0.26      0.00
    6    9   11      0.43      0.00
    7    9   11     -0.52      0.00
    8    9   11     -0.13      0.00
    9    9   11      0.16      0.00
  -11   10   11      0.86      0.00
  -10   10   11     -1.12      0.00
   -9   10   11      2.10      0.00
   -8   10   11     -1.39      0.00
   -7   10   11     -0.91      0.00
   -6   10   11      1.45      0.00
   -5   10   11     -1.54      0.00
   -4   10   11      2.21      0.00
   -3   10   11     -0.32      0.00
   -2   10   11     -2.51      0.00
   -1   10   11      1.63      0.00
    0   10   11      0.02      0.00
    1   10   11      1.54      0.00
    2   10   11     -2.69      0.00
    3   10   11      1.04      0.00
    4   10   11      0.51      0.00
    5   10   11     -1.03      0.00
    6   10   11      1.59      0.00
    7   10   11     -1.91      0.00
    8   10   11      1.66      0.00
  -11   11   11      0.44      0.00
  -10   11   11     -0.71      0.00
   -9   11   11      0.66      0.00
   -8   11   11      0.88      0.00
   -7   11   11     -1.40      0.00
   -6   11   11      0.31      0.00
   -5   11   11      0.72      0.00
   -4   11   11     -2.62      0.00
   -3   11   11      4.21      0.00
   -2   11   11     -2.68      0.00
   -1   11   11      0.33      0.00
    0   11   11     -0.02      0.00
    1   11   11      0.28      0.00
    2   11   11      0.47      0.00
    3   11   11     -1.25      0.00
    4   11   11      1.10      0.00
    5   11   11     -0.89      0.00
    6   11   11      1.08      0.00
    7   11   11     -0.45      0.00
    8   11   11     -0.65      0.00
  -10   12   11     -1.12      0.00
   -9   12   11      1.32      0.00
   -8   12   11     -0.57      0.00
   -7   12   11     -0.57      0.00
   -6   12   11      1.00      0.00
   -5   12   11     -0.95      0.00
   -4   12   11      0.97      0.00
   -3   12   11     -0.38      0.00
   -2   12   11     -1.16      0.00
   -1   12   11      1.66      0.00
    0   12   11     -1.17      0.00
    1   12   11      1.63      0.00
    2   12   11     -1.59      0.00
    3   12   11      0.38      0.00
    4   12   11      0.16      0.00
    5   12   11     -0.51      0.00
    6   12   11      1.00      0.00
    7   12   11     -0.78      0.00
   -9   13   11      0.60      0.00
   -8   13   11      0.61      0.00
   -7   13   11     -1.53      0.00
   -6   13   11      1.11      0.00
   -5   13   11      0.84      0.00
   -4   13   11     -3.23      0.00
   -3   13   11      3.90      0.00
   -2   13   11     -2.03      0.00
   -1   13   11     -0.18      0.00
    0   13   11      0.10      0.00
    1   13   11      0.66      0.00
    2   13   11      0.25      0.00
    3   13   11     -1.25      0.00
    4   13   11      1.19      0.00
    5   13   11     -1.16      0.00
    6   13   11      0.95      0.00
   -8   14   11      0.86      0.00
   -7   14   11     -1.42      0.00
   -6   14   11      0.98      0.00
   -5   14   11     -0.45      0.00
   -4   14   11      1.56      0.00
   -3   14   11     -3.04      0.00
   -2   14   11      1.95      0.00
   -1   14   11      0.98      0.00
    0   14   11     -2.72      0.00
    1   14   11      2.24      0.00
    2   14   11     -0.58      0.00
    3   14   11     -0.36      0.00
    4   14   11      0.32      0.00
    5   14   11     -0.46      0.00
   -7   15   11     -1.03      0.00
   -6   15   11      1.36      0.00
   -5   15   11     -0.09      0.00
   -4   15   11     -1.16      0.00
   -3   15   11      1.44      0.00
   -2   15   11     -1.77      0.00
   -1   15   11      1.39      0.00
    0   15   11     -0.27      0.00
    1   15   11     -0.46      0.00
    2   15   11      0.70      0.00
    3   15   11     -0.53      0.00
    4   15   11      0.45      0.00
   -5   16   11     -0.06      0.00
   -4   16   11      1.97      0.00
   -3   16   11     -3.37      0.00
   -2   16   11      1.75      0.00
   -1   16   11      0.72      0.00
    0   16   11     -2.19      0.00
    1   16   11      2.08      0.00
    2   16   11     -0.84      0.00
  -13    0   12      0.48      0.00
  -12    0   12     -1.04      0.00
  -11    0   12      1.76      0.00
  -10    0   12     -1.60      0.00
   -9    0   12      0.47      0.00
   -8    0   12      1.97      0.00
   -7    0   12     -5.58      0.00
   -6    0   12      6.72      0.00
   -5    0   12     -2.71      0.00
   -4    0   12     -3.47      0.00
   -3    0   12      6.17      0.00
   -2    0   12     -3.66      0.00
   -1    0   12      0.02      0.00
    0    0   12      1.23      0.00
    1    0   12     -0.14      0.00
    2    0   12     -1.53      0.00
    3    0   12      1.10      0.00
    4    0   12      0.70      0.00
    5    0   12     -1.11      0.00
    6    0   12      0.63      0.00
    7    0   12      0.20      0.00
    8    0   12     -1.46      0.00
    9    0   12      1.55      0.00
   10    0   12     -0.26      0.00
  -13    1   12      0.40      0.00
  -12    1   12     -0.22      0.00
  -11    1   12      0.02      0.00
  -10    1   12      0.76      0.00
   -9    1   12     -2.31      0.00
   -8    1   12      3.15      0.00
   -7    1   12     -2.01      0.00
   -6    1   12     -0.66      0.00
   -5    1   12      3.09      0.00
   -4    1   12     -2.98      0.00
   -3    1   12      0.01      0.00
   -2    1   12      2.43      0.00
   -1    1   12     -1.78      0.00
    0    1   12     -0.40      0.00
    1    1   12      1.53      0.00
    2    1   12     -0.61      0.00
    3    1   12     -1.16      0.00
    4    1   12      1.74      0.00
    5    1   12     -0.96      0.00
    6    1   12     -0.15      0.00
    7    1   12      0.76      0.00
    8    1   12     -0.33      0.00
    9    1   12     -0.50      0.00
   10    1   12      0.65      0.00
  -13    2   12      0.05      0.00
  -12    2   12     -0.21      0.00
  -11    2   12      0.46      0.00
  -10    2   12      0.50      0.00
   -9    2   12     -1.35      0.00
   -8    2   12      1.42      0.00
   -7    2   12     -2.36      0.00
   -6    2   12      2.96      0.00
   -5    2   12     -1.68      0.00
   -4    2   12     -0.07      0.00
   -3    2   12      1.38      0.00
   -2    2   12     -2.17      0.00
   -1    2   12      2.14      0.00
    0    2   12     -1.18      0.00
    1    2   12     -0.05      0.00
    2    2   12      0.65      0.00
    3    2   12     -0.98      0.00
    4    2   12      0.95      0.00
    5    2   12     -0.01      0.00
    6    2   12     -0.59      0.00
    7    2   12      0.44      0.00
    8    2   12     -0.47      0.00
    9    2   12      0.50      0.00
   10    2   12     -0.27      0.00
  -13    3   12      0.58      0.00
  -12    3   12     -0.23      0.00
  -11    3   12     -0.20      0.00
  -10    3   12      1.62      0.00
   -9    3   12     -3.69      0.00
   -8    3   12      4.69      0.00
   -7    3   12     -3.31      0.00
   -6    3   12     -0.37      0.00
   -5    3   12      4.32      0.00
   -4    3   12     -5.45      0.00
   -3    3   12      2.52      0.00
   -2    3   12      1.07      0.00
   -1    3   12     -1.44      0.00
    0    3   12     -0.42      0.00
    1    3   12      1.56      0.00
    2    3   12     -0.52      0.00
    3    3   12     -1.48      0.00
    4    3   12      1.98      0.00
    5    3   12     -0.87      0.00
    6    3   12     -0.50      0.00
    7    3   12      1.02      0.00
    8    3   12     -0.19      0.00
    9    3   12     -0.70      0.00
   10    3   12      0.65      0.00
  -13    4   12     -0.61      0.00
  -12    4   12      0.88      0.00
  -11    4   12     -1.28      0.00
  -10    4   12      3.10      0.00
   -9    4   12     -3.21      0.00
   -8    4   12      0.56      0.00
   -7    4   12      1.51      0.00
   -6    4   12     -2.22      0.00
   -5    4   12      0.86      0.00
   -4    4   12      3.18      0.00
   -3    4   12     -4.77      0.00
   -2    4   12      0.98      0.00
   -1    4   12      3.05      0.00
    0    4   12     -2.99      0.00
    1    4   12      0.04      0.00
    2    4   12      2.53      0.00
    3    4   12     -2.70      0.00
    4    4   12      0.88      0.00
    5    4   12      1.21      0.00
    6    4   12     -1.61      0.00
    7    4   12      0.13      0.00
    8    4   12      1.00      0.00
    9    4   12     -0.66      0.00
   10    4   12     -0.22      0.00
  -13    5   12      0.12      0.00
  -12    5   12      0.00      0.00
  -11    5   12     -0.58      0.00
  -10    5   12      1.40      0.00
   -9    5   12     -1.36      0.00
   -8    5   12      1.50      0.00
   -7    5   12     -1.83      0.00
   -6    5   12      1.24      0.00
   -5    5   12     -0.28      0.00
   -4    5   12     -1.95      0.00
   -3    5   12      4.89      0.00
   -2    5   12     -5.07      0.00
   -1    5   12      2.56      0.00
    0    5   12     -0.06      0.00
    1    5   12     -1.16      0.00
    2    5   12      1.05      0.00
    3    5   12     -0.36      0.00
    4    5   12     -0.24      0.00
    5    5   12      0.39      0.00
    6    5   12     -0.06      0.00
    7    5   12     -0.39      0.00
    8    5   12      0.49      0.00
    9    5   12     -0.04      0.00
   10    5   12     -0.22      0.00
  -13    6   12     -0.50      0.00
  -12    6   12      0.90      0.00
  -11    6   12     -1.50      0.00
  -10    6   12      2.81      0.00
   -9    6   12     -2.40      0.00
   -8    6   12      0.74      0.00
   -7    6   12      0.50      0.00
   -6    6   12     -1.99      0.00
   -5    6   12      1.97      0.00
   -4    6   12      1.27      0.00
   -3    6   12     -3.64      0.00
   -2    6   12      2.13      0.00
   -1    6   12     -0.13      0.00
    0    6   12      0.06      0.00
    1    6   12     -0.35      0.00
    2    6   12      0.32      0.00
    3    6   12     -0.32      0.00
    4    6   12     -0.07      0.00
    5    6   12      0.76      0.00
    6    6   12     -0.57      0.00
    7    6   12     -0.66      0.00
    8    6   12      1.12      0.00
    9    6   12     -0.54      0.00
   10    6   12      0.12      0.00
  -12    7   12     -0.19      0.00
  -11    7   12     -0.47      0.00
  -10    7   12      0.55      0.00
   -9    7   12      0.24      0.00
   -8    7   12      0.64      0.00
   -7    7   12     -1.47      0.00
   -6    7   12      1.37      0.00
   -5    7   12     -2.70      0.00
   -4    7   12      1.69      0.00
   -3    7   12      3.47      0.00
   -2    7   12     -5.89      0.00
   -1    7   12      3.43      0.00
    0    7   12     -0.61      0.00
    1    7   12     -0.82      0.00
    2    7   12      1.31      0.00
    3    7   12     -1.02      0.00
    4    7   12      0.44      0.00
    5    7   12     -0.52      0.00
    6    7   12      1.40      0.00
    7    7   12     -1.58      0.00
    8    7   12      0.51      0.00
    9    7   12      0.31      0.00
  -12    8   12      0.44      0.00
  -11    8   12     -1.05      0.00
  -10    8   12      1.39      0.00
   -9    8   12     -1.36      0.00
   -8    8   12      1.51      0.00
   -7    8   12     -1.13      0.00
   -6    8   12      0.11      0.00
   -5    8   12      0.68      0.00
   -4    8   12     -0.97      0.00
   -3    8   12      0.56      0.00
   -2    8   12      0.21      0.00
   -1    8   12     -1.43      0.00
    0    8   12      2.39      0.00
    1    8   12     -1.08      0.00
    2    8   12     -1.12      0.00
    3    8   12      1.48      0.00
    4    8   12     -0.77      0.00
    5    8   12      0.26      0.00
    6    8   12      0.07      0.00
    7    8   12     -0.13      0.00
    8    8   12      0.13      0.00
    9    8   12     -0.42      0.00
  -11    9   12      0.10      0.00
  -10    9   12     -0.51      0.00
   -9    9   12      0.71      0.00
   -8    9   12      1.13      0.00
   -7    9   12     -1.64      0.00
   -6    9   12      0.57      0.00
   -5    9   12     -1.22      0.00
   -4    9   12      0.63      0.00
   -3    9   12      2.90      0.00
   -2    9   12     -3.74      0.00
   -1    9   12      1.31      0.00
    0    9   12     -0.98      0.00
    1    9   12      1.88      0.00
    2    9   12     -0.29      0.00
    3    9   12     -1.81      0.00
    4    9   12      1.97      0.00
    5    9   12     -1.75      0.00
    6    9   12      2.14      0.00
    7    9   12     -1.78      0.00
    8    9   12      0.62      0.00
  -11   10   12     -0.31      0.00
  -10   10   12      0.03      0.00
   -9   10   12     -0.78      0.00
   -8   10   12      1.47      0.00
   -7   10   12     -0.46      0.00
   -6   10   12     -0.21      0.00
   -5   10   12      0.73      0.00
   -4   10   12     -2.37      0.00
   -3   10   12      2.47      0.00
   -2   10   12     -0.78      0.00
   -1   10   12     -0.29      0.00
    0   10   12      0.87      0.00
    1   10   12     -1.19      0.00
    2   10   12      0.89      0.00
    3   10   12     -0.25      0.00
    4   10   12     -0.29      0.00
    5   10   12      0.21      0.00
    6   10   12     -0.26      0.00
    7   10   12      0.93      0.00
    8   10   12     -0.78      0.00
  -10   11   12     -0.97      0.00
   -9   11   12      0.81      0.00
   -8   11   12      0.44      0.00
   -7   11   12     -0.97      0.00
   -6   11   12      0.48      0.00
   -5   11   12     -0.03      0.00
   -4   11   12     -0.85      0.00
   -3   11   12      2.54      0.00
   -2   11   12     -2.58      0.00
   -1   11   12      0.55      0.00
    0   11   12     -0.49      0.00
    1   11   12      1.86      0.00
    2   11   12     -0.78      0.00
    3   11   12     -0.91      0.00
    4   11   12      1.04      0.00
    5   11   12     -1.23      0.00
    6   11   12      1.60      0.00
    7   11   12     -1.36      0.00
   -9   12   12     -0.17      0.00
   -8   12   12      1.07      0.00
   -7   12   12     -0.45      0.00
   -6   12   12     -0.58      0.00
   -5   12   12      1.95      0.00
   -4   12   12     -3.20      0.00
   -3   12   12      2.13      0.00
   -2   12   12      0.15      0.00
   -1   12   12     -0.33      0.00
    0   12   12     -0.45      0.00
    1   12   12     -0.77      0.00
    2   12   12      2.35      0.00
    3   12   12     -1.80      0.00
    4   12   12      0.69      0.00
    5   12   12     -0.53      0.00
    6   12   12      0.06      0.00
   -9   13   12     -0.07      0.00
   -8   13   12      0.52      0.00
   -7   13   12     -0.75      0.00
   -6   13   12      0.57      0.00
   -5   13   12     -0.33      0.00
   -4   13   12      0.86      0.00
   -3   13   12     -0.57      0.00
   -2   13   12     -1.09      0.00
   -1   13   12      1.46      0.00
    0   13   12     -0.51      0.00
    1   13   12     -0.11      0.00
    2   13   12      0.42      0.00
    3   13   12     -0.21      0.00
    4   13   12      0.00      0.00
    5   13   12     -0.50      0.00
    6   13   12      0.74      0.00
   -7   14   12     -1.28      0.00
   -6   14   12      0.35      0.00
   -5   14   12      1.31      0.00
   -4   14   12     -1.75      0.00
   -3   14   12      1.15      0.00
   -2   14   12     -0.11      0.00
   -1   14   12     -0.56      0.00
    0   14   12      0.32      0.00
    1   14   12     -0.60      0.00
    2   14   12      1.18      0.00
    3   14   12     -0.84      0.00
    4   14   12      0.71      0.00
   -6   15   12      0.14      0.00
   -5   15   12     -0.67      0.00
   -4   15   12      2.49      0.00
   -3   15   12     -2.31      0.00
   -2   15   12     -0.19      0.00
   -1   15   12      1.81      0.00
    0   15   12     -1.14      0.00
    1   15   12     -0.31      0.00
    2   15   12      0.79      0.00
    3   15   12     -0.43      0.00
   -4   16   12     -0.16      0.00
   -3   16   12      0.83      0.00
   -2   16   12     -1.10      0.00
   -1   16   12     -0.07      0.00
    0   16   12      0.87      0.00
    1   16   12     -0.43      0.00
  -13    1   13      0.48      0.00
  -12    1   13     -1.05      0.00
  -11    1   13      0.94      0.00
  -10    1   13      0.74      0.00
   -9    1   13     -2.68      0.00
   -8    1   13      4.08      0.00
   -7    1   13     -4.48      0.00
   -6    1   13      2.10      0.00
   -5    1   13      2.36      0.00
   -4    1   13     -4.99      0.00
   -3    1   13      3.90      0.00
   -2    1   13     -1.75      0.00
   -1    1   13      1.22      0.00
    0    1   13     -1.68      0.00
    1    1   13      1.77      0.00
    2    1   13     -0.43      0.00
    3    1   13     -1.74      0.00
    4    1   13      2.11      0.00
    5    1   13     -1.00      0.00
    6    1   13      0.10      0.00
    7    1   13      1.00      0.00
    8    1   13     -1.55      0.00
    9    1   13      0.74      0.00
   10    1   13     -0.09      0.00
  -13    2   13      0.15      0.00
  -12    2   13      0.16      0.00
  -11    2   13     -1.07      0.00
  -10    2   13      3.07      0.00
   -9    2   13     -3.94      0.00
   -8    2   13      2.23      0.00
   -7    2   13      0.93      0.00
   -6    2   13     -3.75      0.00
   -5    2   13      4.07      0.00
   -4    2   13     -0.91      0.00
   -3    2   13     -2.44      0.00
   -2    2   13      2.06      0.00
   -1    2   13      0.69      0.00
    0    2   13     -1.92      0.00
    1    2   13      0.36      0.00
    2    2   13      2.25      0.00
    3    2   13     -3.04      0.00
    4    2   13      1.51      0.00
    5    2   13      0.48      0.00
    6    2   13     -1.51      0.00
    7    2   13      0.78      0.00
    8    2   13      0.74      0.00
    9    2   13     -1.01      0.00
   10    2   13      0.04      0.00
  -13    3   13     -0.81      0.00
  -12    3   13      0.83      0.00
  -11    3   13     -1.76      0.00
  -10    3   13      2.89      0.00
   -9    3   13     -1.78      0.00
   -8    3   13      0.20      0.00
   -7    3   13     -0.16      0.00
   -6    3   13      0.57      0.00
   -5    3   13     -1.08      0.00
   -4    3   13      0.71      0.00
   -3    3   13      1.91      0.00
   -2    3   13     -4.50      0.00
   -1    3   13      4.05      0.00
    0    3   13     -0.99      0.00
    1    3   13     -1.88      0.00
    2    3   13      2.81      0.00
    3    3   13     -1.95      0.00
    4    3   13      0.13      0.00
    5    3   13      0.87      0.00
    6    3   13      0.02      0.00
    7    3   13     -0.95      0.00
    8    3   13      0.51      0.00
    9    3   13      0.33      0.00
   10    3   13     -0.72      0.00
  -13    4   13     -0.35      0.00
  -12    4   13      0.45      0.00
  -11    4   13     -1.04      0.00
  -10    4   13      2.04      0.00
   -9    4   13     -2.23      0.00
   -8    4   13      1.62      0.00
   -7    4   13     -0.11      0.00
   -6    4   13     -2.17      0.00
   -5    4   13      4.01      0.00
   -4    4   13     -4.12      0.00
   -3    4   13      2.22      0.00
   -2    4   13     -0.21      0.00
   -1    4   13     -0.49      0.00
    0    4   13      0.68      0.00
    1    4   13     -0.99      0.00
    2    4   13      1.31      0.00
    3    4   13     -1.13      0.00
    4    4   13      0.38      0.00
    5    4   13      0.28      0.00
    6    4   13     -0.48      0.00
    7    4   13      0.03      0.00
    8    4   13      0.44      0.00
    9    4   13     -0.24      0.00
   10    4   13     -0.07      0.00
  -13    5   13     -1.33      0.00
  -12    5   13      1.49      0.00
  -11    5   13     -2.77      0.00
  -10    5   13      3.32      0.00
   -9    5   13     -1.31      0.00
   -8    5   13     -0.63      0.00
   -7    5   13      1.47      0.00
   -6    5   13     -1.32      0.00
   -5    5   13     -1.18      0.00
   -4    5   13      3.21      0.00
   -3    5   13     -0.70      0.00
   -2    5   13     -3.15      0.00
   -1    5   13      3.26      0.00
    0    5   13     -0.55      0.00
    1    5   13     -1.71      0.00
    2    5   13      2.28      0.00
    3    5   13     -1.39      0.00
    4    5   13     -0.23      0.00
    5    5   13      0.81      0.00
    6    5   13      0.65      0.00
    7    5   13     -1.91      0.00
    8    5   13      1.13      0.00
    9    5   13      0.11      0.00
  -12    6   13      0.31      0.00
  -11    6   13     -0.43      0.00
  -10    6   13     -0.13      0.00
   -9    6   13      0.14      0.00
   -8    6   13      0.87      0.00
   -7    6   13     -0.86      0.00
   -6    6   13      0.37      0.00
   -5    6   13      0.99      0.00
   -4    6   13     -4.67      0.00
   -3    6   13      6.28      0.00
   -2    6   13     -2.98      0.00
   -1    6   13     -1.12      0.00
    0    6   13      2.83      0.00
    1    6   13     -2.30      0.00
    2    6   13      0.83      0.00
    3    6   13      0.17      0.00
    4    6   13     -0.18      0.00
    5    6   13     -0.61      0.00
    6    6   13      1.06      0.00
    7    6   13     -0.31      0.00
    8    6   13     -0.60      0.00
    9    6   13      0.58      0.00
  -12    7   13      0.95      0.00
  -11    7   13     -1.81      0.00
  -10    7   13      2.21      0.00
   -9    7   13     -1.93      0.00
   -8    7   13      1.55      0.00
   -7    7   13     -0.20      0.00
   -6    7   13     -1.20      0.00
   -5    7   13      0.68      0.00
   -4    7   13      0.87      0.00
   -3    7   13     -1.05      0.00
   -2    7   13      0.30      0.00
   -1    7   13     -0.46      0.00
    0    7   13      0.22      0.00
    1    7   13      1.12      0.00
    2    7   13     -1.15      0.00
    3    7   13     -0.06      0.00
    4    7   13      0.39      0.00
    5    7   13     -0.23      0.00
    6    7   13      0.62      0.00
    7    7   13     -0.84      0.00
    8    7   13      0.52      0.00
    9    7   13     -0.32      0.00
  -12    8   13     -0.06      0.00
  -11    8   13     -0.02      0.00
  -10    8   13     -0.65      0.00
   -9    8   13     -0.24      0.00
   -8    8   13      1.28      0.00
   -7    8   13     -0.05      0.00
   -6    8   13     -0.14      0.00
   -5    8   13     -0.16      0.00
   -4    8   13     -2.90      0.00
   -3    8   13      5.09      0.00
   -2    8   13     -2.44      0.00
   -1    8   13     -0.37      0.00
    0    8   13      0.60      0.00
    1    8   13     -1.03      0.00
    2    8   13      2.13      0.00
    3    8   13     -1.93      0.00
    4    8   13      1.06      0.00
    5    8   13     -1.22      0.00
    6    8   13      1.21      0.00
    7    8   13      0.14      0.00
    8    8   13     -1.03      0.00
  -11    9   13     -0.80      0.00
  -10    9   13      1.23      0.00
   -9    9   13     -2.09      0.00
   -8    9   13      1.65      0.00
   -7    9   13     -0.37      0.00
   -6    9   13     -0.23      0.00
   -5    9   13      1.15      0.00
   -4    9   13     -1.56      0.00
   -3    9   13      0.38      0.00
   -2    9   13      0.68      0.00
   -1    9   13     -1.26      0.00
    0    9   13      1.05      0.00
    1    9   13      0.35      0.00
    2    9   13     -1.04      0.00
    3    9   13      0.66      0.00
    4    9   13     -0.38      0.00
    5    9   13      0.35      0.00
    6    9   13     -0.66      0.00
    7    9   13      0.60      0.00
    8    9   13      0.34      0.00
  -11   10   13      0.26      0.00
  -10   10   13     -0.57      0.00
   -9   10   13     -0.36      0.00
   -8   10   13      0.83      0.00
   -7   10   13      0.41      0.00
   -6   10   13     -0.99      0.00
   -5   10   13      0.91      0.00
   -4   10   13     -2.23      0.00
   -3   10   13      2.91      0.00
   -2   10   13     -0.81      0.00
   -1   10   13     -0.29      0.00
    0   10   13     -1.27      0.00
    1   10   13      0.75      0.00
    2   10   13      1.97      0.00
    3   10   13     -2.37      0.00
    4   10   13      1.25      0.00
    5   10   13     -1.17      0.00
    6   10   13      1.08      0.00
    7   10   13     -0.30      0.00
  -10   11   13      0.21      0.00
   -9   11   13     -1.15      0.00
   -8   11   13      0.46      0.00
   -7   11   13      0.46      0.00
   -6   11   13     -0.51      0.00
   -5   11   13      1.56      0.00
   -4   11   13     -2.09      0.00
   -3   11   13      0.65      0.00
   -2   11   13     -0.03      0.00
   -1   11   13      0.29      0.00
    0   11   13      0.98      0.00
    1   11   13     -2.52      0.00
    2   11   13      1.85      0.00
    3   11   13      0.04      0.00
    4   11   13     -0.74      0.00
    5   11   13      0.67      0.00
    6   11   13     -1.10      0.00
    7   11   13      0.95      0.00
   -9   12   13      0.05      0.00
   -8   12   13      0.09      0.00
   -7   12   13     -0.05      0.00
   -6   12   13     -0.43      0.00
   -5   12   13      0.73      0.00
   -4   12   13     -0.68      0.00
   -3   12   13      1.12      0.00
   -2   12   13     -0.56      0.00
   -1   12   13     -0.75      0.00
    0   12   13      0.40      0.00
    1   12   13      0.02      0.00
    2   12   13      0.47      0.00
    3   12   13     -0.25      0.00
    4   12   13      0.20      0.00
    5   12   13     -0.86      0.00
    6   12   13      1.04      0.00
   -8   13   13      0.66      0.00
   -7   13   13     -0.34      0.00
   -6   13   13     -0.57      0.00
   -5   13   13      1.39      0.00
   -4   13   13     -1.21      0.00
   -3   13   13      0.22      0.00
   -2   13   13      0.22      0.00
   -1   13   13      0.18      0.00
    0   13   13      0.69      0.00
    1   13   13     -2.54      0.00
    2   13   13      2.19      0.00
    3   13   13     -0.58      0.00
    4   13   13      0.36      0.00
    5   13   13     -0.35      0.00
   -7   14   13     -0.24      0.00
   -6   14   13     -0.05      0.00
   -5   14   13     -0.63      0.00
   -4   14   13      1.48      0.00
   -3   14   13     -0.27      0.00
   -2   14   13     -0.85      0.00
   -1   14   13     -0.42      0.00
    0   14   13      1.73      0.00
    1   14   13     -1.20      0.00
    2   14   13     -0.10      0.00
    3   14   13      0.65      0.00
    4   14   13     -0.17      0.00
   -5   15   13      0.28      0.00
   -4   15   13     -0.31      0.00
   -3   15   13      0.54      0.00
   -2   15   13      0.24      0.00
   -1   15   13     -0.75      0.00
    0   15   13      0.27      0.00
    1   15   13      0.00      0.00
    2   15   13     -0.23      0.00
  -13    0   14      1.09      0.00
  -12    0   14     -1.55      0.00
  -11    0   14      0.13      0.00
  -10    0   14      2.77      0.00
   -9    0   14     -4.01      0.00
   -8    0   14      3.02      0.00
   -7    0   14     -0.50      0.00
   -6    0   14     -3.46      0.00
   -5    0   14      6.09      0.00
   -4    0   14     -4.37      0.00
   -3    0   14      0.93      0.00
   -2    0   14     -0.37      0.00
   -1    0   14      1.95      0.00
    0    0   14     -2.42      0.00
    1    0   14      0.52      0.00
    2    0   14      2.76      0.00
    3    0   14     -3.99      0.00
    4    0   14      2.20      0.00
    5    0   14     -0.21      0.00
    6    0   14     -1.40      0.00
    7    0   14      2.41      0.00
    8    0   14     -1.49      0.00
    9    0   14      0.26      0.00
   10    0   14     -0.60      0.00
  -13    1   14     -0.02      0.00
  -12    1   14      0.40      0.00
  -11    1   14     -1.46      0.00
  -10    1   14      2.05      0.00
   -9    1   14     -0.91      0.00
   -8    1   14     -0.85      0.00
   -7    1   14      1.86      0.00
   -6    1   14     -1.64      0.00
   -5    1   14     -0.03      0.00
   -4    1   14      1.77      0.00
   -3    1   14     -1.37      0.00
   -2    1   14     -0.58      0.00
   -1    1   14      1.41      0.00
    0    1   14     -0.29      0.00
    1    1   14     -1.51      0.00
    2    1   14      2.11      0.00
    3    1   14     -1.03      0.00
    4    1   14     -0.43      0.00
    5    1   14      1.16      0.00
    6    1   14     -0.74      0.00
    7    1   14     -0.45      0.00
    8    1   14      0.91      0.00
    9    1   14     -0.20      0.00
  -13    2   14     -0.07      0.00
  -12    2   14      0.02      0.00
  -11    2   14     -1.22      0.00
  -10    2   14      2.32      0.00
   -9    2   14     -1.76      0.00
   -8    2   14      0.94      0.00
   -7    2   14     -0.19      0.00
   -6    2   14     -1.48      0.00
   -5    2   14      3.17      0.00
   -4    2   14     -3.61      0.00
   -3    2   14      3.07      0.00
   -2    2   14     -2.39      0.00
   -1    2   14      1.29      0.00
    0    2   14      0.38      0.00
    1    2   14     -1.96      0.00
    2    2   14      2.97      0.00
    3    2   14     -2.44      0.00
    4    2   14      0.75      0.00
    5    2   14     -0.10      0.00
    6    2   14      0.02      0.00
    7    2   14      0.65      0.00
    8    2   14     -0.88      0.00
    9    2   14      0.60      0.00
  -13    3   14     -0.36      0.00
  -12    3   14      0.71      0.00
  -11    3   14     -2.19      0.00
  -10    3   14      2.90      0.00
   -9    3   14     -1.30      0.00
   -8    3   14     -0.91      0.00
   -7    3   14      2.59      0.00
   -6    3   14     -3.26      0.00
   -5    3   14      1.80      0.00
   -4    3   14      0.86      0.00
   -3    3   14     -1.61      0.00
   -2    3   14      0.01      0.00
   -1    3   14      0.89      0.00
    0    3   14      0.28      0.00
    1    3   14     -2.06      0.00
    2    3   14      2.48      0.00
    3    3   14     -1.05      0.00
    4    3   14     -0.71      0.00
    5    3   14      1.50      0.00
    6    3   14     -0.81      0.00
    7    3   14     -0.78      0.00
    8    3   14      1.22      0.00
    9    3   14     -0.19      0.00
  -13    4   14     -1.42      0.00
  -12    4   14      1.96      0.00
  -11    4   14     -2.81      0.00
  -10    4   14      1.54      0.00
   -9    4   14      0.79      0.00
   -8    4   14     -1.44      0.00
   -7    4   14      0.95      0.00
   -6    4   14      0.07      0.00
   -5    4   14     -0.68      0.00
   -4    4   14     -1.46      0.00
   -3    4   14      4.60      0.00
   -2    4   14     -4.36      0.00
   -1    4   14      0.64      0.00
    0    4   14      2.94      0.00
    1    4   14     -3.96      0.00
    2    4   14      2.78      0.00
    3    4   14     -0.69      0.00
    4    4   14     -0.69      0.00
    5    4   14     -0.21      0.00
    6    4   14      1.86      0.00
    7    4   14     -1.38      0.00
    8    4   14     -0.27      0.00
    9    4   14      0.91      0.00
  -12    5   14      0.28      0.00
  -11    5   14     -0.32      0.00
  -10    5   14      0.28      0.00
   -9    5   14     -0.47      0.00
   -8    5   14      0.46      0.00
   -7    5   14      0.51      0.00
   -6    5   14     -2.09      0.00
   -5    5   14      3.89      0.00
   -4    5   14     -3.93      0.00
   -3    5   14      1.06      0.00
   -2    5   14      1.86      0.00
   -1    5   14     -2.79      0.00
    0    5   14      2.11      0.00
    1    5   14     -0.64      0.00
    2    5   14     -0.39      0.00
    3    5   14      0.58      0.00
    4    5   14     -0.22      0.00
    5    5   14     -0.20      0.00
    6    5   14      0.14      0.00
    7    5   14      0.12      0.00
    8    5   14     -0.16      0.00
    9    5   14      0.01      0.00
  -12    6   14      1.72      0.00
  -11    6   14     -2.46      0.00
  -10    6   14      1.59      0.00
   -9    6   14     -0.44      0.00
   -8    6   14     -0.48      0.00
   -7    6   14      1.70      0.00
   -6    6   14     -1.32      0.00
   -5    6   14     -0.55      0.00
   -4    6   14      0.45      0.00
   -3    6   14      1.66      0.00
   -2    6   14     -2.01      0.00
   -1    6   14      0.33      0.00
    0    6   14      0.60      0.00
    1    6   14     -0.85      0.00
    2    6   14      1.38      0.00
    3    6   14     -1.07      0.00
    4    6   14      0.12      0.00
    5    6   14     -0.47      0.00
    6    6   14      1.41      0.00
    7    6   14     -0.91      0.00
    8    6   14     -0.13      0.00
    9    6   14      0.40      0.00
  -12    7   14     -0.20      0.00
  -11    7   14      0.89      0.00
  -10    7   14     -0.80      0.00
   -9    7   14     -0.62      0.00
   -8    7   14      0.54      0.00
   -7    7   14      0.39      0.00
   -6    7   14     -0.52      0.00
   -5    7   14      2.66      0.00
   -4    7   14     -4.91      0.00
   -3    7   14      2.38      0.00
   -2    7   14      1.85      0.00
   -1    7   14     -3.03      0.00
    0    7   14      2.04      0.00
    1    7   14     -0.98      0.00
    2    7   14      0.17      0.00
    3    7   14      0.39      0.00
    4    7   14     -0.03      0.00
    5    7   14     -0.64      0.00
    6    7   14     -0.16      0.00
    7    7   14      1.34      0.00
    8    7   14     -0.96      0.00
  -11    8   14     -1.50      0.00
  -10    8   14      2.11      0.00
   -9    8   14     -2.12      0.00
   -8    8   14      0.66      0.00
   -7    8   14      1.00      0.00
   -6    8   14     -1.59      0.00
   -5    8   14      1.09      0.00
   -4    8   14      0.21      0.00
   -3    8   14     -0.84      0.00
   -2    8   14      0.80      0.00
   -1    8   14     -0.51      0.00
    0    8   14     -0.92      0.00
    1    8   14      1.57      0.00
    2    8   14     -0.11      0.00
    3    8   14     -0.85      0.00
    4    8   14      0.40      0.00
    5    8   14      0.07      0.00
    6    8   14     -0.16      0.00
    7    8   14     -0.19      0.00
    8    8   14      0.59      0.00
  -11    9   14      0.68      0.00
  -10    9   14     -0.23      0.00
   -9    9   14     -0.76      0.00
   -8    9   14     -0.38      0.00
   -7    9   14      1.41      0.00
   -6    9   14     -0.46      0.00
   -5    9   14      0.90      0.00
   -4    9   14     -2.44      0.00
   -3    9   14      1.17      0.00
   -2    9   14      0.93      0.00
   -1    9   14     -0.22      0.00
    0    9   14     -0.36      0.00
    1    9   14     -1.60      0.00
    2    9   14      2.37      0.00
    3    9   14     -0.62      0.00
    4    9   14     -0.26      0.00
    5    9   14     -0.05      0.00
    6    9   14     -0.54      0.00
    7    9   14      1.24      0.00
  -10   10   14      1.54      0.00
   -9   10   14     -1.37      0.00
   -8   10   14     -0.08      0.00
   -7   10   14      0.31      0.00
   -6   10   14     -0.69      0.00
   -5   10   14      1.81      0.00
   -4   10   14     -1.09      0.00
   -3   10   14     -0.03      0.00
   -2   10   14      0.02      0.00
   -1   10   14     -0.67      0.00
    0   10   14      1.41      0.00
    1   10   14     -0.90      0.00
    2   10   14     -0.14      0.00
    3   10   14      0.73      0.00
    4   10   14     -0.67      0.00
    5   10   14      0.81      0.00
    6   10   14     -0.83      0.00
    7   10   14     -0.28      0.00
   -9   11   14      0.06      0.00
   -8   11   14     -0.59      0.00
   -7   11   14      0.96      0.00
   -6   11   14     -0.79      0.00
   -5   11   14      0.40      0.00
   -4   11   14     -0.42      0.00
   -3   11   14      0.03      0.00
   -2   11   14      0.93      0.00
   -1   11   14     -0.11      0.00
    0   11   14     -0.87      0.00
    1   11   14     -0.57      0.00
    2   11   14      1.26      0.00
    3   11   14     -0.06      0.00
    4   11   14     -0.17      0.00
    5   11   14     -0.35      0.00
    6   11   14      0.24      0.00
   -9   12   14     -0.32      0.00
   -8   12   14     -0.14      0.00
   -7   12   14      0.05      0.00
   -6   12   14     -0.54      0.00
   -5   12   14      1.50      0.00
   -4   12   14     -1.37      0.00
   -3   12   14      1.00      0.00
   -2   12   14     -1.14      0.00
   -1   12   14     -0.28      0.00
    0   12   14      3.09      0.00
    1   12   14     -3.31      0.00
    2   12   14      0.62      0.00
    3   12   14      0.85      0.00
    4   12   14     -0.43      0.00
    5   12   14      0.44      0.00
   -8   13   14     -0.20      0.00
   -7   13   14      0.20      0.00
   -6   13   14     -0.47      0.00
   -5   13   14     -0.35      0.00
   -4   13   14      0.65      0.00
   -3   13   14     -0.07      0.00
   -2   13   14      1.14      0.00
   -1   13   14     -2.16      0.00
    0   13   14      0.94      0.00
    1   13   14      0.58      0.00
    2   13   14     -1.22      0.00
    3   13   14      0.97      0.00
    4   13   14     -0.01      0.00
   -6   14   14     -0.29      0.00
   -5   14   14      0.48      0.00
   -4   14   14     -0.85      0.00
   -3   14   14      0.71      0.00
   -2   14   14     -0.14      0.00
   -1   14   14     -0.27      0.00
    0   14   14      1.28      0.00
    1   14   14     -1.49      0.00
    2   14   14      0.31      0.00
    3   14   14     -0.13      0.00
   -4   15   14      0.96      0.00
   -3   15   14     -0.14      0.00
   -2   15   14      0.74      0.00
   -1   15   14     -1.85      0.00
    0   15   14      1.16      0.00
  -13    1   15      1.23      0.00
  -12    1   15     -0.74      0.00
  -11    1   15     -1.61      0.00
  -10    1   15      2.70      0.00
   -9    1   15     -0.95      0.00
   -8    1   15     -1.16      0.00
   -7    1   15      2.94      0.00
   -6    1   15     -4.41      0.00
   -5    1   15      3.47      0.00
   -4    1   15     -0.49      0.00
   -3    1   15     -0.71      0.00
   -2    1   15     -0.47      0.00
   -1    1   15      0.86      0.00
    0    1   15      0.80      0.00
    1    1   15     -3.36      0.00
    2    1   15      4.35      0.00
    3    1   15     -2.32      0.00
    4    1   15     -0.10      0.00
    5    1   15      1.26      0.00
    6    1   15     -2.13      0.00
    7    1   15      1.82      0.00
    8    1   15     -0.51      0.00
    9    1   15      0.39      0.00
  -13    2   15     -0.26      0.00
  -12    2   15      1.35      0.00
  -11    2   15     -2.41      0.00
  -10    2   15      0.98      0.00
   -9    2   15      1.35      0.00
   -8    2   15     -2.02      0.00
   -7    2   15      1.44      0.00
   -6    2   15      0.07      0.00
   -5    2   15     -1.98      0.00
   -4    2   15      1.91      0.00
   -3    2   15      0.49      0.00
   -2    2   15     -1.89      0.00
   -1    2   15      0.50      0.00
    0    2   15      1.86      0.00
    1    2   15     -2.66      0.00
    2    2   15      1.14      0.00
    3    2   15      0.99      0.00
    4    2   15     -1.88      0.00
    5    2   15      1.16      0.00
    6    2   15      0.71      0.00
    7    2   15     -1.78      0.00
    8    2   15      0.75      0.00
    9    2   15      0.60      0.00
  -13    3   15     -0.54      0.00
  -12    3   15      1.03      0.00
  -11    3   15     -1.27      0.00
  -10    3   15      0.05      0.00
   -9    3   15      1.06      0.00
   -8    3   15     -0.99      0.00
   -7    3   15      0.85      0.00
   -6    3   15     -1.30      0.00
   -5    3   15      2.32      0.00
   -4    3   15     -3.04      0.00
   -3    3   15      2.20      0.00
   -2    3   15      0.13      0.00
   -1    3   15     -2.68      0.00
    0    3   15      3.89      0.00
    1    3   15     -3.45      0.00
    2    3   15      1.98      0.00
    3    3   15     -0.17      0.00
    4    3   15     -0.29      0.00
    5    3   15     -0.66      0.00
    6    3   15      0.48      0.00
    7    3   15      0.74      0.00
    8    3   15     -1.00      0.00
    9    3   15      0.59      0.00
  -12    4   15      0.77      0.00
  -11    4   15     -1.45      0.00
  -10    4   15      0.75      0.00
   -9    4   15      0.26      0.00
   -8    4   15     -0.79      0.00
   -7    4   15      1.48      0.00
   -6    4   15     -1.91      0.00
   -5    4   15      1.04      0.00
   -4    4   15      0.58      0.00
   -3    4   15     -1.03      0.00
   -2    4   15      0.58      0.00
   -1    4   15     -0.66      0.00
    0    4   15      0.80      0.00
    1    4   15     -0.42      0.00
    2    4   15     -0.30      0.00
    3    4   15      0.97      0.00
    4    4   15     -1.04      0.00
    5    4   15      0.52      0.00
    6    4   15      0.42      0.00
    7    4   15     -0.99      0.00
    8    4   15      0.49      0.00
    9    4   15      0.22      0.00
  -12    5   15      1.79      0.00
  -11    5   15     -1.01      0.00
  -10    5   15     -0.80      0.00
   -9    5   15      1.43      0.00
   -8    5   15     -1.62      0.00
   -7    5   15      1.48      0.00
   -6    5   15     -0.39      0.00
   -5    5   15      0.58      0.00
   -4    5   15     -2.56      0.00
   -3    5   15      2.76      0.00
   -2    5   15      0.03      0.00
   -1    5   15     -2.70      0.00
    0    5   15      3.16      0.00
    1    5   15     -2.35      0.00
    2    5   15      1.03      0.00
    3    5   15      0.46      0.00
    4    5   15     -0.46      0.00
    5    5   15     -1.08      0.00
    6    5   15      1.18      0.00
    7    5   15      0.39      0.00
    8    5   15     -1.02      0.00
  -12    6   15     -0.55      0.00
  -11    6   15      0.57      0.00
  -10    6   15      0.41      0.00
   -9    6   15     -1.04      0.00
   -8    6   15      0.27      0.00
   -7    6   15      0.66      0.00
   -6    6   15     -2.15      0.00
   -5    6   15      3.62      0.00
   -4    6   15     -1.64      0.00
   -3    6   15     -2.10      0.00
   -2    6   15      3.23      0.00
   -1    6   15     -1.81      0.00
    0    6   15     -0.26      0.00
    1    6   15      1.55      0.00
    2    6   15     -1.56      0.00
    3    6   15      0.82      0.00
    4    6   15      0.14      0.00
    5    6   15     -0.20      0.00
    6    6   15     -0.60      0.00
    7    6   15      0.53      0.00
    8    6   15      0.21      0.00
  -11    7   15     -1.29      0.00
  -10    7   15      0.87      0.00
   -9    7   15      0.05      0.00
   -8    7   15     -1.83      0.00
   -7    7   15      2.64      0.00
   -6    7   15     -1.41      0.00
   -5    7   15     -0.27      0.00
   -4    7   15      0.52      0.00
   -3    7   15     -0.03      0.00
   -2    7   15      0.32      0.00
   -1    7   15     -0.16      0.00
    0    7   15     -0.45      0.00
    1    7   15     -0.54      0.00
    2    7   15      1.53      0.00
    3    7   15     -0.58      0.00
    4    7   15     -0.34      0.00
    5    7   15      0.09      0.00
    6    7   15      0.10      0.00
    7    7   15      0.07      0.00
    8    7   15     -0.17      0.00
  -11    8   15      0.89      0.00
  -10    8   15      0.54      0.00
   -9    8   15     -0.67      0.00
   -8    8   15     -0.63      0.00
   -7    8   15      0.12      0.00
   -6    8   15      0.05      0.00
   -5    8   15      1.81      0.00
   -4    8   15     -1.44      0.00
   -3    8   15     -1.26      0.00
   -2    8   15      1.68      0.00
   -1    8   15     -0.16      0.00
    0    8   15     -0.07      0.00
    1    8   15     -0.30      0.00
    2    8   15     -0.63      0.00
    3    8   15      1.32      0.00
    4    8   15     -0.48      0.00
    5    8   15      0.26      0.00
    6    8   15     -1.13      0.00
    7    8   15      0.88      0.00
  -10    9   15      1.72      0.00
   -9    9   15     -0.31      0.00
   -8    9   15     -1.07      0.00
   -7    9   15      1.36      0.00
   -6    9   15     -1.69      0.00
   -5    9   15      0.83      0.00
   -4    9   15      0.78      0.00
   -3    9   15     -0.82      0.00
   -2    9   15      0.54      0.00
   -1    9   15     -0.39      0.00
    0    9   15     -0.18      0.00
    1    9   15     -0.09      0.00
    2    9   15      0.64      0.00
    3    9   15     -0.34      0.00
    4    9   15     -0.26      0.00
    5    9   15      0.64      0.00
    6    9   15     -0.07      0.00
    7    9   15     -0.88      0.00
  -10   10   15      0.22      0.00
   -9   10   15      0.27      0.00
   -8   10   15     -0.97      0.00
   -7   10   15      0.12      0.00
   -6   10   15      0.92      0.00
   -5   10   15     -0.61      0.00
   -4   10   15      0.14      0.00
   -3   10   15     -0.46      0.00
   -2   10   15     -0.30      0.00
   -1   10   15      1.70      0.00
    0   10   15     -0.43      0.00
    1   10   15     -1.31      0.00
    2   10   15     -0.05      0.00
    3   10   15      1.54      0.00
    4   10   15     -0.93      0.00
    5   10   15      0.39      0.00
    6   10   15     -0.59      0.00
   -9   11   15      0.23      0.00
   -8   11   15     -0.39      0.00
   -7   11   15      0.20      0.00
   -6   11   15     -1.55      0.00
   -5   11   15      2.26      0.00
   -4   11   15     -1.58      0.00
   -3   11   15      1.36      0.00
   -2   11   15     -0.28      0.00
   -1   11   15     -2.28      0.00
    0   11   15      3.09      0.00
    1   11   15     -1.02      0.00
    2   11   15     -0.87      0.00
    3   11   15      0.69      0.00
    4   11   15     -0.21      0.00
    5   11   15      0.33      0.00
   -8   12   15     -0.36      0.00
   -7   12   15      0.34      0.00
   -6   12   15      0.20      0.00
   -5   12   15     -1.17      0.00
   -4   12   15      0.83      0.00
   -3   12   15     -0.70      0.00
   -2   12   15      1.00      0.00
   -1   12   15      0.23      0.00
    0   12   15     -1.11      0.00
    1   12   15      0.88      0.00
    2   12   15     -1.14      0.00
    3   12   15      1.01      0.00
    4   12   15     -0.16      0.00
   -7   13   15      0.11      0.00
   -6   13   15     -0.96      0.00
   -5   13   15      1.89      0.00
   -4   13   15     -2.27      0.00
   -3   13   15      1.74      0.00
   -2   13   15     -0.32      0.00
   -1   13   15     -2.10      0.00
    0   13   15      3.24      0.00
    1   13   15     -1.20      0.00
    2   13   15     -0.71      0.00
    3   13   15      0.20      0.00
   -5   14   15     -1.01      0.00
   -4   14   15      0.79      0.00
   -3   14   15     -1.08      0.00
   -2   14   15      2.26      0.00
   -1   14   15     -1.35      0.00
    0   14   15     -1.30      0.00
    1   14   15      2.55      0.00
  -12    0   16      0.27      0.00
  -11    0   16     -2.37      0.00
  -10    0   16      0.89      0.00
   -9    0   16      1.98      0.00
   -8    0   16     -2.91      0.00
   -7    0   16      2.96      0.00
   -6    0   16     -1.95      0.00
   -5    0   16     -1.10      0.00
   -4    0   16      2.87      0.00
   -3    0   16     -1.06      0.00
   -2    0   16     -0.81      0.00
   -1    0   16     -0.21      0.00
    0    0   16      2.92      0.00
    1    0   16     -4.58      0.00
    2    0   16      2.87      0.00
    3    0   16      0.42      0.00
    4    0   16     -2.04      0.00
    5    0   16      2.61      0.00
    6    0   16     -2.30      0.00
    7    0   16      0.54      0.00
    8    0   16      0.22      0.00
  -12    1   16      0.92      0.00
  -11    1   16     -0.44      0.00
  -10    1   16     -0.91      0.00
   -9    1   16      1.04      0.00
   -8    1   16     -0.13      0.00
   -7    1   16     -0.66      0.00
   -6    1   16      1.28      0.00
   -5    1   16     -1.06      0.00
   -4    1   16     -0.32      0.00
   -3    1   16      1.26      0.00
   -2    1   16     -0.53      0.00
   -1    1   16     -0.92      0.00
    0    1   16      1.51      0.00
    1    1   16     -0.65      0.00
    2    1   16     -0.71      0.00
    3    1   16      1.22      0.00
    4    1   16     -0.70      0.00
    5    1   16     -0.40      0.00
    6    1   16      1.24      0.00
    7    1   16     -0.77      0.00
    8    1   16     -0.28      0.00
  -12    2   16      0.37      0.00
  -11    2   16     -1.19      0.00
  -10    2   16      0.08      0.00
   -9    2   16      1.20      0.00
   -8    2   16     -1.36      0.00
   -7    2   16      1.54      0.00
   -6    2   16     -1.62      0.00
   -5    2   16      0.40      0.00
   -4    2   16      1.09      0.00
   -3    2   16     -1.28      0.00
   -2    2   16      1.25      0.00
   -1    2   16     -2.10      0.00
    0    2   16      3.03      0.00
    1    2   16     -3.05      0.00
    2    2   16      1.44      0.00
    3    2   16      0.53      0.00
    4    2   16     -0.94      0.00
    5    2   16      1.08      0.00
    6    2   16     -1.57      0.00
    7    2   16      0.93      0.00
    8    2   16     -0.14      0.00
  -12    3   16      1.56      0.00
  -11    3   16     -0.97      0.00
  -10    3   16     -0.96      0.00
   -9    3   16      1.18      0.00
   -8    3   16     -0.36      0.00
   -7    3   16     -0.03      0.00
   -6    3   16      0.69      0.00
   -5    3   16     -1.14      0.00
   -4    3   16     -0.01      0.00
   -3    3   16      1.39      0.00
   -2    3   16     -0.74      0.00
   -1    3   16     -0.98      0.00
    0    3   16      1.50      0.00
    1    3   16     -0.33      0.00
    2    3   16     -1.36      0.00
    3    3   16      1.95      0.00
    4    3   16     -1.14      0.00
    5    3   16     -0.53      0.00
    6    3   16      1.86      0.00
    7    3   16     -1.26      0.00
    8    3   16     -0.32      0.00
  -12    4   16      0.49      0.00
  -11    4   16      0.57      0.00
  -10    4   16     -1.11      0.00
   -9    4   16      0.78      0.00
   -8    4   16     -0.64      0.00
   -7    4   16      0.50      0.00
   -6    4   16     -0.79      0.00
   -5    4   16      1.69      0.00
   -4    4   16     -1.27      0.00
   -3    4   16     -1.02      0.00
   -2    4   16      3.23      0.00
   -1    4   16     -3.67      0.00
    0    4   16      2.45      0.00
    1    4   16     -0.80      0.00
    2    4   16     -0.64      0.00
    3    4   16      1.11      0.00
    4    4   16      0.05      0.00
    5    4   16     -0.67      0.00
    6    4   16     -0.64      0.00
    7    4   16      1.36      0.00
    8    4   16     -0.59      0.00
  -12    5   16      0.42      0.00
  -11    5   16     -0.83      0.00
  -10    5   16      0.75      0.00
   -9    5   16     -0.30      0.00
   -8    5   16     -0.46      0.00
   -7    5   16      1.50      0.00
   -6    5   16     -2.26      0.00
   -5    5   16      1.08      0.00
   -4    5   16      0.98      0.00
   -3    5   16     -1.23      0.00
   -2    5   16      0.32      0.00
   -1    5   16      0.61      0.00
    0    5   16     -1.42      0.00
    1    5   16      1.51      0.00
    2    5   16     -1.12      0.00
    3    5   16      0.61      0.00
    4    5   16     -0.12      0.00
    5    5   16     -0.10      0.00
    6    5   16      0.48      0.00
    7    5   16     -0.78      0.00
    8    5   16      0.32      0.00
  -11    6   16      0.49      0.00
  -10    6   16     -0.99      0.00
   -9    6   16      1.63      0.00
   -8    6   16     -2.47      0.00
   -7    6   16      1.60      0.00
   -6    6   16      0.02      0.00
   -5    6   16     -0.19      0.00
   -4    6   16     -0.23      0.00
   -3    6   16     -0.65      0.00
   -2    6   16      1.79      0.00
   -1    6   16     -1.40      0.00
    0    6   16      0.80      0.00
    1    6   16     -0.68      0.00
    2    6   16     -0.37      0.00
    3    6   16      1.40      0.00
    4    6   16     -0.68      0.00
    5    6   16     -0.14      0.00
    6    6   16     -0.39      0.00
    7    6   16      0.80      0.00
  -11    7   16     -0.47      0.00
  -10    7   16      1.44      0.00
   -9    7   16     -0.41      0.00
   -8    7   16     -0.23      0.00
   -7    7   16      0.20      0.00
   -6    7   16     -1.68      0.00
   -5    7   16      1.83      0.00
   -4    7   16      0.76      0.00
   -3    7   16     -1.82      0.00
   -2    7   16      0.17      0.00
   -1    7   16      1.42      0.00
    0    7   16     -1.80      0.00
    1    7   16      1.61      0.00
    2    7   16     -1.23      0.00
    3    7   16      0.18      0.00
    4    7   16      0.66      0.00
    5    7   16     -0.07      0.00
    6    7   16     -0.21      0.00
    7    7   16     -0.60      0.00
  -11    8   16     -0.74      0.00
  -10    8   16     -0.07      0.00
   -9    8   16      1.70      0.00
   -8    8   16     -2.45      0.00
   -7    8   16      1.87      0.00
   -6    8   16     -0.30      0.00
   -5    8   16     -1.53      0.00
   -4    8   16      1.64      0.00
   -3    8   16     -0.84      0.00
   -2    8   16      0.45      0.00
   -1    8   16      0.24      0.00
    0    8   16      0.05      0.00
    1    8   16     -1.25      0.00
    2    8   16      0.80      0.00
    3    8   16      0.57      0.00
    4    8   16     -1.01      0.00
    5    8   16      0.60      0.00
    6    8   16      0.12      0.00
    7    8   16     -0.29      0.00
  -10    9   16      0.72      0.00
   -9    9   16      0.24      0.00
   -8    9   16      0.20      0.00
   -7    9   16     -1.62      0.00
   -6    9   16      1.03      0.00
   -5    9   16      0.29      0.00
   -4    9   16     -0.20      0.00
   -3    9   16      0.39      0.00
   -2    9   16     -1.83      0.00
   -1    9   16      1.81      0.00
    0    9   16     -0.16      0.00
    1    9   16      0.36      0.00
    2    9   16     -1.79      0.00
    3    9   16      1.18      0.00
    4    9   16      0.20      0.00
    5    9   16     -0.16      0.00
    6    9   16     -0.06      0.00
   -9   10   16      0.97      0.00
   -8   10   16     -0.77      0.00
   -7   10   16      1.34      0.00
   -6   10   16     -2.02      0.00
   -5   10   16      0.84      0.00
   -4   10   16     -0.10      0.00
   -3   10   16      0.05      0.00
   -2   10   16      1.15      0.00
   -1   10   16     -1.89      0.00
    0   10   16      1.15      0.00
    1   10   16     -0.28      0.00
    2   10   16      0.08      0.00
    3   10   16     -0.09      0.00
    4   10   16     -0.33      0.00
    5   10   16      0.28      0.00
   -8   11   16      0.13      0.00
   -7   11   16     -0.87      0.00
   -6   11   16      1.57      0.00
   -5   11   16     -1.03      0.00
   -4   11   16     -0.25      0.00
   -3   11   16      0.85      0.00
   -2   11   16     -1.76      0.00
   -1   11   16      2.00      0.00
    0   11   16     -0.66      0.00
    1   11   16      0.67      0.00
    2   11   16     -1.75      0.00
    3   11   16      1.25      0.00
    4   11   16     -0.15      0.00
   -7   12   16      1.11      0.00
   -6   12   16     -2.62      0.00
   -5   12   16      3.04      0.00
   -4   12   16     -2.45      0.00
   -3   12   16      0.95      0.00
   -2   12   16      1.77      0.00
   -1   12   16     -3.63      0.00
    0   12   16      2.02      0.00
    1   12   16      0.74      0.00
    2   12   16     -0.92      0.00
    3   12   16     -0.16      0.00
   -6   13   16      0.75      0.00
   -5   13   16     -1.19      0.00
   -4   13   16      0.60      0.00
   -3   13   16     -1.02      0.00
   -2   13   16      0.56      0.00
   -1   13   16      1.57      0.00
    0   13   16     -2.54      0.00
    1   13   16      1.91      0.00
    2   13   16     -0.96      0.00
   -4   14   16     -1.51      0.00
   -3   14   16      0.16      0.00
   -2   14   16      0.91      0.00
   -1   14   16     -1.84      0.00
    0   14   16      1.29      0.00
  -12    1   17      1.30      0.00
  -11    1   17     -1.03      0.00
  -10    1   17     -1.27      0.00
   -9    1   17      1.71      0.00
   -8    1   17     -0.66      0.00
   -7    1   17      0.12      0.00
   -6    1   17      1.14      0.00
   -5    1   17     -2.76      0.00
   -4    1   17      2.05      0.00
   -3    1   17     -0.12      0.00
   -2    1   17      0.17      0.00
   -1    1   17     -1.90      0.00
    0    1   17      3.18      0.00
    1    1   17     -2.25      0.00
    2    1   17     -0.47      0.00
    3    1   17      1.95      0.00
    4    1   17     -1.93      0.00
    5    1   17      1.90      0.00
    6    1   17     -0.83      0.00
    7    1   17     -0.47      0.00
    8    1   17      0.12      0.00
  -12    2   17      0.47      0.00
  -11    2   17      1.07      0.00
  -10    2   17     -1.24      0.00
   -9    2   17     -0.44      0.00
   -8    2   17      1.28      0.00
   -7    2   17     -1.19      0.00
   -6    2   17      0.90      0.00
   -5    2   17      0.28      0.00
   -4    2   17     -1.51      0.00
   -3    2   17      0.93      0.00
   -2    2   17      0.87      0.00
   -1    2   17     -1.71      0.00
    0    2   17      0.70      0.00
    1    2   17      1.15      0.00
    2    2   17     -1.89      0.00
    3    2   17      1.00      0.00
    4    2   17      0.52      0.00
    5    2   17     -1.75      0.00
    6    2   17      1.46      0.00
    7    2   17      0.18      0.00
    8    2   17     -0.90      0.00
  -12    3   17      0.35      0.00
  -11    3   17     -0.33      0.00
  -10    3   17      0.17      0.00
   -9    3   17     -0.15      0.00
   -8    3   17      0.08      0.00
   -7    3   17      0.27      0.00
   -6    3   17     -0.42      0.00
   -5    3   17     -0.52      0.00
   -4    3   17      1.73      0.00
   -3    3   17     -2.08      0.00
   -2    3   17      2.00      0.00
   -1    3   17     -1.62      0.00
    0    3   17      0.88      0.00
    1    3   17      0.01      0.00
    2    3   17     -0.91      0.00
    3    3   17      0.86      0.00
    4    3   17     -0.38      0.00
    5    3   17      1.07      0.00
    6    3   17     -1.41      0.00
    7    3   17      0.32      0.00
  -12    4   17      0.95      0.00
  -11    4   17      0.01      0.00
  -10    4   17     -0.53      0.00
   -9    4   17      0.18      0.00
   -8    4   17     -0.48      0.00
   -7    4   17      1.12      0.00
   -6    4   17     -0.78      0.00
   -5    4   17      0.16      0.00
   -4    4   17     -0.63      0.00
   -3    4   17      0.95      0.00
   -2    4   17     -0.20      0.00
   -1    4   17     -0.11      0.00
    0    4   17     -0.40      0.00
    1    4   17      1.08      0.00
    2    4   17     -1.36      0.00
    3    4   17      0.79      0.00
    4    4   17      0.25      0.00
    5    4   17     -1.26      0.00
    6    4   17      1.44      0.00
    7    4   17     -0.32      0.00
  -11    5   17      0.65      0.00
  -10    5   17     -0.25      0.00
   -9    5   17      0.79      0.00
   -8    5   17     -1.02      0.00
   -7    5   17      0.21      0.00
   -6    5   17      0.01      0.00
   -5    5   17     -0.03      0.00
   -4    5   17      1.11      0.00
   -3    5   17     -2.29      0.00
   -2    5   17      2.00      0.00
   -1    5   17     -0.54      0.00
    0    5   17     -0.60      0.00
    1    5   17      1.33      0.00
    2    5   17     -1.85      0.00
    3    5   17      1.14      0.00
    4    5   17      0.04      0.00
    5    5   17      0.37      0.00
    6    5   17     -1.15      0.00
    7    5   17      0.53      0.00
  -11    6   17     -1.26      0.00
  -10    6   17      0.39      0.00
   -9    6   17      0.82      0.00
   -8    6   17     -1.20      0.00
   -7    6   17      2.05      0.00
   -6    6   17     -2.27      0.00
   -5    6   17      0.32      0.00
   -4    6   17      0.70      0.00
   -3    6   17      0.50      0.00
   -2    6   17     -1.62      0.00
   -1    6   17      1.90      0.00
    0    6   17     -1.39      0.00
    1    6   17      0.49      0.00
    2    6   17      0.19      0.00
    3    6   17     -0.78      0.00
    4    6   17      0.78      0.00
    5    6   17     -0.59      0.00
    6    6   17      1.08      0.00
    7    6   17     -0.95      0.00
  -11    7   17      0.70      0.00
  -10    7   17     -1.42      0.00
   -9    7   17      2.35      0.00
   -8    7   17     -1.91      0.00
   -7    7   17      0.05      0.00
   -6    7   17      1.67      0.00
   -5    7   17     -1.88      0.00
   -4    7   17      1.17      0.00
   -3    7   17     -0.99      0.00
   -2    7   17      0.46      0.00
   -1    7   17      0.23      0.00
    0    7   17      0.19      0.00
    1    7   17      0.09      0.00
    2    7   17     -1.52      0.00
    3    7   17      1.76      0.00
    4    7   17     -0.79      0.00
    5    7   17      0.20      0.00
    6    7   17     -0.15      0.00
  -10    8   17      0.40      0.00
   -9    8   17      0.33      0.00
   -8    8   17      0.71      0.00
   -7    8   17     -0.41      0.00
   -6    8   17     -1.17      0.00
   -5    8   17      0.95      0.00
   -4    8   17     -0.34      0.00
   -3    8   17      1.41      0.00
   -2    8   17     -2.30      0.00
   -1    8   17      1.50      0.00
    0    8   17     -0.57      0.00
    1    8   17      0.62      0.00
    2    8   17     -0.04      0.00
    3    8   17     -1.46      0.00
    4    8   17      1.64      0.00
    5    8   17     -0.88      0.00
    6    8   17      0.93      0.00
   -9    9   17      1.49      0.00
   -8    9   17     -1.15      0.00
   -7    9   17      1.00      0.00
   -6    9   17      0.42      0.00
   -5    9   17     -1.56      0.00
   -4    9   17      0.80      0.00
   -3    9   17     -0.55      0.00
   -2    9   17      0.86      0.00
   -1    9   17     -0.69      0.00
    0    9   17      0.86      0.00
    1    9   17     -0.66      0.00
    2    9   17     -0.27      0.00
    3    9   17      1.01      0.00
    4    9   17     -1.10      0.00
    5    9   17      0.25      0.00
   -9   10   17     -0.18      0.00
   -8   10   17      1.20      0.00
   -7   10   17     -1.54      0.00
   -6   10   17      0.52      0.00
   -5   10   17      1.04      0.00
   -4   10   17     -1.87      0.00
   -3   10   17      2.36      0.00
   -2   10   17     -2.46      0.00
   -1   10   17      0.96      0.00
    0   10   17     -0.07      0.00
    1   10   17      1.19      0.00
    2   10   17     -1.20      0.00
    3   10   17     -0.44      0.00
    4   10   17      1.18      0.00
   -8   11   17     -0.75      0.00
   -7   11   17      2.21      0.00
   -6   11   17     -2.41      0.00
   -5   11   17      1.40      0.00
   -4   11   17     -0.60      0.00
   -3   11   17     -0.94      0.00
   -2   11   17      2.61      0.00
   -1   11   17     -2.07      0.00
    0   11   17      0.04      0.00
    1   11   17      0.69      0.00
    2   11   17     -0.02      0.00
    3   11   17      0.05      0.00
   -6   12   17      1.01      0.00
   -5   12   17      0.11      0.00
   -4   12   17     -0.91      0.00
   -3   12   17      0.88      0.00
   -2   12   17     -1.75      0.00
   -1   12   17      1.94      0.00
    0   12   17     -1.21      0.00
    1   12   17      1.06      0.00
    2   12   17     -0.77      0.00
   -5   13   17      2.14      0.00
   -4   13   17     -0.63      0.00
   -3   13   17     -1.10      0.00
   -2   13   17      2.40      0.00
   -1   13   17     -1.95      0.00
    0   13   17     -0.31      0.00
  -12    0   18      1.18      0.00
  -11    0   18      0.76      0.00
  -10    0   18     -1.63      0.00
   -9    0   18     -0.15      0.00
   -8    0   18      1.15      0.00
   -7    0   18     -1.21      0.00
   -6    0   18      2.02      0.00
   -5    0   18     -1.80      0.00
   -4    0   18     -0.11      0.00
   -3    0   18      0.73      0.00
   -2    0   18      0.75      0.00
   -1    0   18     -2.30      0.00
    0    0   18      2.18      0.00
    1    0   18      0.07      0.00
    2    0   18     -1.88      0.00
    3    0   18      1.61      0.00
    4    0   18     -1.29      0.00
    5    0   18      0.79      0.00
    6    0   18      0.54      0.00
    7    0   18     -0.59      0.00
  -12    1   18     -0.58      0.00
  -11    1   18      0.69      0.00
  -10    1   18      0.48      0.00
   -9    1   18     -1.24      0.00
   -8    1   18      0.85      0.00
   -7    1   18     -0.34      0.00
   -6    1   18     -0.16      0.00
   -5    1   18      0.64      0.00
   -4    1   18     -0.39      0.00
   -3    1   18     -0.46      0.00
   -2    1   18      0.94      0.00
   -1    1   18     -0.50      0.00
    0    1   18     -0.53      0.00
    1    1   18      1.03      0.00
    2    1   18     -0.44      0.00
    3    1   18     -0.40      0.00
    4    1   18      0.89      0.00
    5    1   18     -0.78      0.00
    6    1   18     -0.06      0.00
    7    1   18      0.63      0.00
  -11    2   18     -0.42      0.00
  -10    2   18     -0.12      0.00
   -9    2   18     -0.41      0.00
   -8    2   18      0.49      0.00
   -7    2   18     -0.17      0.00
   -6    2   18      0.88      0.00
   -5    2   18     -1.53      0.00
   -4    2   18      0.71      0.00
   -3    2   18     -0.03      0.00
   -2    2   18      0.53      0.00
   -1    2   18     -1.08      0.00
    0    2   18      0.92      0.00
    1    2   18      0.22      0.00
    2    2   18     -1.16      0.00
    3    2   18      0.96      0.00
    4    2   18     -1.10      0.00
    5    2   18      1.19      0.00
    6    2   18     -0.01      0.00
    7    2   18     -0.63      0.00
  -11    3   18      1.08      0.00
  -10    3   18      0.22      0.00
   -9    3   18     -0.94      0.00
   -8    3   18      0.09      0.00
   -7    3   18      0.45      0.00
   -6    3   18     -0.49      0.00
   -5    3   18      0.93      0.00
   -4    3   18     -0.93      0.00
   -3    3   18     -0.33      0.00
   -2    3   18      1.28      0.00
   -1    3   18     -0.68      0.00
    0    3   18     -0.77      0.00
    1    3   18      1.59      0.00
    2    3   18     -0.91      0.00
    3    3   18     -0.42      0.00
    4    3   18      1.44      0.00
    5    3   18     -1.58      0.00
    6    3   18      0.31      0.00
    7    3   18      0.91      0.00
  -11    4   18     -1.16      0.00
  -10    4   18      0.78      0.00
   -9    4   18      0.25      0.00
   -8    4   18     -0.51      0.00
   -7    4   18      0.51      0.00
   -6    4   18     -0.15      0.00
   -5    4   18     -0.99      0.00
   -4    4   18      1.55      0.00
   -3    4   18     -0.94      0.00
   -2    4   18     -0.12      0.00
   -1    4   18      1.04      0.00
    0    4   18     -1.26      0.00
    1    4   18      1.12      0.00
    2    4   18     -0.79      0.00
    3    4   18      0.16      0.00
    4    4   18     -0.44      0.00
    5    4   18      1.24      0.00
    6    4   18     -0.55      0.00
    7    4   18     -0.55      0.00
  -11    5   18      0.39      0.00
  -10    5   18     -1.21      0.00
   -9    5   18      1.48      0.00
   -8    5   18     -1.97      0.00
   -7    5   18      2.18      0.00
   -6    5   18     -0.96      0.00
   -5    5   18      0.15      0.00
   -4    5   18     -0.88      0.00
   -3    5   18      0.98      0.00
   -2    5   18     -0.38      0.00
   -1    5   18      0.10      0.00
    0    5   18      0.14      0.00
    1    5   18     -0.12      0.00
    2    5   18      0.16      0.00
    3    5   18     -0.57      0.00
    4    5   18      0.97      0.00
    5    5   18     -1.41      0.00
    6    5   18      1.05      0.00
  -10    6   18     -0.85      0.00
   -9    6   18      1.51      0.00
   -8    6   18     -0.47      0.00
   -7    6   18     -0.90      0.00
   -6    6   18      1.25      0.00
   -5    6   18     -1.07      0.00
   -4    6   18      1.06      0.00
   -3    6   18     -0.67      0.00
   -2    6   18     -0.55      0.00
   -1    6   18      1.26      0.00
    0    6   18     -1.31      0.00
    1    6   18      1.77      0.00
    2    6   18     -1.74      0.00
    3    6   18      0.60      0.00
    4    6   18     -0.01      0.00
    5    6   18      0.35      0.00
    6    6   18     -0.26      0.00
  -10    7   18     -1.38      0.00
   -9    7   18      1.18      0.00
   -8    7   18     -0.83      0.00
   -7    7   18      1.84      0.00
   -6    7   18     -1.47      0.00
   -5    7   18      0.33      0.00
   -4    7   18     -0.96      0.00
   -3    7   18      1.84      0.00
   -2    7   18     -1.36      0.00
   -1    7   18      0.16      0.00
    0    7   18      0.84      0.00
    1    7   18     -1.30      0.00
    2    7   18      1.84      0.00
    3    7   18     -2.02      0.00
    4    7   18      1.33      0.00
    5    7   18     -1.14      0.00
   -9    8   18      1.11      0.00
   -8    8   18     -0.28      0.00
   -7    8   18     -1.08      0.00
   -6    8   18      2.19      0.00
   -5    8   18     -1.36      0.00
   -4    8   18      0.35      0.00
   -3    8   18     -0.40      0.00
   -2    8   18      0.14      0.00
   -1    8   18     -0.18      0.00
    0    8   18      0.22      0.00
    1    8   18      0.99      0.00
    2    8   18     -1.90      0.00
    3    8   18      1.51      0.00
    4    8   18     -0.61      0.00
    5    8   18     -0.06      0.00
   -9    9   18     -0.38      0.00
   -8    9   18      0.96      0.00
   -7    9   18      0.18      0.00
   -6    9   18     -1.40      0.00
   -5    9   18      1.64      0.00
   -4    9   18     -1.72      0.00
   -3    9   18      1.88      0.00
   -2    9   18     -1.01      0.00
   -1    9   18     -0.38      0.00
    0    9   18      0.36      0.00
    1    9   18     -0.17      0.00
    2    9   18      1.49      0.00
    3    9   18     -2.42      0.00
    4    9   18      1.70      0.00
   -8   10   18     -1.03      0.00
   -7   10   18      1.13      0.00
   -6   10   18      0.18      0.00
   -5   10   18     -0.42      0.00
   -4   10   18      0.28      0.00
   -3   10   18     -1.17      0.00
   -2   10   18      1.36      0.00
   -1   10   18     -0.54      0.00
    0   10   18     -0.12      0.00
    1   10   18      0.44      0.00
    2   10   18     -0.87      0.00
    3   10   18      1.51      0.00
   -7   11   18     -0.45      0.00
   -6   11   18     -0.50      0.00
   -5   11   18      1.79      0.00
   -4   11   18     -1.60      0.00
   -3   11   18      1.36      0.00
   -2   11   18     -1.14      0.00
   -1   11   18      0.27      0.00
    0   11   18     -0.37      0.00
    1   11   18      0.72      0.00
    2   11   18      0.18      0.00
   -5   12   18      0.49      0.00
   -4   12   18      0.67      0.00
   -3   12   18     -1.69      0.00
   -2   12   18      1.67      0.00
   -1   12   18      0.06      0.00
    0   12   18     -1.35      0.00
    1   12   18      0.70      0.00
  -11    1   19      0.79      0.00
  -10    1   19      0.19      0.00
   -9    1   19     -1.12      0.00
   -8    1   19      0.33      0.00
   -7    1   19      0.02      0.00
   -6    1   19      0.50      0.00
   -5    1   19     -0.01      0.00
   -4    1   19     -0.74      0.00
   -3    1   19      0.12      0.00
   -2    1   19      0.99      0.00
   -1    1   19     -1.37      0.00
    0    1   19      0.45      0.00
    1    1   19      0.88      0.00
    2    1   19     -0.76      0.00
    3    1   19      0.37      0.00
    4    1   19     -0.75      0.00
    5    1   19      0.14      0.00
    6    1   19      0.58      0.00
  -11    2   19     -0.43      0.00
  -10    2   19      1.66      0.00
   -9    2   19     -0.90      0.00
   -8    2   19     -0.20      0.00
   -7    2   19      0.46      0.00
   -6    2   19     -0.53      0.00
   -5    2   19      0.35      0.00
   -4    2   19      0.46      0.00
   -3    2   19     -1.19      0.00
   -2    2   19      0.90      0.00
   -1    2   19      0.32      0.00
    0    2   19     -1.22      0.00
    1    2   19      0.59      0.00
    2    2   19      0.66      0.00
    3    2   19     -1.14      0.00
    4    2   19      0.98      0.00
    5    2   19     -0.15      0.00
    6    2   19     -0.83      0.00
  -11    3   19     -0.90      0.00
  -10    3   19     -0.06      0.00
   -9    3   19      0.64      0.00
   -8    3   19     -1.07      0.00
   -7    3   19      0.98      0.00
   -6    3   19      0.16      0.00
   -5    3   19     -0.66      0.00
   -4    3   19     -0.10      0.00
   -3    3   19      0.55      0.00
   -2    3   19     -0.53      0.00
   -1    3   19      0.34      0.00
    0    3   19      0.01      0.00
    1    3   19      0.02      0.00
    2    3   19     -0.06      0.00
    3    3   19      0.32      0.00
    4    3   19     -1.01      0.00
    5    3   19      0.54      0.00
    6    3   19      0.70      0.00
  -10    4   19     -0.39      0.00
   -9    4   19      0.80      0.00
   -8    4   19     -1.39      0.00
   -7    4   19      0.83      0.00
   -6    4   19     -0.10      0.00
   -5    4   19      0.36      0.00
   -4    4   19     -0.15      0.00
   -3    4   19     -0.91      0.00
   -2    4   19      1.10      0.00
   -1    4   19     -0.43      0.00
    0    4   19     -0.21      0.00
    1    4   19      0.23      0.00
    2    4   19      0.47      0.00
    3    4   19     -1.10      0.00
    4    4   19      1.39      0.00
    5    4   19     -0.94      0.00
    6    4   19     -0.31      0.00
  -10    5   19     -0.95      0.00
   -9    5   19      1.40      0.00
   -8    5   19     -0.63      0.00
   -7    5   19      0.15      0.00
   -6    5   19      0.34      0.00
   -5    5   19     -0.69      0.00
   -4    5   19      0.23      0.00
   -3    5   19      0.80      0.00
   -2    5   19     -1.68      0.00
   -1    5   19      1.61      0.00
    0    5   19     -0.96      0.00
    1    5   19      0.52      0.00
    2    5   19     -0.08      0.00
    3    5   19     -0.07      0.00
    4    5   19     -0.51      0.00
    5    5   19      0.48      0.00
  -10    6   19     -2.18      0.00
   -9    6   19      1.47      0.00
   -8    6   19     -1.66      0.00
   -7    6   19      1.29      0.00
   -6    6   19     -0.01      0.00
   -5    6   19      0.32      0.00
   -4    6   19     -1.03      0.00
   -3    6   19      0.25      0.00
   -2    6   19      0.81      0.00
   -1    6   19     -1.59      0.00
    0    6   19      1.77      0.00
    1    6   19     -1.31      0.00
    2    6   19      1.15      0.00
    3    6   19     -1.05      0.00
    4    6   19      1.05      0.00
    5    6   19     -1.14      0.00
   -9    7   19      0.58      0.00
   -8    7   19      0.58      0.00
   -7    7   19     -1.47      0.00
   -6    7   19      1.12      0.00
   -5    7   19     -0.20      0.00
   -4    7   19      0.12      0.00
   -3    7   19      0.16      0.00
   -2    7   19     -0.74      0.00
   -1    7   19      0.70      0.00
    0    7   19     -1.14      0.00
    1    7   19      1.80      0.00
    2    7   19     -1.29      0.00
    3    7   19      0.38      0.00
    4    7   19     -0.06      0.00
    5    7   19      0.13      0.00
   -9    8   19      0.00      0.00
   -8    8   19     -0.46      0.00
   -7    8   19      1.27      0.00
   -6    8   19     -0.82      0.00
   -5    8   19      0.63      0.00
   -4    8   19     -0.96      0.00
   -3    8   19      0.52      0.00
   -2    8   19      0.75      0.00
   -1    8   19     -1.64      0.00
    0    8   19      1.63      0.00
    1    8   19     -1.80      0.00
    2    8   19      2.23      0.00
    3    8   19     -1.63      0.00
    4    8   19      0.70      0.00
   -8    9   19     -0.22      0.00
   -7    9   19     -0.89      0.00
   -6    9   19      1.08      0.00
   -5    9   19      0.03      0.00
   -4    9   19      0.15      0.00
   -3    9   19     -0.72      0.00
   -2    9   19      0.44      0.00
   -1    9   19     -0.05      0.00
    0    9   19     -0.80      0.00
    1    9   19      1.77      0.00
    2    9   19     -2.06      0.00
    3    9   19      1.60      0.00
   -7   10   19      0.43      0.00
   -6   10   19     -1.23      0.00
   -5   10   19      0.99      0.00
   -4   10   19     -0.35      0.00
   -3   10   19      0.19      0.00
   -2   10   19      0.39      0.00
   -1   10   19     -0.62      0.00
    0   10   19      0.09      0.00
    1   10   19     -0.60      0.00
    2   10   19      1.72      0.00
   -5   11   19     -0.16      0.00
   -4   11   19      0.43      0.00
   -3   11   19     -0.78      0.00
   -2   11   19      0.13      0.00
   -1   11   19      0.89      0.00
    0   11   19     -1.01      0.00
    1   11   19      0.78      0.00
  -10    0   20      1.04      0.00
   -9    0   20     -0.25      0.00
   -8    0   20     -1.09      0.00
   -7    0   20      0.83      0.00
   -6    0   20     -0.30      0.00
   -5    0   20      0.49      0.00
   -4    0   20     -0.28      0.00
   -3    0   20     -0.45      0.00
   -2    0   20      0.98      0.00
   -1    0   20     -0.73      0.00
    0    0   20     -0.28      0.00
    1    0   20      0.31      0.00
    2    0   20      0.39      0.00
    3    0   20      0.29      0.00
    4    0   20     -0.81      0.00
    5    0   20      0.10      0.00
  -10    1   20      0.69      0.00
   -9    1   20      0.14      0.00
   -8    1   20     -0.40      0.00
   -7    1   20      0.29      0.00
   -6    1   20     -0.10      0.00
   -5    1   20     -0.20      0.00
   -4    1   20      0.46      0.00
   -3    1   20     -0.46      0.00
   -2    1   20      0.03      0.00
   -1    1   20      0.50      0.00
    0    1   20     -0.28      0.00
    1    1   20     -0.48      0.00
    2    1   20      0.61      0.00
    3    1   20     -0.26      0.00
    4    1   20     -0.03      0.00
    5    1   20      0.38      0.00
  -10    2   20     -0.26      0.00
   -9    2   20      0.87      0.00
   -8    2   20     -1.56      0.00
   -7    2   20      0.85      0.00
   -6    2   20      0.13      0.00
   -5    2   20      0.11      0.00
   -4    2   20     -0.36      0.00
   -3    2   20     -0.04      0.00
   -2    2   20      0.43      0.00
   -1    2   20     -0.65      0.00
    0    2   20      0.41      0.00
    1    2   20     -0.21      0.00
    2    2   20      0.23      0.00
    3    2   20      0.46      0.00
    4    2   20     -0.69      0.00
    5    2   20     -0.27      0.00
  -10    3   20      0.50      0.00
   -9    3   20      0.56      0.00
   -8    3   20     -0.64      0.00
   -7    3   20      0.03      0.00
   -6    3   20      0.15      0.00
   -5    3   20     -0.27      0.00
   -4    3   20      0.95      0.00
   -3    3   20     -1.27      0.00
   -2    3   20      0.54      0.00
   -1    3   20      0.40      0.00
    0    3   20     -0.29      0.00
    1    3   20     -0.73      0.00
    2    3   20      1.17      0.00
    3    3   20     -0.90      0.00
    4    3   20      0.51      0.00
    5    3   20      0.32      0.00
  -10    4   20     -1.92      0.00
   -9    4   20      1.78      0.00
   -8    4   20     -1.41      0.00
   -7    4   20      0.56      0.00
   -6    4   20      0.48      0.00
   -5    4   20     -0.25      0.00
   -4    4   20     -0.54      0.00
   -3    4   20      0.92      0.00
   -2    4   20     -0.84      0.00
   -1    4   20     -0.04      0.00
    0    4   20      0.82      0.00
    1    4   20     -0.65      0.00
    2    4   20      0.13      0.00
    3    4   20      0.51      0.00
    4    4   20     -0.60      0.00
    5    4   20     -0.40      0.00
   -9    5   20      0.73      0.00
   -8    5   20     -0.57      0.00
   -7    5   20     -0.48      0.00
   -6    5   20      0.52      0.00
   -5    5   20      0.24      0.00
   -4    5   20      0.46      0.00
   -3    5   20     -1.48      0.00
   -2    5   20      1.57      0.00
   -1    5   20     -1.31      0.00
    0    5   20      0.75      0.00
    1    5   20     -0.52      0.00
    2    5   20      0.78      0.00
    3    5   20     -0.95      0.00
    4    5   20      0.98      0.00
   -9    6   20      0.76      0.00
   -8    6   20      0.07      0.00
   -7    6   20     -0.33      0.00
   -6    6   20      0.17      0.00
   -5    6   20     -0.03      0.00
   -4    6   20     -0.23      0.00
   -3    6   20      0.93      0.00
   -2    6   20     -1.11      0.00
   -1    6   20      0.64      0.00
    0    6   20     -0.52      0.00
    1    6   20      0.50      0.00
    2    6   20     -0.27      0.00
    3    6   20      0.36      0.00
    4    6   20     -0.54      0.00
   -8    7   20     -0.64      0.00
   -7    7   20      0.01      0.00
   -6    7   20      0.33      0.00
   -5    7   20      0.36      0.00
   -4    7   20     -0.06      0.00
   -3    7   20     -1.09      0.00
   -2    7   20      1.99      0.00
   -1    7   20     -2.15      0.00
    0    7   20      1.43      0.00
    1    7   20     -0.89      0.00
    2    7   20      0.68      0.00
    3    7   20     -0.30      0.00
   -8    8   20      0.53      0.00
   -7    8   20     -0.95      0.00
   -6    8   20     -0.03      0.00
   -5    8   20      0.27      0.00
   -4    8   20      0.47      0.00
   -3    8   20     -0.27      0.00
   -2    8   20     -0.19      0.00
   -1    8   20      0.76      0.00
    0    8   20     -1.79      0.00
    1    8   20      2.02      0.00
    2    8   20     -1.38      0.00
    3    8   20      0.63      0.00
   -7    9   20      0.31      0.00
   -6    9   20     -0.01      0.00
   -5    9   20     -0.36      0.00
   -4    9   20      0.38      0.00
   -3    9   20     -0.61      0.00
   -2    9   20      1.11      0.00
   -1    9   20     -0.88      0.00
    0    9   20      0.60      0.00
    1    9   20     -1.13      0.00
    2    9   20      1.20      0.00
   -6   10   20     -0.01      0.00
   -5   10   20      0.43      0.00
   -4   10   20      0.22      0.00
   -3   10   20     -0.34      0.00
   -2   10   20     -0.27      0.00
   -1   10   20      0.91      0.00
    0   10   20     -1.38      0.00
    1   10   20      1.72      0.00
   -3   11   20     -0.12      0.00
   -2   11   20      0.20      0.00
  -10    1   21     -0.16      0.00
   -9    1   21      1.47      0.00
   -8    1   21     -1.58      0.00
   -7    1   21      0.39      0.00
   -6    1   21      0.21      0.00
   -5    1   21     -0.02      0.00
   -4    1   21     -0.01      0.00
   -3    1   21     -0.21      0.00
   -2    1   21      0.46      0.00
   -1    1   21     -0.30      0.00
    0    1   21      0.14      0.00
    1    1   21     -0.58      0.00
    2    1   21      0.04      0.00
    3    1   21      1.17      0.00
    4    1   21     -0.82      0.00
  -10    2   21     -0.30      0.00
   -9    2   21      0.69      0.00
   -8    2   21     -0.32      0.00
   -7    2   21     -0.04      0.00
   -6    2   21      0.19      0.00
   -5    2   21     -0.40      0.00
   -4    2   21      0.71      0.00
   -3    2   21     -0.56      0.00
   -2    2   21     -0.15      0.00
   -1    2   21      0.26      0.00
    0    2   21      0.69      0.00
    1    2   21     -1.04      0.00
    2    2   21      0.32      0.00
    3    2   21      0.02      0.00
    4    2   21     -0.13      0.00
   -9    3   21      1.54      0.00
   -8    3   21     -1.03      0.00
   -7    3   21     -0.40      0.00
   -6    3   21      0.93      0.00
   -5    3   21     -0.30      0.00
   -4    3   21      0.00      0.00
   -3    3   21     -0.01      0.00
   -2    3   21      0.43      0.00
   -1    3   21     -1.15      0.00
    0    3   21      1.04      0.00
    1    3   21     -0.43      0.00
    2    3   21     -0.17      0.00
    3    3   21      0.57      0.00
    4    3   21      0.02      0.00
   -9    4   21      0.16      0.00
   -8    4   21      0.43      0.00
   -7    4   21     -0.80      0.00
   -6    4   21      0.21      0.00
   -5    4   21     -0.33      0.00
   -4    4   21      1.23      0.00
   -3    4   21     -1.25      0.00
   -2    4   21      0.63      0.00
   -1    4   21     -0.32      0.00
    0    4   21      0.58      0.00
    1    4   21     -0.92      0.00
    2    4   21      0.74      0.00
    3    4   21     -0.54      0.00
    4    4   21      0.21      0.00
   -9    5   21      0.84      0.00
   -8    5   21     -0.28      0.00
   -7    5   21     -0.42      0.00
   -6    5   21      0.63      0.00
   -5    5   21     -0.22      0.00
   -4    5   21     -0.29      0.00
   -3    5   21      0.62      0.00
   -2    5   21     -0.10      0.00
   -1    5   21     -0.74      0.00
    0    5   21      0.59      0.00
    1    5   21      0.18      0.00
    2    5   21     -0.63      0.00
    3    5   21      0.74      0.00
   -8    6   21      0.46      0.00
   -7    6   21     -0.91      0.00
   -6    6   21      0.01      0.00
   -5    6   21      0.11      0.00
   -4    6   21      1.09      0.00
   -3    6   21     -1.69      0.00
   -2    6   21      1.64      0.00
   -1    6   21     -0.97      0.00
    0    6   21      0.04      0.00
    1    6   21      0.02      0.00
    2    6   21      0.21      0.00
    3    6   21     -0.32      0.00
   -7    7   21     -0.15      0.00
   -6    7   21     -0.14      0.00
   -5    7   21     -0.38      0.00
   -4    7   21      0.26      0.00
   -3    7   21      0.42      0.00
   -2    7   21     -0.55      0.00
   -1    7   21      0.90      0.00
    0    7   21     -1.36      0.00
    1    7   21      1.24      0.00
    2    7   21     -0.95      0.00
   -7    8   21     -0.48      0.00
   -6    8   21      0.34      0.00
   -5    8   21     -0.19      0.00
   -4    8   21      0.54      0.00
   -3    8   21     -1.06      0.00
   -2    8   21      1.13      0.00
   -1    8   21     -0.42      0.00
    0    8   21     -0.10      0.00
    1    8   21     -0.01      0.00
   -5    9   21     -0.21      0.00
   -4    9   21      0.70      0.00
   -3    9   21     -0.12      0.00
   -2    9   21     -0.61      0.00
   -1    9   21      1.45      0.00
    0    9   21     -1.86      0.00
   -9    0   22      1.70      0.00
   -8    0   22     -0.85      0.00
   -7    0   22     -0.26      0.00
   -6    0   22      0.29      0.00
   -5    0   22      0.31      0.00
   -4    0   22     -0.57      0.00
   -3    0   22      0.25      0.00
   -2    0   22     -0.02      0.00
   -1    0   22      0.12      0.00
    0    0   22      0.32      0.00
    1    0   22     -0.20      0.00
    2    0   22     -1.39      0.00
    3    0   22      1.79      0.00
   -9    1   22      0.34      0.00
   -8    1   22     -0.11      0.00
   -7    1   22     -0.05      0.00
   -6    1   22      0.11      0.00
   -5    1   22     -0.25      0.00
   -4    1   22      0.42      0.00
   -3    1   22     -0.19      0.00
   -2    1   22     -0.09      0.00
   -1    1   22     -0.29      0.00
    0    1   22      0.61      0.00
    1    1   22     -0.11      0.00
    2    1   22     -0.19      0.00
    3    1   22     -0.06      0.00
   -9    2   22      1.08      0.00
   -8    2   22     -0.06      0.00
   -7    2   22     -1.07      0.00
   -6    2   22      0.85      0.00
   -5    2   22     -0.17      0.00
   -4    2   22     -0.11      0.00
   -3    2   22     -0.01      0.00
   -2    2   22      0.48      0.00
   -1    2   22     -0.63      0.00
    0    2   22      0.48      0.00
    1    2   22     -0.14      0.00
    2    2   22     -0.73      0.00
    3    2   22      0.84      0.00
   -8    3   22      0.32      0.00
   -7    3   22     -0.23      0.00
   -6    3   22      0.04      0.00
   -5    3   22     -0.56      0.00
   -4    3   22      0.97      0.00
   -3    3   22     -0.49      0.00
   -2    3   22      0.06      0.00
   -1    3   22     -0.58      0.00
    0    3   22      1.10      0.00
    1    3   22     -0.49      0.00
    2    3   22     -0.04      0.00
    3    3   22     -0.16      0.00
   -8    4   22      0.65      0.00
   -7    4   22     -1.49      0.00
   -6    4   22      1.12      0.00
   -5    4   22     -0.47      0.00
   -4    4   22      0.09      0.00
   -3    4   22     -0.09      0.00
   -2    4   22      0.92      0.00
   -1    4   22     -1.18      0.00
    0    4   22      0.21      0.00
    1    4   22      0.46      0.00
    2    4   22     -0.46      0.00
   -8    5   22      0.78      0.00
   -7    5   22     -0.22      0.00
   -6    5   22     -0.39      0.00
   -5    5   22     -0.53      0.00
   -4    5   22      1.20      0.00
   -3    5   22     -0.88      0.00
   -2    5   22      0.49      0.00
   -1    5   22     -0.09      0.00
    0    5   22      0.11      0.00
    1    5   22     -0.31      0.00
    2    5   22      0.23      0.00
   -7    6   22     -0.47      0.00
   -6    6   22      0.56      0.00
   -5    6   22     -0.44      0.00
   -4    6   22     -0.22      0.00
   -3    6   22      0.39      0.00
   -2    6   22     -0.01      0.00
   -1    6   22      0.25      0.00
    0    6   22     -0.94      0.00
    1    6   22      1.23      0.00
   -6    7   22     -0.37      0.00
   -5    7   22     -0.25      0.00
   -4    7   22      0.88      0.00
   -3    7   22     -0.87      0.00
   -2    7   22      0.31      0.00
   -1    7   22      0.66      0.00
    0    7   22     -0.80      0.00
    1    7   22      0.26      0.00
   -5    8   22     -0.81      0.00
   -4    8   22      0.13      0.00
   -3    8   22      0.55      0.00
   -2    8   22     -1.04      0.00
   -1    8   22      1.59      0.00
   -8    1   23      0.30      0.00
   -7    1   23     -0.67      0.00
   -6    1   23     -0.10      0.00
   -5    1   23      0.84      0.00
   -4    1   23     -0.79      0.00
   -3    1   23      0.29      0.00
   -2    1   23     -0.07      0.00
   -1    1   23     -0.06      0.00
    0    1   23      0.16      0.00
    1    1   23      0.84      0.00
    2    1   23     -1.67      0.00
   -7    2   23     -0.14      0.00
   -6    2   23      0.26      0.00
   -5    2   23     -0.73      0.00
   -4    2   23      0.71      0.00
   -3    2   23     -0.15      0.00
   -2    2   23      0.30      0.00
   -1    2   23     -0.90      0.00
    0    2   23      0.43      0.00
    1    2   23      0.30      0.00
    2    2   23      0.14      0.00
   -7    3   23     -1.48      0.00
   -6    3   23      0.63      0.00
   -5    3   23     -0.03      0.00
   -4    3   23     -0.22      0.00
   -3    3   23     -0.20      0.00
   -2    3   23      0.79      0.00
   -1    3   23     -0.41      0.00
    0    3   23     -0.13      0.00
    1    3   23      0.24      0.00
   -7    4   23      0.34      0.00
   -6    4   23     -0.01      0.00
   -5    4   23     -0.82      0.00
   -4    4   23      0.67      0.00
   -3    4   23     -0.19      0.00
   -2    4   23      0.23      0.00
   -1    4   23     -0.56      0.00
    0    4   23      0.45      0.00
    1    4   23      0.03      0.00
   -6    5   23      0.65      0.00
   -5    5   23     -0.17      0.00
   -4    5   23     -0.22      0.00
   -3    5   23     -0.18      0.00
   -2    5   23      0.56      0.00
   -1    5   23      0.23      0.00
    0    5   23     -1.00      0.00
   -5    6   23     -0.68      0.00
   -4    6   23      0.51      0.00
   -3    6   23     -0.07      0.00
   -2    6   23     -0.46      0.00
   -1    6   23      0.71      0.00
   -6    0   24     -0.96      0.00
   -5    0   24      1.17      0.00
   -4    0   24     -0.60      0.00
   -3    0   24      0.27      0.00
   -2    0   24     -0.21      0.00
   -1    0   24     -0.08      0.00
    0    0   24     -0.41      0.00
   -6    1   24      0.35      0.00
   -5    1   24     -0.51      0.00
   -4    1   24      0.22      0.00
   -3    1   24     -0.04      0.00
   -2    1   24      0.37      0.00
   -1    1   24     -0.31      0.00
    0    1   24     -0.17      0.00
   -6    2   24     -0.49      0.00
   -5    2   24      0.76      0.00
   -4    2   24     -0.45      0.00
   -3    2   24     -0.09      0.00
   -2    2   24      0.17      0.00
   -1    2   24     -0.03      0.00
    0    2   24     -0.17      0.00
   -5    3   24     -0.84      0.00
   -4    3   24      0.29      0.00
   -3    3   24     -0.11      0.00
   -2    3   24      0.64      0.00
   -1    3   24     -0.60      0.00
   -4    4   24     -0.17      0.00
   -3    4   24     -0.46      0.00
   -2    4   24      0.30      0.00
    1    0    0    -53.92      0.00
   14    4    0     -0.38      0.00
   13    8    0      0.09      0.00
   11   12    0     -2.46      0.00
    6   17    0      0.29      0.00
    4   18    0      0.33      0.00
    0    1    1     50.78      0.00
   14    3    1     -0.08      0.00
  -13    8    1      0.48      0.00
   12   10    1      1.79      0.00
    6   17    1     -0.26      0.00
   -4   18    1      0.24      0.00
    4   18    1      0.92      0.00
    0    0    2     11.69      0.00
   14    0    2     -1.12      0.00
   14    1    2      0.20      0.00
  -14    5    2      1.50      0.00
   13    7    2      0.50      0.00
   10   13    2     -1.26      0.00
   -4   18    2      0.66      0.00
  -14    5    3      0.44      0.00
   12    9    3      0.16      0.00
    9   14    3      1.25      0.00
    8   15    3      0.54      0.00
    7   16    3     -1.96      0.00
   -4   18    3     -0.43      0.00
   -6   17    4     -0.39      0.00
    5   17    4     -0.44      0.00
   -4   18    4      1.09      0.00
    3   18    4     -1.29      0.00
   13    4    5     -0.68      0.00
   12    8    5      0.71      0.00
   10   12    5      1.19      0.00
   -6   17    5     -1.05      0.00
    2   18    5     -0.51      0.00
   13    2    6      0.12      0.00
   13    3    6      0.15      0.00
   12    7    6      1.16      0.00
    9   13    6     -1.29      0.00
    6   16    6     -0.26      0.00
   -3   18    6      0.63      0.00
    1   18    6     -1.06      0.00
   11    9    7     -0.17      0.00
   10   11    7      0.80      0.00
   -2   18    7     -0.41      0.00
   -1   18    7     -1.23      0.00
    0   18    7      0.21      0.00
  -14    5    8      0.02      0.00
   12    5    8      0.75      0.00
  -11   12    8      0.39      0.00
    9   12    8     -0.66      0.00
   -7   16    8     -0.09      0.00
    5   16    8     -0.27      0.00
   -5   17    8     -1.88      0.00
    3   17    8      0.09      0.00
   12    3    9      0.39      0.00
  -13    8    9     -0.75      0.00
  -10   13    9     -1.34      0.00
   -8   15    9      0.33      0.00
   -4   17    9      1.20      0.00
    2   17    9     -1.57      0.00
  -14    4   10     -0.46      0.00
   11    6   10     -0.23      0.00
   -6   16   10      0.96      0.00
   -3   17   10     -2.64      0.00
    1   17   10      1.24      0.00
  -14    3   11     -0.43      0.00
  -13    7   11      0.69      0.00
    9   10   11     -1.09      0.00
  -14    0   12     -0.43      0.00
   11    0   12     -0.50      0.00
  -14    1   12     -0.39      0.00
   11    1   12     -0.09      0.00
  -14    2   12     -0.32      0.00
   11    2   12      0.14      0.00
  -12    9   12     -0.34      0.00
    9    9   12      0.07      0.00
  -10   12   12     -0.75      0.00
    7   12   12      0.79      0.00
   -8   14   12      0.83      0.00
    5   14   12     -0.91      0.00
   10    5   13     -0.55      0.00
  -13    6   13     -0.32      0.00
    9    8   13      0.59      0.00
   -6   15   13      0.05      0.00
   -2   16   13     -0.56      0.00
   -1   16   13      0.34      0.00
   10    1   14     -0.47      0.00
   10    2   14     -0.66      0.00
  -13    5   14     -0.55      0.00
  -10   11   14     -0.11      0.00
   -7   14   14     -0.38      0.00
   -5   15   14     -1.03      0.00
    1   15   14      0.70      0.00
  -12    7   15      1.21      0.00
  -11    9   15     -1.36      0.00
    5   12   15     -0.22      0.00
   -6   14   15      0.06      0.00
    2   14   15     -1.77      0.00
   -2   15   15      0.03      0.00
   -1   15   15      0.19      0.00
  -13    0   16      1.55      0.00
    9    0   16      0.65      0.00
  -13    1   16     -0.29      0.00
  -12    6   16      0.55      0.00
    8    6   16     -0.48      0.00
   -9   11   16      0.38      0.00
    5   11   16     -0.14      0.00
   -8   12   16     -0.15      0.00
    4   12   16      0.16      0.00
    8    3   17      0.28      0.00
  -10    9   17     -1.21      0.00
    5   10   17     -0.80      0.00
    4   11   17     -0.60      0.00
   -7   12   17     -0.38      0.00
    3   12   17      0.03      0.00
    1   13   17      1.16      0.00
  -12    2   18      1.17      0.00
  -11    6   18      0.24      0.00
    6    7   18      1.13      0.00
  -10    8   18     -1.44      0.00
    4   10   18     -1.24      0.00
    3   11   18     -1.12      0.00
   -6   12   18     -1.55      0.00
   -3   13   18      0.59      0.00
   -2   13   18     -1.52      0.00
  -11    4   19      0.85      0.00
    6    5   19      0.42      0.00
  -10    7   19     -1.01      0.00
   -6   11   19      0.11      0.00
   -4   12   19     -0.12      0.00
   -3   12   19      0.38      0.00
   -2   12   19     -0.40      0.00
   -1   12   19     -0.12      0.00
  -11    0   20      0.17      0.00
    6    0   20     -0.03      0.00
  -11    1   20     -0.98      0.00
    6    1   20     -0.35      0.00
  -10    5   20     -0.81      0.00
    5    5   20     -0.27      0.00
   -9    7   20      0.14      0.00
    4    7   20      0.34      0.00
   -4   11   20      0.65      0.00
   -1   11   20     -0.05      0.00
    5    1   21      0.09      0.00
  -10    3   21     -1.55      0.00
    4    5   21     -0.26      0.00
   -8    7   21      0.39      0.00
    3    7   21      0.78      0.00
    2    8   21     -0.13      0.00
   -6    9   21     -0.49      0.00
    1    9   21      1.56      0.00
   -4   10   21      0.20      0.00
   -3   10   21      0.02      0.00
   -2   10   21      0.00      0.00
    4    0   22     -0.68      0.00
   -9    3   22      0.11      0.00
    3    4   22      0.17      0.00
    2    6   22     -1.07      0.00
    0    8   22     -1.47      0.00
   -8    2   23      0.14      0.00
    2    3   23     -0.32      0.00
    1    5   23      0.72      0.00
   -6    6   23     -0.19      0.00
    0    6   23     -0.13      0.00
   -4    7   23     -0.60      0.00
   -3    7   23      0.57      0.00
   -2    7   23     -0.78      0.00
   -6    3   24      0.58      0.00
    0    3   24     -0.18      0.00
   -5    4   24      0.24      0.00
   -1    4   24      0.48      0.00
   -4    5   24     -0.07      0.00
   -3    5   24      0.23      0.00
    0    0    0      0.00      0.00
# SQUEEZE RESULTS (Version =  21116)
# Note: Data are Listed for all Voids in the P1 Unit Cell
# i.e. Centre of Gravity, Solvent Accessible Volume,
# Recovered number of Electrons in the Void and
# Details about the Squeezed Material
loop_
  _platon_squeeze_void_nr
  _platon_squeeze_void_average_x
  _platon_squeeze_void_average_y
  _platon_squeeze_void_average_z
  _platon_squeeze_void_volume
  _platon_squeeze_void_count_electrons
  _platon_squeeze_void_content
   1  0.500  0.500  0.500       127        36 ' '
   2  0.500  1.000  1.000       128        36 ' '
# Missing Reflections Below sin(th)/lambda = 0.25
loop_
  _platon_missing_refln_index_h
  _platon_missing_refln_index_k
  _platon_missing_refln_index_l
  _platon_missing_refln_theta
    1    0    0     1.788
    0    1    1     1.723
    0    0    2     2.109
_platon_squeeze_void_probe_radius                  1.20
_platon_squeeze_details
)
TITL mo_0905_8_P 1 21/c 1   R = 0.06
CELL   11.6552   14.9367   19.7696     90.00    102.31     90.00
SPGR P21/c
# Solvent Accessible Volume =       254
# Electrons Found in S.A.V. =        72
# Note: Atoms in Void as Cxxx and Qxxx all others
C101 0.581 1.002 0.059 !       4.47 eA-3
C102 0.594 0.067 0.054 !       4.44 eA-3
C103 0.657 0.122 0.167 !       3.65 eA-3
Q104 0.434 0.527 0.299 !       2.72 eA-3
Q105 0.143 0.715 0.432 !       1.37 eA-3
Q106 0.685 0.079 0.094 !       0.96 eA-3
C107 0.237 0.592 0.308 !       0.91 eA-3
Q108 0.813 0.018 0.166 !       0.89 eA-3
Q109 0.783 0.780 0.605 !       0.88 eA-3
Q110 0.016 0.045 0.598 !       0.85 eA-3
Q111 0.221 0.424 0.189 !       0.85 eA-3
Q112 0.019 0.268 0.869 !       0.84 eA-3
Q113 0.503 0.274 0.738 !       0.84 eA-3
Q114 0.780 0.596 0.098 !       0.83 eA-3
Q115 0.766 0.082 0.123 !       0.81 eA-3
Q116 0.360 0.209 0.719 !       0.80 eA-3
Q117 1.000 0.391 0.364 !       0.80 eA-3
Q118 0.468 0.314 0.331 !       0.80 eA-3
Q119 0.984 0.878 0.006 !       0.80 eA-3
Q120 0.455 0.171 0.756 !       0.78 eA-3
Q121 0.549 0.557 0.564 !       0.76 eA-3
Q122 0.872 0.179 0.049 !       0.75 eA-3
Q123 0.347 0.875 0.950 !       0.75 eA-3
Q124 0.107 0.349 0.513 !       0.74 eA-3
Q125 0.329 0.523 0.438 !       0.73 eA-3
Q126 0.499 0.266 0.117 !       0.73 eA-3
Q127 0.762 0.275 0.059 !       0.73 eA-3
Q128 0.545 0.202 0.777 !       0.72 eA-3
Q129 0.098 0.280 0.171 !       0.71 eA-3
Q130 0.406 0.654 0.422 !       0.71 eA-3
Q131 0.970 0.255 0.955 !       0.70 eA-3
Q132 0.798 0.830 0.045 !       0.69 eA-3
Q133 0.656 0.018 0.207 !       0.69 eA-3
Q134 0.953 0.011 0.846 !       0.68 eA-3
Q135 0.957 0.995 0.702 !       0.67 eA-3
Q136 0.858 0.918 0.927 !       0.66 eA-3
Q137 0.549 0.976-0.007 !       0.65 eA-3
Q138 0.027 0.089 0.430 !       0.65 eA-3
Q139 0.767 0.491 0.440 !       0.64 eA-3
Q140 0.733 0.034 0.158 !       0.64 eA-3
Q141 0.014 0.872 0.503 !       0.64 eA-3
Q142 0.622 0.942 0.000 !       0.64 eA-3
Q143 0.640 0.359 0.173 !       0.63 eA-3
Q144 0.938 0.207 0.367 !       0.63 eA-3
Q145 0.110 0.966 0.248 !       0.63 eA-3
Q146 1.001 0.781 0.229 !       0.63 eA-3
Q147 0.704 0.736 0.222 !       0.63 eA-3
Q148 0.688 0.575 0.101 !       0.63 eA-3
Q149 0.454 0.731 0.831 !       0.63 eA-3
Q150 0.223 0.249 0.953 !       0.63 eA-3
Q151 0.970 0.704 0.246 !       0.63 eA-3
Q152 0.029 0.267 0.058 !       0.63 eA-3
Q153 0.313 0.351 0.748 !       0.62 eA-3
Q154 0.920 0.879 0.597 !       0.62 eA-3
Q155 0.672 0.686 0.470 !       0.62 eA-3
Q156 0.345 0.471 0.452 !       0.62 eA-3
Q157 0.733 0.876 0.325 !       0.62 eA-3
Q158 0.568 0.905 0.798 !       0.62 eA-3
Q159 0.393 0.208 0.196 !       0.62 eA-3
Q160 0.657 0.405 0.948 !       0.61 eA-3
Q161 0.269 0.466 0.870 !       0.61 eA-3
Q162 0.408 0.343 0.126 !       0.61 eA-3
Q163 0.329 0.753 0.424 !       0.60 eA-3
Q164 0.785 0.514 0.855 !       0.59 eA-3
Q165 0.366 0.873 0.888 !       0.59 eA-3
Q166 0.140 0.018 0.047 !       0.59 eA-3
Q167 0.062 0.264 0.220 !       0.59 eA-3
Q168 0.221 0.161 0.425 !       0.59 eA-3
Q169 0.795 0.578 0.214 !       0.58 eA-3
Q170 0.205 0.422 0.786 !       0.58 eA-3
Q171 0.281 0.249 0.820 !       0.58 eA-3
Q172 0.686 0.016 0.103 !       0.58 eA-3
Q173 0.402 0.880 0.098 !       0.58 eA-3
Q174 0.687 0.167 0.131 !       0.58 eA-3
Q175 0.746 0.488 0.577 !       0.57 eA-3
Q176 0.609 0.956 0.226 !       0.57 eA-3
Q177 0.984 0.311 0.921 !       0.57 eA-3
Q178 0.456 0.827 0.702 !       0.57 eA-3
Q179 0.719 0.363 0.613 !       0.57 eA-3
Q180 0.480 0.612 0.456 !       0.57 eA-3
Q181 0.480 0.893 0.950 !       0.57 eA-3
Q182 0.704 0.708 0.612 !       0.57 eA-3
Q183 0.470 0.987 0.206 !       0.57 eA-3
Q184 0.075 0.381 0.396 !       0.56 eA-3
Q185 0.330 0.791 0.006 !       0.56 eA-3
Q186 0.736 0.810 0.280 !       0.56 eA-3
Q187 0.748 0.624 0.527 !       0.56 eA-3
Q188 0.763 0.645 0.690 !       0.56 eA-3
Q189 0.016 0.983 0.873 !       0.56 eA-3
Q190 0.655 0.796 0.174 !       0.56 eA-3
Q191 0.732 0.746 0.364 !       0.56 eA-3
Q192 0.689 0.620 0.442 !       0.55 eA-3
Q193 0.078 0.121 0.501 !       0.55 eA-3
Q194 0.966 0.108 0.340 !       0.55 eA-3
Q195 0.560 0.425 0.060 !       0.55 eA-3
Q196 0.454 0.511 0.357 !       0.55 eA-3
Q197 0.874 1.000 0.916 !       0.55 eA-3
Q198 0.453 0.426 0.206 !       0.55 eA-3
Q199 0.553 0.391 0.449 !       0.54 eA-3
)
;
_shelx_shelxl_version_number     2016/6
_olex2_submission_special_instructions 'No special instructions were received'
loop_
_space_group_symop_operation_xyz
'x, y, z'
'-x, y+1/2, -z+1/2'
'-x, -y, -z'
'x, -y-1/2, z-1/2'
loop_
_atom_site_label
_atom_site_type_symbol
_atom_site_fract_x
_atom_site_fract_y
_atom_site_fract_z
_atom_site_U_iso_or_equiv
_atom_site_adp_type
_atom_site_occupancy
_atom_site_site_symmetry_order
_atom_site_calc_flag
_atom_site_refinement_flags_posn
_atom_site_refinement_flags_adp
_atom_site_refinement_flags_occupancy
_atom_site_disorder_assembly
_atom_site_disorder_group
Cd1 Cd 1.04797(3) 0.56161(2) 0.93016(2) 0.01170(8) Uani 1 1 d . . . . .
Cd2 Cd 1.08492(3) 0.85787(2) 0.97937(2) 0.01640(9) Uani 1 1 d . . . . .
O1 O 1.0331(3) 0.5737(2) 1.04679(15) 0.0127(6) Uani 1 1 d . . . . .
O2 O 1.0309(3) 0.7038(2) 0.99389(15) 0.0138(6) Uani 1 1 d . . . . .
O3 O 0.9732(3) 0.9332(2) 1.04454(17) 0.0208(7) Uani 1 1 d . . . . .
O4 O 0.8142(3) 1.0163(2) 1.04296(19) 0.0256(8) Uani 1 1 d . . . . .
O5 O 1.0702(3) 0.8426(2) 1.34715(17) 0.0277(8) Uani 1 1 d . . . . .
O6 O 0.9449(3) 0.9368(3) 1.2834(2) 0.0305(9) Uani 1 1 d . . . . .
O7 O 0.8370(3) 0.5974(2) 0.91792(17) 0.0211(7) Uani 1 1 d . . . . .
O8 O 0.7539(3) 0.5232(4) 0.8220(2) 0.0569(15) Uani 1 1 d . . . . .
H8 H 0.818621 0.533353 0.811289 0.085 Uiso 1 1 calc GR . . . .
O9 O 0.2096(3) 0.4912(2) 0.89940(18) 0.0199(7) Uani 1 1 d . . . . .
O10 O 0.2513(3) 0.6013(2) 0.97564(18) 0.0249(8) Uani 1 1 d . . . . .
O11 O 1.2254(3) 0.7846(3) 0.9253(2) 0.0375(10) Uani 1 1 d . . . . .
H11A H 1.263794 0.740304 0.950747 0.056 Uiso 1 1 d R . . . .
H11B H 1.195024 0.754994 0.888677 0.056 Uiso 1 1 d R . . . .
N1 N 0.9599(3) 0.8597(3) 0.8760(2) 0.0193(9) Uani 1 1 d . . . . .
N2 N 0.8080(3) 0.8292(3) 0.7919(2) 0.0220(9) Uani 1 1 d . . . . .
N3 N 0.2210(3) 0.6479(3) 0.5791(2) 0.0220(9) Uani 1 1 d . . . . .
N4 N 0.3835(4) 0.6725(3) 0.6561(3) 0.0376(12) Uani 1 1 d . . . . .
C1 C 1.0255(4) 0.6588(3) 1.0471(2) 0.0109(9) Uani 1 1 d . . . . .
C2 C 0.8637(4) 0.9425(3) 1.0377(2) 0.0199(10) Uani 1 1 d . . . . .
C3 C 0.7878(4) 0.8615(3) 1.0201(3) 0.0224(11) Uani 1 1 d . . . . .
C4 C 0.8256(4) 0.7779(3) 1.0482(2) 0.0151(9) Uani 1 1 d . . . . .
C5 C 0.9253(4) 0.7703(3) 1.1093(2) 0.0146(9) Uani 1 1 d . . . . .
C6 C 1.0145(4) 0.7076(3) 1.1116(2) 0.0134(9) Uani 1 1 d . . . . .
C7 C 1.0998(4) 0.6949(3) 1.1719(2) 0.0177(10) Uani 1 1 d . . . . .
H7 H 1.158937 0.650748 1.173349 0.021 Uiso 1 1 calc R . . . .
C8 C 1.0984(4) 0.7465(3) 1.2295(2) 0.0206(10) Uani 1 1 d . . . . .
H8A H 1.156142 0.737393 1.270770 0.025 Uiso 1 1 calc R . . . .
C9 C 1.0125(4) 0.8119(3) 1.2274(2) 0.0175(10) Uani 1 1 d . . . . .
C10 C 1.0088(5) 0.8680(4) 1.2903(3) 0.0236(11) Uani 1 1 d . . . . .
C11 C 0.9264(4) 0.8229(3) 1.1675(2) 0.0153(9) Uani 1 1 d . . . . .
H11 H 0.867289 0.867111 1.166291 0.018 Uiso 1 1 calc R . . . .
C12 C 0.7631(4) 0.7017(3) 1.0223(2) 0.0160(10) Uani 1 1 d . . . . .
H12 H 0.789861 0.644802 1.040646 0.019 Uiso 1 1 calc R . . . .
C13 C 0.6620(4) 0.7068(3) 0.9702(3) 0.0222(11) Uani 1 1 d . . . . .
C14 C 0.5928(4) 0.6264(3) 0.9407(2) 0.0197(10) Uani 1 1 d . . . . .
C15 C 0.6323(4) 0.5606(4) 0.8991(2) 0.0234(11) Uani 1 1 d . . . . .
C16 C 0.7512(4) 0.5636(4) 0.8814(2) 0.0259(12) Uani 1 1 d . . . . .
C17 C 0.5569(4) 0.4913(4) 0.8701(3) 0.0278(12) Uani 1 1 d . . . . .
H17 H 0.583471 0.447371 0.842226 0.033 Uiso 1 1 calc R . . . .
C18 C 0.4437(4) 0.4861(4) 0.8817(3) 0.0240(11) Uani 1 1 d . . . . .
H18 H 0.393313 0.438614 0.861860 0.029 Uiso 1 1 calc R . . . .
C19 C 0.4042(4) 0.5498(3) 0.9221(2) 0.0176(10) Uani 1 1 d . . . . .
C20 C 0.2804(4) 0.5471(3) 0.9338(2) 0.0177(10) Uani 1 1 d . . . . .
C21 C 0.4787(4) 0.6192(3) 0.9506(3) 0.0194(10) Uani 1 1 d . . . . .
H21 H 0.450536 0.663187 0.977808 0.023 Uiso 1 1 calc R . . . .
C22 C 0.6190(5) 0.7920(4) 0.9491(4) 0.0468(19) Uani 1 1 d . . . . .
H22 H 0.544767 0.797639 0.918219 0.056 Uiso 1 1 calc R . . . .
C23 C 0.6821(5) 0.8675(4) 0.9722(4) 0.0460(18) Uani 1 1 d . . . . .
H23 H 0.653258 0.924509 0.955293 0.055 Uiso 1 1 calc R . . . .
C24 C 0.8667(4) 0.8082(4) 0.8570(2) 0.0243(11) Uani 1 1 d . . . . .
H24 H 0.843707 0.762645 0.884980 0.029 Uiso 1 1 calc R . . . .
C25 C 0.7003(5) 0.7887(4) 0.7567(3) 0.0275(11) Uani 1 1 d . U . . .
C26 C 0.6211(10) 0.7645(8) 0.7900(6) 0.056(3) Uani 0.642(6) 1 d . U P A 1
H26 H 0.634718 0.773999 0.838543 0.067 Uiso 0.642(6) 1 calc R . P A 1
C26A C 0.5929(14) 0.8341(12) 0.7584(10) 0.041(4) Uani 0.358(6) 1 d . U P A 2
H26A H 0.594191 0.891232 0.779672 0.049 Uiso 0.358(6) 1 calc R . P A 2
C27 C 0.5156(11) 0.7244(9) 0.7560(6) 0.057(3) Uani 0.642(6) 1 d . U P A 1
H27 H 0.460270 0.706194 0.782275 0.068 Uiso 0.642(6) 1 calc R . P A 1
C27A C 0.4866(14) 0.7938(12) 0.7284(10) 0.040(4) Uani 0.358(6) 1 d . U P A 2
H27A H 0.413628 0.818858 0.732811 0.048 Uiso 0.358(6) 1 calc R . P A 2
C28 C 0.4924(5) 0.7119(4) 0.6904(3) 0.0384(14) Uani 1 1 d . U . . .
C29 C 0.5786(6) 0.7380(5) 0.6500(4) 0.0184(16) Uani 0.642(6) 1 d . U P A 1
H29 H 0.563541 0.727669 0.601523 0.022 Uiso 0.642(6) 1 calc R . P A 1
C29A C 0.5846(13) 0.6568(12) 0.7112(9) 0.036(3) Uani 0.358(6) 1 d . U P A 2
H29A H 0.577610 0.593973 0.703902 0.044 Uiso 0.358(6) 1 calc R . P A 2
C30 C 0.6824(6) 0.7780(5) 0.6835(4) 0.0153(15) Uani 0.642(6) 1 d . U P A 1
H30 H 0.739360 0.797464 0.658788 0.018 Uiso 0.642(6) 1 calc R . P A 1
C30A C 0.6923(14) 0.6963(11) 0.7444(8) 0.031(3) Uani 0.358(6) 1 d . U P A 2
H30A H 0.759854 0.659767 0.758538 0.037 Uiso 0.358(6) 1 calc R . P A 2
C31 C 0.8703(4) 0.8971(3) 0.7680(2) 0.0213(10) Uani 1 1 d . . . . .
H31 H 0.851605 0.925267 0.723905 0.026 Uiso 1 1 calc R . . . .
C32 C 0.9627(4) 0.9148(3) 0.8200(2) 0.0200(10) Uani 1 1 d . . . . .
H32 H 1.021190 0.958653 0.818528 0.024 Uiso 1 1 calc R . . . .
C33 C 0.3148(4) 0.6996(4) 0.5957(3) 0.0304(13) Uani 1 1 d . . . . .
H33 H 0.331591 0.748771 0.568870 0.036 Uiso 1 1 calc R . . . .
C34 C 0.3291(5) 0.5995(5) 0.6785(3) 0.052(2) Uani 1 1 d . . . . .
H34 H 0.355897 0.566276 0.719805 0.063 Uiso 1 1 calc R . . . .
C35 C 0.2307(5) 0.5846(4) 0.6303(3) 0.0397(15) Uani 1 1 d . . . . .
H35 H 0.176296 0.537581 0.631475 0.048 Uiso 1 1 calc R . . . .
loop_
_atom_site_aniso_label
_atom_site_aniso_U_11
_atom_site_aniso_U_22
_atom_site_aniso_U_33
_atom_site_aniso_U_23
_atom_site_aniso_U_13
_atom_site_aniso_U_12
Cd1 0.01212(16) 0.01316(16) 0.01058(15) -0.00012(13) 0.00410(11) -0.00282(13)
Cd2 0.01260(16) 0.01522(17) 0.01866(17) 0.00023(14) -0.00273(12) -0.00118(14)
O1 0.0156(15) 0.0093(16) 0.0146(15) -0.0006(12) 0.0068(12) -0.0038(12)
O2 0.0160(16) 0.0133(16) 0.0116(15) 0.0000(12) 0.0020(12) -0.0040(13)
O3 0.0170(17) 0.0173(17) 0.0282(18) -0.0044(15) 0.0052(14) -0.0020(14)
O4 0.0205(18) 0.0120(17) 0.043(2) 0.0020(16) 0.0042(16) 0.0011(14)
O5 0.039(2) 0.031(2) 0.0157(18) -0.0100(16) 0.0117(16) -0.0110(17)
O6 0.033(2) 0.025(2) 0.041(2) -0.0131(18) 0.0260(18) -0.0054(17)
O7 0.0121(16) 0.0265(19) 0.0239(18) 0.0004(15) 0.0021(14) -0.0038(14)
O8 0.021(2) 0.126(5) 0.026(2) -0.026(3) 0.0099(17) -0.026(3)
O9 0.0110(15) 0.0160(17) 0.0326(19) 0.0009(15) 0.0048(14) -0.0023(13)
O10 0.0147(17) 0.032(2) 0.0292(19) -0.0037(16) 0.0073(15) -0.0002(15)
O11 0.037(2) 0.042(3) 0.035(2) -0.0024(19) 0.0098(18) 0.0095(19)
N1 0.020(2) 0.020(2) 0.0168(19) 0.0049(17) -0.0004(16) -0.0035(17)
N2 0.016(2) 0.028(2) 0.018(2) 0.0025(18) -0.0033(16) -0.0061(17)
N3 0.014(2) 0.022(2) 0.026(2) 0.0016(18) -0.0056(16) -0.0041(17)
N4 0.025(2) 0.039(3) 0.038(3) 0.008(2) -0.016(2) -0.013(2)
C1 0.007(2) 0.013(2) 0.012(2) -0.0014(17) -0.0009(16) -0.0025(16)
C2 0.019(2) 0.016(2) 0.023(2) 0.006(2) 0.0003(19) -0.002(2)
C3 0.015(2) 0.017(3) 0.035(3) 0.003(2) 0.004(2) -0.006(2)
C4 0.011(2) 0.018(2) 0.017(2) -0.0003(19) 0.0056(18) -0.0011(18)
C5 0.014(2) 0.016(2) 0.015(2) -0.0002(19) 0.0048(18) -0.0060(18)
C6 0.013(2) 0.016(2) 0.011(2) 0.0007(17) 0.0013(17) -0.0073(18)
C7 0.018(2) 0.018(2) 0.015(2) -0.0019(19) -0.0005(19) 0.0053(19)
C8 0.025(3) 0.025(3) 0.011(2) -0.0046(19) 0.0010(19) -0.004(2)
C9 0.020(2) 0.020(3) 0.015(2) -0.0066(19) 0.0104(19) -0.007(2)
C10 0.030(3) 0.025(3) 0.021(3) -0.010(2) 0.017(2) -0.014(2)
C11 0.018(2) 0.009(2) 0.022(2) -0.0018(18) 0.0100(19) 0.0009(18)
C12 0.011(2) 0.020(2) 0.018(2) 0.0019(19) 0.0063(18) 0.0006(18)
C13 0.015(2) 0.021(3) 0.029(3) 0.007(2) -0.001(2) -0.007(2)
C14 0.015(2) 0.022(3) 0.019(2) 0.005(2) -0.0009(19) -0.006(2)
C15 0.011(2) 0.035(3) 0.022(2) 0.001(2) 0.0011(19) -0.007(2)
C16 0.015(2) 0.043(3) 0.019(2) 0.002(2) 0.002(2) -0.011(2)
C17 0.018(3) 0.032(3) 0.034(3) -0.007(2) 0.004(2) -0.003(2)
C18 0.014(2) 0.023(3) 0.034(3) -0.011(2) 0.004(2) -0.008(2)
C19 0.013(2) 0.020(3) 0.019(2) 0.004(2) 0.0019(18) -0.0004(19)
C20 0.012(2) 0.020(3) 0.022(2) 0.005(2) 0.0051(18) 0.0001(19)
C21 0.014(2) 0.016(2) 0.026(3) 0.002(2) 0.0000(19) -0.0020(19)
C22 0.022(3) 0.028(3) 0.075(5) 0.024(3) -0.026(3) -0.007(2)
C23 0.024(3) 0.020(3) 0.081(5) 0.022(3) -0.019(3) -0.007(2)
C24 0.023(3) 0.031(3) 0.016(2) 0.008(2) -0.001(2) -0.012(2)
C25 0.023(2) 0.033(3) 0.022(2) 0.001(2) -0.0047(19) -0.004(2)
C26 0.056(3) 0.058(3) 0.055(3) 0.0008(10) 0.0124(11) -0.0024(10)
C26A 0.027(5) 0.036(7) 0.060(8) -0.021(6) 0.007(5) 0.002(4)
C27 0.057(3) 0.058(3) 0.056(3) 0.0008(10) 0.0123(11) -0.0021(10)
C27A 0.021(5) 0.040(6) 0.058(8) -0.009(6) 0.005(5) -0.001(5)
C28 0.022(3) 0.043(3) 0.042(3) 0.003(3) -0.011(2) -0.010(2)
C29 0.012(3) 0.022(4) 0.017(3) -0.006(3) -0.007(2) 0.002(3)
C29A 0.027(5) 0.037(6) 0.041(7) -0.006(6) -0.002(5) -0.006(4)
C30 0.011(3) 0.017(4) 0.017(3) -0.005(3) 0.000(2) 0.002(3)
C30A 0.026(5) 0.029(5) 0.037(7) 0.001(5) 0.003(5) -0.006(5)
C31 0.027(3) 0.019(3) 0.016(2) 0.004(2) -0.001(2) 0.001(2)
C32 0.019(2) 0.018(3) 0.022(2) 0.006(2) 0.004(2) -0.0013(19)
C33 0.020(3) 0.027(3) 0.039(3) 0.006(2) -0.006(2) -0.001(2)
C34 0.035(4) 0.063(5) 0.046(4) 0.029(3) -0.020(3) -0.018(3)
C35 0.027(3) 0.042(4) 0.042(3) 0.019(3) -0.009(3) -0.011(3)
loop_
_atom_type_symbol
_atom_type_description
_atom_type_scat_dispersion_real
_atom_type_scat_dispersion_imag
_atom_type_scat_source
C C 0.0030 0.0020 'International Tables Vol C Tables 4.2.6.8 and 6.1.1.4'
H H 0.0000 0.0000 'International Tables Vol C Tables 4.2.6.8 and 6.1.1.4'
Cd Cd -0.8080 1.2020 'International Tables Vol C Tables 4.2.6.8 and 6.1.1.4'
N N 0.0060 0.0030 'International Tables Vol C Tables 4.2.6.8 and 6.1.1.4'
O O 0.0110 0.0060 'International Tables Vol C Tables 4.2.6.8 and 6.1.1.4'
loop_
_geom_angle_atom_site_label_1
_geom_angle_atom_site_label_2
_geom_angle_atom_site_label_3
_geom_angle
_geom_angle_site_symmetry_1
_geom_angle_site_symmetry_3
_geom_angle_publ_flag
O1 Cd1 Cd1 38.32(7) 3_767 3_767 ?
O1 Cd1 Cd1 37.59(7) . 3_767 ?
O1 Cd1 O1 75.90(11) 3_767 . ?
O1 Cd1 O2 53.90(10) . . ?
O1 Cd1 O2 124.23(10) 3_767 . ?
O1 Cd1 O7 78.48(11) . . ?
O1 Cd1 O7 76.67(11) 3_767 . ?
O1 Cd1 O9 92.48(11) 3_767 1_655 ?
O1 Cd1 O10 83.59(11) . 1_655 ?
O1 Cd1 O10 123.23(12) 3_767 1_655 ?
O1 Cd1 C1 27.03(11) . . ?
O1 Cd1 C1 100.19(11) 3_767 . ?
O1 Cd1 C20 105.21(12) . 1_655 ?
O1 Cd1 C20 111.91(13) 3_767 1_655 ?
O2 Cd1 Cd1 88.68(7) . 3_767 ?
O2 Cd1 C1 26.87(11) . . ?
O2 Cd1 C20 103.99(13) . 1_655 ?
O5 Cd1 Cd1 166.35(9) 4_575 3_767 ?
O5 Cd1 O1 145.00(12) 4_575 3_767 ?
O5 Cd1 O1 135.58(12) 4_575 . ?
O5 Cd1 O2 81.97(12) 4_575 . ?
O5 Cd1 O7 93.34(12) 4_575 . ?
O5 Cd1 O9 82.62(12) 4_575 1_655 ?
O5 Cd1 O10 81.87(13) 4_575 1_655 ?
O5 Cd1 C1 108.77(13) 4_575 . ?
O5 Cd1 C20 78.37(14) 4_575 1_655 ?
O7 Cd1 Cd1 74.18(8) . 3_767 ?
O7 Cd1 O2 71.44(10) . . ?
O7 Cd1 C1 72.65(11) . . ?
O7 Cd1 C20 171.15(13) . 1_655 ?
O9 Cd1 Cd1 111.02(8) 1_655 3_767 ?
O9 Cd1 O1 121.23(11) 1_655 . ?
O9 Cd1 O2 131.76(11) 1_655 . ?
O9 Cd1 O7 154.93(11) 1_655 . ?
O9 Cd1 O10 55.26(12) 1_655 1_655 ?
O9 Cd1 C1 132.09(12) 1_655 . ?
O9 Cd1 C20 27.91(13) 1_655 1_655 ?
O10 Cd1 Cd1 105.86(9) 1_655 3_767 ?
O10 Cd1 O2 77.42(11) 1_655 . ?
O10 Cd1 O7 148.85(12) 1_655 . ?
O10 Cd1 C1 79.78(12) 1_655 . ?
O10 Cd1 C20 27.62(13) 1_655 1_655 ?
C1 Cd1 Cd1 62.73(9) . 3_767 ?
C20 Cd1 Cd1 113.73(10) 1_655 3_767 ?
C20 Cd1 C1 106.87(13) 1_655 . ?
O3 Cd2 O2 101.83(11) . . ?
O3 Cd2 O11 171.50(13) . . ?
O4 Cd2 O2 162.41(11) 3_777 . ?
O4 Cd2 O3 94.63(12) 3_777 . ?
O4 Cd2 O11 82.14(14) 3_777 . ?
O11 Cd2 O2 80.70(13) . . ?
N1 Cd2 O2 89.11(13) . . ?
N1 Cd2 O3 99.70(14) . . ?
N1 Cd2 O4 94.26(14) . 3_777 ?
N1 Cd2 O11 88.41(14) . . ?
N1 Cd2 N3 175.64(15) . 4_676 ?
N3 Cd2 O2 90.70(13) 4_676 . ?
N3 Cd2 O3 84.60(13) 4_676 . ?
N3 Cd2 O4 84.63(14) 4_676 3_777 ?
N3 Cd2 O11 87.26(14) 4_676 . ?
Cd1 O1 Cd1 104.10(11) 3_767 . ?
C1 O1 Cd1 95.8(2) . . ?
C1 O1 Cd1 146.9(3) . 3_767 ?
Cd2 O2 Cd1 134.25(13) . . ?
C1 O2 Cd1 89.5(3) . . ?
C1 O2 Cd2 131.8(3) . . ?
C2 O3 Cd2 132.1(3) . . ?
C2 O4 Cd2 115.9(3) . 3_777 ?
C10 O5 Cd1 109.4(3) . 4_576 ?
C16 O7 Cd1 130.1(3) . . ?
C16 O8 H8 109.5 . . ?
C20 O9 Cd1 91.8(3) . 1_455 ?
C20 O10 Cd1 88.8(3) . 1_455 ?
Cd2 O11 H11A 113.3 . . ?
Cd2 O11 H11B 114.4 . . ?
H11A O11 H11B 99.3 . . ?
C24 N1 Cd2 126.0(3) . . ?
C24 N1 C32 106.1(4) . . ?
C32 N1 Cd2 127.9(3) . . ?
C24 N2 C25 125.1(4) . . ?
C24 N2 C31 107.3(4) . . ?
C31 N2 C25 127.6(4) . . ?
C33 N3 Cd2 129.1(4) . 4_475 ?
C33 N3 C35 106.6(4) . . ?
C35 N3 Cd2 123.4(3) . 4_475 ?
C33 N4 C28 126.4(5) . . ?
C33 N4 C34 107.1(5) . . ?
C34 N4 C28 126.6(5) . . ?
O1 C1 Cd1 57.2(2) . . ?
O1 C1 C6 120.5(4) . . ?
O2 C1 Cd1 63.6(2) . . ?
O2 C1 O1 120.8(4) . . ?
O2 C1 C6 118.7(4) . . ?
C6 C1 Cd1 177.7(3) . . ?
O3 C2 C3 118.1(4) . . ?
O4 C2 O3 123.9(4) . . ?
O4 C2 C3 118.0(4) . . ?
C4 C3 C2 120.6(4) . . ?
C23 C3 C2 120.1(5) . . ?
C23 C3 C4 119.2(5) . . ?
C3 C4 C5 121.0(4) . . ?
C12 C4 C3 119.3(4) . . ?
C12 C4 C5 119.5(4) . . ?
C6 C5 C4 121.7(4) . . ?
C11 C5 C4 119.7(4) . . ?
C11 C5 C6 118.5(4) . . ?
C5 C6 C1 119.9(4) . . ?
C5 C6 C7 120.7(4) . . ?
C7 C6 C1 119.2(4) . . ?
C6 C7 H7 120.0 . . ?
C8 C7 C6 120.0(4) . . ?
C8 C7 H7 120.0 . . ?
C7 C8 H8A 119.9 . . ?
C7 C8 C9 120.2(4) . . ?
C9 C8 H8A 119.9 . . ?
C8 C9 C10 120.8(4) . . ?
C11 C9 C8 119.5(4) . . ?
C11 C9 C10 119.6(4) . . ?
O5 C10 O6 123.6(5) . . ?
O5 C10 C9 117.4(5) . . ?
O6 C10 C9 119.0(5) . . ?
C5 C11 H11 119.5 . . ?
C9 C11 C5 121.0(4) . . ?
C9 C11 H11 119.5 . . ?
C4 C12 H12 119.2 . . ?
C4 C12 C13 121.5(4) . . ?
C13 C12 H12 119.2 . . ?
C12 C13 C14 123.1(4) . . ?
C12 C13 C22 117.6(5) . . ?
C22 C13 C14 119.1(4) . . ?
C15 C14 C13 124.6(4) . . ?
C21 C14 C13 117.4(5) . . ?
C21 C14 C15 117.9(4) . . ?
C14 C15 C16 123.0(5) . . ?
C17 C15 C14 119.8(4) . . ?
C17 C15 C16 117.2(5) . . ?
O7 C16 O8 123.0(4) . . ?
O7 C16 C15 124.0(5) . . ?
O8 C16 C15 113.0(4) . . ?
C15 C17 H17 119.7 . . ?
C18 C17 C15 120.7(5) . . ?
C18 C17 H17 119.7 . . ?
C17 C18 H18 120.0 . . ?
C19 C18 C17 120.1(5) . . ?
C19 C18 H18 120.0 . . ?
C18 C19 C20 121.1(4) . . ?
C18 C19 C21 119.4(4) . . ?
C21 C19 C20 119.4(4) . . ?
O9 C20 Cd1 60.2(2) . 1_455 ?
O9 C20 C19 118.0(4) . . ?
O10 C20 Cd1 63.6(2) . 1_455 ?
O10 C20 O9 122.9(4) . . ?
O10 C20 C19 119.1(4) . . ?
C19 C20 Cd1 168.2(3) . 1_455 ?
C14 C21 C19 122.2(5) . . ?
C14 C21 H21 118.9 . . ?
C19 C21 H21 118.9 . . ?
C13 C22 H22 119.5 . . ?
C23 C22 C13 121.1(5) . . ?
C23 C22 H22 119.5 . . ?
C3 C23 H23 119.7 . . ?
C22 C23 C3 120.7(5) . . ?
C22 C23 H23 119.7 . . ?
N1 C24 N2 110.6(4) . . ?
N1 C24 H24 124.7 . . ?
N2 C24 H24 124.7 . . ?
C26 C25 N2 121.1(7) . . ?
C26 C25 C30 121.3(7) . . ?
C26A C25 N2 118.0(8) . . ?
C30 C25 N2 117.6(5) . . ?
C30A C25 N2 121.2(8) . . ?
C30A C25 C26A 116.4(10) . . ?
C25 C26 H26 119.2 . . ?
C25 C26 C27 121.5(11) . . ?
C27 C26 H26 119.2 . . ?
C25 C26A H26A 120.4 . . ?
C27A C26A C25 119.3(14) . . ?
C27A C26A H26A 120.4 . . ?
C26 C27 H27 119.3 . . ?
C28 C27 C26 121.4(11) . . ?
C28 C27 H27 119.3 . . ?
C26A C27A H27A 121.6 . . ?
C26A C27A C28 116.9(14) . . ?
C28 C27A H27A 121.6 . . ?
N4 C28 C27A 117.4(8) . . ?
N4 C28 C29 119.7(6) . . ?
C27 C28 N4 120.9(8) . . ?
C27 C28 C29 119.4(7) . . ?
C29A C28 N4 117.5(9) . . ?
C29A C28 C27A 118.7(11) . . ?
C28 C29 H29 120.5 . . ?
C30 C29 C28 119.1(6) . . ?
C30 C29 H29 120.5 . . ?
C28 C29A H29A 121.4 . . ?
C28 C29A C30A 117.2(15) . . ?
C30A C29A H29A 121.4 . . ?
C25 C30 H30 121.4 . . ?
C29 C30 C25 117.2(6) . . ?
C29 C30 H30 121.4 . . ?
C25 C30A C29A 120.7(14) . . ?
C25 C30A H30A 119.6 . . ?
C29A C30A H30A 119.6 . . ?
N2 C31 H31 127.0 . . ?
C32 C31 N2 105.9(4) . . ?
C32 C31 H31 127.0 . . ?
N1 C32 H32 125.0 . . ?
C31 C32 N1 110.0(4) . . ?
C31 C32 H32 125.0 . . ?
N3 C33 N4 110.3(5) . . ?
N3 C33 H33 124.8 . . ?
N4 C33 H33 124.8 . . ?
N4 C34 H34 126.7 . . ?
C35 C34 N4 106.5(5) . . ?
C35 C34 H34 126.7 . . ?
N3 C35 H35 125.3 . . ?
C34 C35 N3 109.4(5) . . ?
C34 C35 H35 125.3 . . ?
loop_
_geom_bond_atom_site_label_1
_geom_bond_atom_site_label_2
_geom_bond_distance
_geom_bond_site_symmetry_2
_geom_bond_publ_flag
Cd1 Cd1 3.6851(6) 3_767 ?
Cd1 O1 2.318(3) 3_767 ?
Cd1 O1 2.356(3) . ?
Cd1 O2 2.499(3) . ?
Cd1 O5 2.233(3) 4_575 ?
Cd1 O7 2.477(3) . ?
Cd1 O9 2.348(3) 1_655 ?
Cd1 O10 2.423(3) 1_655 ?
Cd1 C1 2.789(4) . ?
Cd1 C20 2.703(4) 1_655 ?
Cd2 O2 2.419(3) . ?
Cd2 O3 2.310(3) . ?
Cd2 O4 2.309(3) 3_777 ?
Cd2 O11 2.401(4) . ?
Cd2 N1 2.243(4) . ?
Cd2 N3 2.253(4) 4_676 ?
O1 C1 1.274(5) . ?
O2 C1 1.261(5) . ?
O3 C2 1.263(6) . ?
O4 C2 1.258(6) . ?
O5 C10 1.256(6) . ?
O6 C10 1.259(7) . ?
O7 C16 1.212(6) . ?
O8 H8 0.8400 . ?
O8 C16 1.326(6) . ?
O9 C20 1.266(6) . ?
O10 C20 1.254(6) . ?
O11 H11A 0.8911 . ?
O11 H11B 0.8581 . ?
N1 C24 1.319(6) . ?
N1 C32 1.386(6) . ?
N2 C24 1.359(6) . ?
N2 C25 1.433(6) . ?
N2 C31 1.388(6) . ?
N3 C33 1.322(7) . ?
N3 C35 1.372(7) . ?
N4 C28 1.431(7) . ?
N4 C33 1.352(7) . ?
N4 C34 1.380(8) . ?
C1 C6 1.498(6) . ?
C2 C3 1.495(7) . ?
C3 C4 1.398(7) . ?
C3 C23 1.387(7) . ?
C4 C5 1.491(6) . ?
C4 C12 1.390(7) . ?
C5 C6 1.393(6) . ?
C5 C11 1.392(6) . ?
C6 C7 1.393(6) . ?
C7 H7 0.9500 . ?
C7 C8 1.377(6) . ?
C8 H8A 0.9500 . ?
C8 C9 1.394(7) . ?
C9 C10 1.507(6) . ?
C9 C11 1.389(7) . ?
C11 H11 0.9500 . ?
C12 H12 0.9500 . ?
C12 C13 1.392(6) . ?
C13 C14 1.494(7) . ?
C13 C22 1.399(8) . ?
C14 C15 1.420(7) . ?
C14 C21 1.389(7) . ?
C15 C16 1.500(6) . ?
C15 C17 1.399(7) . ?
C17 H17 0.9500 . ?
C17 C18 1.389(7) . ?
C18 H18 0.9500 . ?
C18 C19 1.383(7) . ?
C19 C20 1.510(6) . ?
C19 C21 1.392(7) . ?
C21 H21 0.9500 . ?
C22 H22 0.9500 . ?
C22 C23 1.371(8) . ?
C23 H23 0.9500 . ?
C24 H24 0.9500 . ?
C25 C26 1.295(13) . ?
C25 C26A 1.430(17) . ?
C25 C30 1.425(8) . ?
C25 C30A 1.401(17) . ?
C26 H26 0.9500 . ?
C26 C27 1.402(16) . ?
C26A H26A 0.9500 . ?
C26A C27A 1.39(2) . ?
C27 H27 0.9500 . ?
C27 C28 1.283(13) . ?
C27A H27A 0.9500 . ?
C27A C28 1.445(18) . ?
C28 C29 1.462(10) . ?
C28 C29A 1.347(18) . ?
C29 H29 0.9500 . ?
C29 C30 1.385(10) . ?
C29A H29A 0.9500 . ?
C29A C30A 1.42(2) . ?
C30 H30 0.9500 . ?
C30A H30A 0.9500 . ?
C31 H31 0.9500 . ?
C31 C32 1.348(7) . ?
C32 H32 0.9500 . ?
C33 H33 0.9500 . ?
C34 H34 0.9500 . ?
C34 C35 1.344(8) . ?
C35 H35 0.9500 . ?
loop_
_geom_torsion_atom_site_label_1
_geom_torsion_atom_site_label_2
_geom_torsion_atom_site_label_3
_geom_torsion_atom_site_label_4
_geom_torsion
_geom_torsion_site_symmetry_1
_geom_torsion_site_symmetry_2
_geom_torsion_site_symmetry_3
_geom_torsion_site_symmetry_4
_geom_torsion_publ_flag
Cd1 O1 C1 Cd1 -127.1(5) 3_767 . . . ?
Cd1 O1 C1 O2 -1.8(4) . . . . ?
Cd1 O1 C1 O2 -128.9(4) 3_767 . . . ?
Cd1 O1 C1 C6 53.4(7) 3_767 . . . ?
Cd1 O1 C1 C6 -179.5(3) . . . . ?
Cd1 O2 C1 O1 1.7(4) . . . . ?
Cd1 O2 C1 C6 179.4(3) . . . . ?
Cd1 O5 C10 O6 -0.7(6) 4_576 . . . ?
Cd1 O5 C10 C9 179.8(3) 4_576 . . . ?
Cd1 O7 C16 O8 -26.7(8) . . . . ?
Cd1 O7 C16 C15 151.5(4) . . . . ?
Cd1 O9 C20 O10 11.7(5) 1_455 . . . ?
Cd1 O9 C20 C19 -166.6(4) 1_455 . . . ?
Cd1 O10 C20 O9 -11.3(5) 1_455 . . . ?
Cd1 O10 C20 C19 167.0(4) 1_455 . . . ?
Cd2 O2 C1 Cd1 -158.1(3) . . . . ?
Cd2 O2 C1 O1 -156.4(3) . . . . ?
Cd2 O2 C1 C6 21.3(6) . . . . ?
Cd2 O3 C2 O4 -133.2(4) . . . . ?
Cd2 O3 C2 C3 44.9(6) . . . . ?
Cd2 O4 C2 O3 24.8(6) 3_777 . . . ?
Cd2 O4 C2 C3 -153.3(3) 3_777 . . . ?
Cd2 N1 C24 N2 177.7(3) . . . . ?
Cd2 N1 C32 C31 -178.2(3) . . . . ?
Cd2 N3 C33 N4 -170.3(4) 4_475 . . . ?
Cd2 N3 C35 C34 171.5(5) 4_475 . . . ?
O1 C1 C6 C5 -129.0(4) . . . . ?
O1 C1 C6 C7 56.3(6) . . . . ?
O2 C1 C6 C5 53.3(6) . . . . ?
O2 C1 C6 C7 -121.4(5) . . . . ?
O3 C2 C3 C4 37.0(7) . . . . ?
O3 C2 C3 C23 -138.8(6) . . . . ?
O4 C2 C3 C4 -144.8(5) . . . . ?
O4 C2 C3 C23 39.3(8) . . . . ?
N2 C25 C26 C27 -179.7(9) . . . . ?
N2 C25 C26A C27A -175.9(14) . . . . ?
N2 C25 C30 C29 179.3(6) . . . . ?
N2 C25 C30A C29A 178.3(11) . . . . ?
N2 C31 C32 N1 0.0(6) . . . . ?
N4 C28 C29 C30 178.5(6) . . . . ?
N4 C28 C29A C30A 179.4(11) . . . . ?
N4 C34 C35 N3 -1.4(9) . . . . ?
C1 C6 C7 C8 172.8(4) . . . . ?
C2 C3 C4 C5 16.2(7) . . . . ?
C2 C3 C4 C12 -169.3(4) . . . . ?
C2 C3 C23 C22 171.7(6) . . . . ?
C3 C4 C5 C6 -134.7(5) . . . . ?
C3 C4 C5 C11 49.4(6) . . . . ?
C3 C4 C12 C13 -1.5(7) . . . . ?
C4 C3 C23 C22 -4.2(10) . . . . ?
C4 C5 C6 C1 12.3(6) . . . . ?
C4 C5 C6 C7 -173.0(4) . . . . ?
C4 C5 C11 C9 174.4(4) . . . . ?
C4 C12 C13 C14 179.5(4) . . . . ?
C4 C12 C13 C22 -5.9(8) . . . . ?
C5 C4 C12 C13 173.1(4) . . . . ?
C5 C6 C7 C8 -1.9(7) . . . . ?
C6 C5 C11 C9 -1.7(7) . . . . ?
C6 C7 C8 C9 -0.6(7) . . . . ?
C7 C8 C9 C10 179.2(4) . . . . ?
C7 C8 C9 C11 1.9(7) . . . . ?
C8 C9 C10 O5 -13.4(7) . . . . ?
C8 C9 C10 O6 167.0(5) . . . . ?
C8 C9 C11 C5 -0.7(7) . . . . ?
C10 C9 C11 C5 -178.1(4) . . . . ?
C11 C5 C6 C1 -171.7(4) . . . . ?
C11 C5 C6 C7 3.0(7) . . . . ?
C11 C9 C10 O5 163.9(4) . . . . ?
C11 C9 C10 O6 -15.7(7) . . . . ?
C12 C4 C5 C6 50.9(6) . . . . ?
C12 C4 C5 C11 -125.1(5) . . . . ?
C12 C13 C14 C15 -69.1(7) . . . . ?
C12 C13 C14 C21 115.9(5) . . . . ?
C12 C13 C22 C23 8.4(10) . . . . ?
C13 C14 C15 C16 1.7(8) . . . . ?
C13 C14 C15 C17 -175.5(5) . . . . ?
C13 C14 C21 C19 176.3(4) . . . . ?
C13 C22 C23 C3 -3.4(12) . . . . ?
C14 C13 C22 C23 -176.8(6) . . . . ?
C14 C15 C16 O7 28.7(8) . . . . ?
C14 C15 C16 O8 -152.9(5) . . . . ?
C14 C15 C17 C18 0.0(8) . . . . ?
C15 C14 C21 C19 0.9(7) . . . . ?
C15 C17 C18 C19 0.1(8) . . . . ?
C16 C15 C17 C18 -177.4(5) . . . . ?
C17 C15 C16 O7 -154.1(5) . . . . ?
C17 C15 C16 O8 24.3(7) . . . . ?
C17 C18 C19 C20 178.3(5) . . . . ?
C17 C18 C19 C21 0.3(8) . . . . ?
C18 C19 C20 Cd1 -86.3(18) . . . 1_455 ?
C18 C19 C20 O9 -8.0(7) . . . . ?
C18 C19 C20 O10 173.7(5) . . . . ?
C18 C19 C21 C14 -0.8(7) . . . . ?
C20 C19 C21 C14 -178.8(4) . . . . ?
C21 C14 C15 C16 176.7(5) . . . . ?
C21 C14 C15 C17 -0.5(7) . . . . ?
C21 C19 C20 Cd1 91.7(17) . . . 1_455 ?
C21 C19 C20 O9 170.0(4) . . . . ?
C21 C19 C20 O10 -8.3(7) . . . . ?
C22 C13 C14 C15 116.4(6) . . . . ?
C22 C13 C14 C21 -58.6(7) . . . . ?
C23 C3 C4 C5 -167.9(5) . . . . ?
C23 C3 C4 C12 6.6(8) . . . . ?
C24 N1 C32 C31 0.9(6) . . . . ?
C24 N2 C25 C26 35.0(10) . . . . ?
C24 N2 C25 C26A 96.7(11) . . . . ?
C24 N2 C25 C30 -146.3(6) . . . . ?
C24 N2 C25 C30A -59.0(11) . . . . ?
C24 N2 C31 C32 -0.8(6) . . . . ?
C25 N2 C24 N1 -177.2(5) . . . . ?
C25 N2 C31 C32 177.8(5) . . . . ?
C25 C26 C27 C28 -1.5(19) . . . . ?
C25 C26A C27A C28 -7(3) . . . . ?
C26 C25 C30 C29 -2.0(11) . . . . ?
C26 C27 C28 N4 -178.8(9) . . . . ?
C26 C27 C28 C29 1.4(16) . . . . ?
C26A C25 C30A C29A 22.3(19) . . . . ?
C26A C27A C28 N4 -176.6(13) . . . . ?
C26A C27A C28 C29A 32(2) . . . . ?
C27 C28 C29 C30 -1.7(12) . . . . ?
C27A C28 C29A C30A -29(2) . . . . ?
C28 N4 C33 N3 179.8(6) . . . . ?
C28 N4 C34 C35 -179.0(6) . . . . ?
C28 C29 C30 C25 1.9(10) . . . . ?
C28 C29A C30A C25 2(2) . . . . ?
C30 C25 C26 C27 1.7(16) . . . . ?
C30A C25 C26A C27A -19(2) . . . . ?
C31 N2 C24 N1 1.4(6) . . . . ?
C31 N2 C25 C26 -143.4(8) . . . . ?
C31 N2 C25 C26A -81.7(11) . . . . ?
C31 N2 C25 C30 35.3(8) . . . . ?
C31 N2 C25 C30A 122.6(9) . . . . ?
C32 N1 C24 N2 -1.4(6) . . . . ?
C33 N3 C35 C34 1.4(8) . . . . ?
C33 N4 C28 C27 137.0(9) . . . . ?
C33 N4 C28 C27A 77.9(12) . . . . ?
C33 N4 C28 C29 -43.3(10) . . . . ?
C33 N4 C28 C29A -130.5(10) . . . . ?
C33 N4 C34 C35 0.8(8) . . . . ?
C34 N4 C28 C27 -43.3(12) . . . . ?
C34 N4 C28 C27A -102.3(11) . . . . ?
C34 N4 C28 C29 136.5(7) . . . . ?
C34 N4 C28 C29A 49.3(13) . . . . ?
C34 N4 C33 N3 0.0(7) . . . . ?
C35 N3 C33 N4 -0.9(7) . . . . ?
