#------------------------------------------------------------------------------
#$Date: 2022-03-02 01:36:43 +0200 (Wed, 02 Mar 2022) $
#$Revision: 273194 $
#$URL: file:///home/coder/svn-repositories/cod/cif/7/24/45/7244530.cif $
#------------------------------------------------------------------------------
#
# This file is available in the Crystallography Open Database (COD),
# http://www.crystallography.net/
#
# All data on this site have been placed in the public domain by the
# contributors.
#
data_7244530
loop_
_publ_author_name
'Zhou, Qian'
'Yao, Jinzhen'
'Sun, Jing'
'Li, Xiao'
'Bao, Siqi'
'Su, Zhong-Min'
_publ_section_title
;
 N-donor flexible ligands constructed polyoxometalate-based metal-organic
 frameworks as multifunctional electrocatalyts
;
_journal_name_full               CrystEngComm
_journal_paper_doi               10.1039/D2CE00077F
_journal_year                    2022
_chemical_formula_moiety         'C32 H52 Co2 N24 O42 Si W12'
_chemical_formula_sum            'C32 H52 Co2 N24 O42 Si W12'
_chemical_formula_weight         3797.12
_chemical_name_systematic        '[Co2(btbu)4(H2O)2(SiW12O40)]'
_space_group_crystal_system      monoclinic
_space_group_IT_number           14
_space_group_name_Hall           '-P 2yn'
_space_group_name_H-M_alt        'P 1 21/n 1'
_atom_sites_solution_hydrogens   mixed
_atom_sites_solution_primary     dual
_audit_creation_date             2021-09-24
_audit_creation_method
;
Olex2 1.3-alpha
(compiled 2020.07.31 svn.rc2a77460 for OlexSys, GUI svn.r6145)
;
_audit_update_record
;
2022-01-05 deposited with the CCDC.	2022-02-28 downloaded from the CCDC.
;
_cell_angle_alpha                90
_cell_angle_beta                 102.562(14)
_cell_angle_gamma                90
_cell_formula_units_Z            2
_cell_length_a                   12.407(10)
_cell_length_b                   16.723(13)
_cell_length_c                   17.478(14)
_cell_measurement_reflns_used    3064
_cell_measurement_temperature    296.15
_cell_measurement_theta_max      25.127
_cell_measurement_theta_min      1.628
_cell_volume                     3540(5)
_computing_cell_refinement       'SAINT+ Ver. 2016.5-0 (Bruker-AXS, 2016)'
_computing_data_collection       'APEX3 Ver. 2016.5-0 (Bruker-AXS, 2016)'
_computing_data_reduction        'SAINT+ Ver. 2016.5-0 (Bruker-AXS, 2016)'
_computing_molecular_graphics    'Olex2 1.3-alpha (Dolomanov et al., 2009)'
_computing_publication_material  'Olex2 1.3-alpha (Dolomanov et al., 2009)'
_computing_structure_refinement  'SHELXL 2018/3 (Sheldrick, 2015)'
_computing_structure_solution    'SHELXT 2014/5 (Sheldrick, 2014)'
_diffrn_ambient_temperature      296.15
_diffrn_detector                 'charge-coupled device (CCD) area detector'
_diffrn_detector_area_resol_mean 7.9
_diffrn_detector_type            'Bruker APEX II'
_diffrn_measured_fraction_theta_full 0.994
_diffrn_measured_fraction_theta_max 0.981
_diffrn_measurement_device       'three-circle diffractometer'
_diffrn_measurement_device_type  'Bruker APEX II Quazar'
_diffrn_measurement_method       '0.5\% \w and 0.5\% \f scans'
_diffrn_radiation_collimation    'focusing mirrors'
_diffrn_radiation_detector       'Bruker APEX II'
_diffrn_radiation_monochromator  'mirror optics'
_diffrn_radiation_probe          x-ray
_diffrn_radiation_type           'Mo K\a'
_diffrn_radiation_wavelength     0.71073
_diffrn_radiation_xray_symbol    K-L~3~
_diffrn_reflns_av_R_equivalents  0.0650
_diffrn_reflns_av_unetI/netI     0.0687
_diffrn_reflns_Laue_measured_fraction_full 0.994
_diffrn_reflns_Laue_measured_fraction_max 0.981
_diffrn_reflns_limit_h_max       14
_diffrn_reflns_limit_h_min       -14
_diffrn_reflns_limit_k_max       12
_diffrn_reflns_limit_k_min       -19
_diffrn_reflns_limit_l_max       21
_diffrn_reflns_limit_l_min       -20
_diffrn_reflns_number            20195
_diffrn_reflns_point_group_measured_fraction_full 0.994
_diffrn_reflns_point_group_measured_fraction_max 0.981
_diffrn_reflns_theta_full        25.242
_diffrn_reflns_theta_max         25.407
_diffrn_reflns_theta_min         1.705
_diffrn_source                   'microfocus sealed X-ray tube'
_diffrn_source_current           30.0
_diffrn_source_power             1.35
_diffrn_source_type              'Incoatec I\ms'
_diffrn_source_voltage           45.0
_exptl_absorpt_coefficient_mu    19.990
_exptl_absorpt_correction_T_max  0.87
_exptl_absorpt_correction_T_min  0.86
_exptl_absorpt_correction_type   multi-scan
_exptl_absorpt_process_details
'SADABS-2016/2 (Krause et al., 2015) was used for absorption correction.'
_exptl_crystal_colour            green
_exptl_crystal_colour_primary    green
_exptl_crystal_density_diffrn    3.563
_exptl_crystal_density_method    'not measured'
_exptl_crystal_description       block
_exptl_crystal_F_000             3408
_exptl_crystal_size_max          0.24
_exptl_crystal_size_mid          0.22
_exptl_crystal_size_min          0.2
_refine_diff_density_max         1.885
_refine_diff_density_min         -1.781
_refine_diff_density_rms         0.351
_refine_ls_extinction_method     none
_refine_ls_goodness_of_fit_ref   1.168
_refine_ls_hydrogen_treatment    constr
_refine_ls_matrix_type           full
_refine_ls_number_parameters     548
_refine_ls_number_reflns         6391
_refine_ls_number_restraints     617
_refine_ls_restrained_S_all      1.133
_refine_ls_R_factor_all          0.0829
_refine_ls_R_factor_gt           0.0672
_refine_ls_shift/su_max          0.000
_refine_ls_shift/su_mean         0.000
_refine_ls_structure_factor_coef Fsqd
_refine_ls_weighting_details
'w=1/[\s^2^(Fo^2^)+215.9567P] where P=(Fo^2^+2Fc^2^)/3'
_refine_ls_weighting_scheme      calc
_refine_ls_wR_factor_gt          0.1322
_refine_ls_wR_factor_ref         0.1386
_reflns_Friedel_coverage         0.000
_reflns_number_gt                5243
_reflns_number_total             6391
_reflns_threshold_expression     'I > 2\s(I)'
_cod_data_source_file            d2ce00077f2.cif
_cod_data_source_block           co
_cod_database_code               7244530
_shelx_shelxl_version_number     2018/3
_shelx_space_group_comment
;
The symmetry employed for this shelxl refinement is uniquely defined
by the following loop, which should always be used as a source of
symmetry information in preference to the above space-group names.
They are only intended as comments.
;
_shelx_estimated_absorpt_t_max   0.108
_shelx_estimated_absorpt_t_min   0.086
_olex2_refinement_description
;
1. Fixed Uiso
 At 1.2 times of:
  All C(H) groups, All C(H,H) groups, All C(H,H,H,H) groups
 At 1.5 times of:
  All O(H,H) groups
2. Restrained distances
 C16-C14_$1 = C16-C15
 1.5 with sigma of 0.01
 C12-C13
 1.5 with sigma of 0.01
 C8_$2-C1
 1.5 with sigma of 0.01
3. Uiso/Uaniso restraints and constraints
Uanis(C2) \\sim Ueq: with sigma of 0.005 and sigma for terminal atoms of 0.01
Uanis(C1) \\sim Ueq: with sigma of 0.01 and sigma for terminal atoms of 0.02
4. Rigid body (RIGU) restrains
 C6, W1, O10, O13, O7, O9, W4, W5, Si1, O12, O23, O17, O8, O14, O20, O15, O2,
 O5, O21, W2, W6, W3, O1, O16, O3, O19, O22, O6, O18, O11, Co07, O4, N1, N2, N3,
  N4, C11, C2, C7, C5, C9, C3, C4, N9, N6, N7, N10, N11, N12, N5, N8, C10, C12,
 C15, C17, C8, C14, C13, C16, C18, C1
 with sigma for 1-2 distances of 0.001 and sigma for 1-3 distances of 0.001
5. Others
 Fixed Sof: O2(0.5) O9(0.5) O5(0.5) O21(0.5) H14A(0.5) H14B(0.5) H14C(0.5)
 H14D(0.5) C15(0.5) H15A(0.5) H15B(0.5) C16(0.5) H16A(0.5) H16B(0.5) C17(0.5)
 H17A(0.5) H17B(0.5) C18(0.5) H18A(0.5) H18B(0.5)
6.a Rotating group:
 O4(H4A,H4B)
6.b Secondary CH2 refined with riding coordinates:
 C8(H8A,H8B), C10(H10A,H10B), C12(H12A,H12B), C13(H13A,H13B), C1(H1A,H1B),
 C14(H14A,H14B), C14(H14C,H14D), C15(H15A,H15B), C16(H16A,H16B), C17(H17A,H17B),
  C18(H18A,H18B)
6.c Aromatic/amide H refined with riding coordinates:
 C2(H2), C3(H3), C4(H4), C5(H5), C6(H6), C7(H7), C9(H9), C11(H11)
;
_shelx_res_file
;
TITL co_a.res in P2(1)/n
    co.res
    created by SHELXL-2018/3 at 20:04:50 on 24-Sep-2021
REM Old TITL co_a.res in P2(1)/n
REM SHELXT solution in P2(1)/n
REM R1 0.167, Rweak 0.017, Alpha 0.042, Orientation as input
REM Formula found by SHELXT: C58 N2 O4 Si Co2 W12
CELL 0.71073 12.4066 16.7229 17.4784 90 102.562 90
ZERR 2 0.0099 0.0128 0.0139 0 0.014 0
LATT 1
SYMM 0.5-X,0.5+Y,0.5-Z
SFAC C H Co N O Si W
UNIT 64 104 4 48 84 2 24
EQIV $1 -0.5-X,0.5+Y,1.5-Z
EQIV $2 -0.5+X,1.5-Y,-0.5+Z
ISOR 0.005 0.01 C2
ISOR 0.01 0.02 C1
DFIX 1.5 0.01 C16 C14_$1 C16 C15
RIGU 0.001 0.001 C6 W1 O10 O13 O7 O9 W4 W5 Si1 O12 O23 O17 O8 O14 O20 O15 =
 O2 O5 O21 W2 W6 W3 O1 O16 O3 O19 O22 O6 O18 O11 CO07 O4 N1 N2 N3 N4 C11 C2 =
 C7 C5 C9 C3 C4 N9 N6 N7 N10 N11 N12 N5 N8 C10 C12 C15 C17 C8 C14 C13 C16 =
 C18 C1
DFIX 1.5 0.01 C12 C13
DFIX 1.5 0.01 C8_$2 C1

L.S. 10 0 0
PLAN  20
SIZE 0.2 0.22 0.24
TEMP 23
CONF
FREE N11 C16
FREE C11 C6
list 4
MORE -1
BOND $H
fmap 2 53
acta
OMIT -2 3 5
REM <olex2.extras>
REM <HklSrc "%.\\Co.hkl">
REM </olex2.extras>

WGHT    0.000000  215.956696
FVAR       0.07420
W1    7    0.585020    0.333344    0.406281    11.00000    0.03967    0.02370 =
         0.02809   -0.00689    0.01168    0.00624
W2    7    0.367243    0.472369    0.655607    11.00000    0.02823    0.04799 =
         0.01918   -0.00390    0.01240   -0.00904
W3    7    0.697420    0.617625    0.627990    11.00000    0.03093    0.04089 =
         0.02454   -0.01122    0.00817   -0.01138
W4    7    0.439365    0.304458    0.555970    11.00000    0.03340    0.02079 =
         0.03990    0.00240    0.01330   -0.00084
W5    7    0.782911    0.456810    0.526407    11.00000    0.01948    0.03976 =
         0.03697    0.00796    0.00912    0.00590
W6    7    0.646263    0.418768    0.679750    11.00000    0.03574    0.04383 =
         0.01806    0.00388    0.00293    0.01265
CO07  3    0.162314    0.478350    0.789264    11.00000    0.02925    0.02649 =
         0.02262   -0.00296    0.00870   -0.00359
SI1   6    0.500000    0.500000    0.500000    10.50000    0.02471    0.03140 =
         0.02445   -0.00741    0.01185   -0.00143
O1    5    0.299796    0.460876    0.728150    11.00000    0.04213    0.04618 =
         0.03407   -0.00818    0.00669   -0.00699
O4    5    0.241476    0.376530    0.855162    11.00000    0.03985    0.03492 =
         0.04120   -0.00031   -0.00008   -0.00762
AFIX   7
H4A   2    0.194437    0.339240    0.853444    11.00000   -1.50000
H4B   2    0.259999    0.388979    0.903389    11.00000   -1.50000
AFIX   0
N1    4    0.074523    0.390352    0.713465    11.00000    0.03655    0.03854 =
         0.03277   -0.00337    0.00597   -0.00284
N2    4    0.123324    0.584530    0.724248    11.00000    0.04733    0.03863 =
         0.03464    0.00071    0.00469   -0.00318
N3    4    0.028449    0.492113    0.848326    11.00000    0.04922    0.04555 =
         0.04264   -0.00859    0.01770   -0.00225
N4    4    0.274793    0.542581    0.877503    11.00000    0.04936    0.03266 =
         0.02909   -0.00032    0.00817   -0.00505
N5    4    0.366690    0.576489    0.992961    11.00000    0.05150    0.03027 =
         0.02976   -0.00286    0.00757   -0.00027
N6    4   -0.031136    0.284731    0.683770    11.00000    0.04818    0.04315 =
         0.02395    0.00108    0.00737   -0.01075
O6    5    0.563688    0.656196    0.645432    11.00000    0.05762    0.09059 =
         0.04126    0.01781    0.02431    0.01226
N7    4    0.065717    0.669073    0.629124    11.00000    0.04192    0.04385 =
         0.02819    0.00080    0.01771    0.00934
N8    4    0.440940    0.578321    0.951195    11.00000    0.05317    0.08486 =
         0.03415   -0.01816    0.01011   -0.01641
O8    5    0.916365    0.435858    0.539689    11.00000    0.05288    0.05360 =
         0.05291    0.00869    0.01501    0.00098
O10   5    0.534925    0.283891    0.486201    11.00000    0.06402    0.06770 =
         0.05937    0.01116    0.02693    0.01793
O12   5    0.361619    0.362474    0.615937    11.00000    0.04690    0.05781 =
         0.06290   -0.02225    0.01542   -0.00646
O14   5    0.787504    0.557846    0.577239    11.00000    0.06052    0.05464 =
         0.05584    0.00093    0.02746   -0.00579
O16   5    0.513397    0.453013    0.706498    11.00000    0.04620    0.06291 =
         0.05969   -0.02274    0.00824   -0.00297
O18   5    0.791043    0.672531    0.688780    11.00000    0.06444    0.07827 =
         0.04866   -0.01264    0.01796   -0.01834
C2    1    0.064015    0.594530    0.651013    11.00000    0.04021    0.04289 =
         0.03247   -0.00103    0.00978    0.00460
AFIX  43
H2    2    0.026636    0.553776    0.619943    11.00000   -1.20000
AFIX   0
N9    4    0.055885    0.272626    0.646572    11.00000    0.06077    0.04518 =
         0.04684   -0.01266    0.02319   -0.01783
C3    1    0.267746    0.558138    0.949214    11.00000    0.05099    0.03111 =
         0.02861    0.00119    0.00838   -0.00194
AFIX  43
H3    2    0.202695    0.556659    0.967417    11.00000   -1.20000
AFIX   0
O20   5    0.747377    0.409018    0.615737    11.00000    0.07724    0.05134 =
         0.06852    0.01123    0.03965    0.01188
O22   5    0.683600    0.528420    0.690125    11.00000    0.07141    0.05953 =
         0.04717   -0.00068    0.02651   -0.00092
O23   5    0.571186    0.327264    0.635055    11.00000    0.05086    0.06263 =
         0.07088   -0.01720    0.01551    0.00463
O3    5    0.390212    0.581768    0.661692    11.00000    0.06534    0.05193 =
         0.04475   -0.00386    0.01098   -0.01313
N10   4    0.131996    0.715089    0.687205    11.00000    0.07476    0.04197 =
         0.03612    0.00546    0.00704   -0.00260
C4    1    0.383644    0.554761    0.879412    11.00000    0.05046    0.05247 =
         0.03163   -0.01006    0.00966   -0.01011
AFIX  43
H4    2    0.415421    0.547746    0.836345    11.00000   -1.20000
AFIX   0
C5    1   -0.039299    0.552216    0.840551    11.00000    0.06950    0.05965 =
         0.05491    0.00195    0.03231    0.01476
AFIX  43
H5    2   -0.037575    0.595314    0.807211    11.00000   -1.20000
AFIX   0
O13   5    0.718968    0.360794    0.471749    11.00000    0.07024    0.05187 =
         0.06267    0.00738   -0.00085   -0.00444
O7    5    0.619596    0.255106    0.359949    11.00000    0.10130    0.04669 =
         0.04087   -0.00530    0.01687    0.02570
O15   5    0.754130    0.508867    0.429377    11.00000    0.06254    0.05996 =
         0.04718    0.00635   -0.00631   -0.02030
C6    1    0.113032    0.337425    0.670867    11.00000    0.05012    0.03967 =
         0.04878   -0.01036    0.02021   -0.01008
AFIX  43
H6    2    0.180945    0.345788    0.657832    11.00000   -1.20000
AFIX   0
O2    5    0.616324    0.498105    0.561416    10.50000    0.04041    0.08117 =
         0.05260   -0.00077   -0.00640   -0.00311
O17   5    0.413892    0.210526    0.578851    11.00000    0.04307    0.04644 =
         0.08360    0.00944    0.01782    0.00601
C7    1    0.160516    0.659086    0.740005    11.00000    0.07614    0.03933 =
         0.03750    0.00481   -0.00043   -0.00988
AFIX  43
H7    2    0.206374    0.671061    0.788199    11.00000   -1.20000
AFIX   0
C8    1    0.391910    0.595395    1.074845    11.00000    0.06299    0.09153 =
         0.03265   -0.01645    0.01033   -0.01277
AFIX  23
H8A   2    0.420841    0.547829    1.103948    11.00000   -1.20000
H8B   2    0.323921    0.609720    1.090295    11.00000   -1.20000
AFIX   0
C9    1   -0.010373    0.445408    0.899199    11.00000    0.05699    0.05793 =
         0.05802    0.00303    0.02990    0.00638
AFIX  43
H9    2    0.022850    0.397275    0.917765    11.00000   -1.20000
AFIX   0
C10   1   -0.117697    0.224455    0.680039    11.00000    0.05746    0.05290 =
         0.04262   -0.00376    0.01223   -0.02111
AFIX  23
H10A  2   -0.173357    0.245718    0.705782    11.00000   -1.20000
H10B  2   -0.085561    0.177882    0.709468    11.00000   -1.20000
AFIX   0
O9    5    0.468610    0.410381    0.469115    10.50000    0.07434    0.03704 =
         0.06013   -0.01914    0.02196   -0.01313
C11   1   -0.017274    0.354234    0.719251    11.00000    0.03372    0.04205 =
         0.02183    0.00271   -0.00127   -0.00335
AFIX  43
H11   2   -0.067613    0.375847    0.745935    11.00000   -1.20000
AFIX   0
O19   5    0.717246    0.382925    0.763768    11.00000    0.06105    0.06271 =
         0.04721   -0.00036    0.01315    0.01027
O5    5    0.408106    0.532718    0.542716    10.50000    0.05735    0.06560 =
         0.06338   -0.00031    0.04350    0.01798
O21   5    0.510602    0.557487    0.426824    10.50000    0.02728    0.04837 =
         0.05115    0.01308    0.02254    0.00845
C12   1    0.018881    0.705908    0.555616    11.00000    0.07705    0.06715 =
         0.03390    0.01043    0.01085    0.02053
AFIX  23
H12A  2   -0.002514    0.663934    0.516994    11.00000   -1.20000
H12B  2    0.076140    0.737153    0.539708    11.00000   -1.20000
AFIX   0
N11   4   -0.110481    0.544502    0.885639    11.00000    0.07550    0.07598 =
         0.06960    0.01389    0.04255    0.02434
N12   4   -0.098554    0.472876    0.920611    11.00000    0.06576    0.07629 =
         0.06367    0.01268    0.03649    0.01994
C13   1   -0.078864    0.759026    0.552825    11.00000    0.06715    0.05463 =
         0.04190    0.02130    0.01405    0.01150
AFIX  23
H13A  2   -0.131550    0.734447    0.579252    11.00000   -1.20000
H13B  2   -0.115439    0.770888    0.499127    11.00000   -1.20000
AFIX   0
C1    1   -0.026933    0.838196    0.597673    11.00000    0.07089    0.06445 =
         0.06470    0.00470    0.01802    0.00994
AFIX  23
H1A   2   -0.012330    0.829863    0.653909    11.00000   -1.20000
H1B   2    0.042120    0.851351    0.583180    11.00000   -1.20000
AFIX   0
O11   5    0.672202    0.684036    0.535738    11.00000    0.06047    0.08721 =
         0.04763    0.01721    0.03024    0.01631
C14   1   -0.173344    0.198154    0.599303    11.00000    0.07135    0.07310 =
         0.04573   -0.00744    0.01081   -0.03929
PART 1
AFIX  23
H14A  2   -0.123142    0.163333    0.579482    10.50000   -1.20000
H14B  2   -0.185770    0.244962    0.565760    10.50000   -1.20000
AFIX  23
PART 2
H14C  2   -0.120924    0.196545    0.565462    10.50000   -1.20000
H14D  2   -0.232582    0.234637    0.576853    10.50000   -1.20000
AFIX   0
PART 1
C15   1   -0.232320    0.573539    0.871752    10.50000    0.06698    0.03997 =
         0.07414   -0.00152    0.03530    0.00579
AFIX  23
H15A  2   -0.266227    0.576161    0.816300    10.50000   -1.20000
H15B  2   -0.276079    0.539106    0.897790    10.50000   -1.20000
AFIX   0
C16   1   -0.218703    0.655232    0.908013    10.50000    0.08189    0.04993 =
         0.11232   -0.02093    0.04568   -0.00310
AFIX  23
H16A  2   -0.170627    0.686740    0.882852    10.50000   -1.20000
H16B  2   -0.183414    0.650320    0.963060    10.50000   -1.20000
AFIX   0
PART 2
C17   1   -0.175005    0.629195    0.883653    10.50000    0.07687    0.07437 =
         0.09970    0.01522    0.05750    0.02251
AFIX  23
H17A  2   -0.138306    0.663313    0.926303    10.50000   -1.20000
H17B  2   -0.177062    0.656661    0.834475    10.50000   -1.20000
AFIX   0
C18   1   -0.279035    0.611299    0.891406    10.50000    0.07739    0.08534 =
         0.14075    0.04039    0.06424    0.02835
AFIX  23
H18A  2   -0.278244    0.578595    0.937359    10.50000   -1.20000
H18B  2   -0.320847    0.584235    0.845325    10.50000   -1.20000
AFIX   0
HKLF 4




REM  co_a.res in P2(1)/n
REM wR2 = 0.1386, GooF = S = 1.168, Restrained GooF = 1.133 for all data
REM R1 = 0.0672 for 5243 Fo > 4sig(Fo) and 0.0829 for all 6391 data
REM 548 parameters refined using 617 restraints

END

WGHT      0.0000    215.9556

REM Highest difference peak  1.885,  deepest hole -1.781,  1-sigma level  0.351
Q1    1  -0.1307  0.8051  0.5810  11.00000  0.05    1.88
Q2    1   0.3627  0.5870  0.6934  11.00000  0.05    1.70
Q3    1   0.7874  0.4959  0.4050  11.00000  0.05    1.65
Q4    1   0.5606  0.4159  0.7783  11.00000  0.05    1.55
Q5    1   0.5077  0.4816  0.6762  11.00000  0.05    1.55
Q6    1   0.5750  0.3623  0.6173  11.00000  0.05    1.54
Q7    1   0.7046  0.4207  0.5863  11.00000  0.05    1.53
Q8    1   0.5972  0.3668  0.7419  11.00000  0.05    1.53
Q9    1   0.7857  0.4004  0.6436  11.00000  0.05    1.47
Q10   1   0.7295  0.5162  0.4535  11.00000  0.05    1.45
Q11   1   0.8374  0.5530  0.6028  11.00000  0.05    1.41
Q12   1   0.3441  0.3395  0.6430  11.00000  0.05    1.41
Q13   1   0.5309  0.2458  0.4681  11.00000  0.05    1.39
Q14   1   0.3577  0.3989  0.5945  11.00000  0.05    1.39
Q15   1   0.7331  0.5332  0.7170  11.00000  0.05    1.38
Q16   1   0.5017  0.4466  0.7395  11.00000  0.05    1.36
Q17   1   0.6728  0.3796  0.4823  11.00000  0.05    1.36
Q18   1   0.6330  0.4737  0.6912  11.00000  0.05    1.32
Q19   1   0.7394  0.5552  0.5572  11.00000  0.05    1.31
Q20   1   0.3954  0.5428  0.6402  11.00000  0.05    1.30
;
_shelx_res_checksum              84064
_shelx_hkl_file
;
   1   0   0    1.70    0.50
   3   0   0    0.20    0.60
   3   0   0    1.70    1.20
  -3   0   0    4.80    1.50
   4   0   0  632.14   35.80
  -4   0   0  631.84   35.00
   5   0   0    1.00    1.60
  -5   0   0    4.80    2.30
   5   0   0    0.90    1.10
   6   0   0   99.59   10.00
  -6   0   0  103.69    8.20
   7   0   0    1.80    1.90
   7   0   0    8.20    3.10
  -7   0   0    3.80    2.90
  -8   0   0   95.49    9.90
   8   0   0   93.09   10.60
   8   0   0   85.29   10.40
   9   0   0   10.00    4.20
  -9   0   0    4.70    3.30
  10   0   0    2.20    3.00
  11   0   0   -4.40    2.30
  12   0   0  134.99   17.10
  13   0   0   -2.30    3.80
  14   0   0  389.56   31.30
   0  -1   0   -2.80    0.20
   1  -1   0 1482.25   85.69
   1  -1   0 1753.32   85.99
   2  -1   0    2.90    1.10
   2  -1   0    1.40    0.90
   2   1   0    2.40    1.00
  -2   1   0    3.30    0.80
   3  -1   0  710.23   38.70
   3   1   0  718.83   38.70
  -3   1   0  672.73   37.50
   4  -1   0   51.59    5.60
   4   1   0   50.49    5.50
  -4   1   0   55.29    4.20
  -5  -1   0  326.27   19.90
   5  -1   0  324.17   20.20
  -5   1   0  325.37   18.70
   5   1   0  323.97   20.20
  -6  -1   0  558.24   32.90
   6  -1   0  554.64   33.30
   6   1   0  567.94   33.30
  -6   1   0  553.74   31.40
  -7  -1   0  346.07   22.20
   7  -1   0  357.76   22.80
   7   1   0  350.16   22.70
  -7   1   0  333.57   20.50
   8  -1   0    0.40    1.50
   8  -1   0   11.80    3.90
  -8  -1   0    9.80    4.20
  -8   1   0   12.40    3.00
   8   1   0    9.20    3.50
  -9  -1   0   63.29    9.20
   9  -1   0   38.00    7.20
   9  -1   0   79.89   10.40
  -9   1   0   47.70    6.20
   9   1   0   73.89    9.70
  10  -1   0    5.50    4.00
  10  -1   0    3.80    3.60
 -10  -1   0    8.80    4.90
  10   1   0    1.50    3.40
  11  -1   0    1.30    3.60
  11   1   0   12.40    5.20
  12  -1   0    9.60    6.20
  12   1   0   16.40    6.40
  13  -1   0   15.40    6.40
  13   1   0    9.40    5.90
  14  -1   0  108.39   15.90
  14   1   0  126.69   18.00
   0  -2   0 1806.42   92.69
   0  -2   0 1681.43   91.89
  -1  -2   0   26.60    2.90
   1  -2   0   20.20    1.90
   1  -2   0   20.50    2.40
   1   2   0   24.80    2.10
   2  -2   0 2281.57  115.69
   2  -2   0 2058.39  115.29
   3  -2   0  351.76   19.80
   3  -2   0  313.47   19.20
   3   2   0  327.67   19.20
   4  -2   0   24.50    3.80
   4  -2   0   27.90    4.40
   4   2   0   31.80    4.10
  -4   2   0   23.80    2.70
   5  -2   0    5.30    2.20
   5  -2   0    9.10    2.90
   5   2   0    6.40    2.30
  -5   2   0    6.30    1.70
   6  -2   0  586.64   33.00
   6  -2   0  524.05   33.10
   6   2   0  595.84   33.00
  -6   2   0  510.55   30.30
   7  -2   0  344.47   23.30
  -7  -2   0  349.57   23.40
   7   2   0  380.06   23.60
  -8  -2   0  622.54   39.10
   8  -2   0  640.54   39.20
   8   2   0  661.73   39.40
  -9  -2   0   88.09   11.60
   9  -2   0   51.99    8.50
   9   2   0   57.99    9.00
 -10  -2   0    4.40    4.70
  10  -2   0   -2.00    3.10
  10  -2   0   -0.50    2.70
  10   2   0   -1.90    2.80
  11  -2   0   30.70    7.80
  11  -2   0   41.10    8.30
  11   2   0   45.50    8.90
  12  -2   0  141.29   17.50
  12  -2   0  149.79   17.10
  12   2   0  146.19   18.00
  13  -2   0   20.20    7.50
  13   2   0   20.10    7.30
  14  -2   0   69.59   12.90
  14   2   0   84.89   14.60
   0  -3   0    7.70    1.00
   0  -3   0    6.50    1.70
  -1  -3   0  834.72   48.90
   1  -3   0  925.31   48.20
   1  -3   0  968.20   49.30
  -1  -3   0  873.31   49.20
   2  -3   0   88.79    6.50
   2  -3   0   85.49    5.90
   2   3   0   87.49    6.10
   3  -3   0   13.20    2.40
   3  -3   0   16.40    3.20
   4  -3   0  339.97   20.60
   4  -3   0  335.67   21.00
   4   3   0  347.87   20.70
   5  -3   0   35.20    5.50
   5  -3   0   42.60    5.50
   5   3   0   32.20    4.70
   6  -3   0  327.57   21.20
   6  -3   0  330.07   21.90
   6   3   0  326.87   21.20
   7  -3   0 1761.52  100.29
   7  -3   0 1817.02   99.79
   7   3   0 1833.72   99.99
  -8  -3   0  465.65   30.20
   8  -3   0  458.95   29.60
   8  -3   0  475.85   30.60
   8   3   0  443.16   29.60
   9  -3   0   84.79   10.70
  -9  -3   0   62.69   11.10
   9  -3   0   56.79    9.40
   9   3   0   64.09    9.40
 -10  -3   0  117.29   15.60
  10  -3   0  114.69   14.10
  10   3   0  138.59   15.40
  11  -3   0   60.79   10.50
  11   3   0   66.89   11.10
  12  -3   0   78.69   12.60
  12  -3   0   62.49   11.50
  12   3   0   59.09   11.20
  13  -3   0   25.10    8.30
  13  -3   0   34.70    9.30
  13   3   0   15.40    7.10
  14  -3   0   34.90   10.20
  14   3   0   32.00    9.10
   0  -4   0   29.80    2.20
   0  -4   0   25.50    3.50
   1  -4   0  395.66   21.40
  -1  -4   0  392.96   23.00
   1  -4   0  426.06   23.00
  -1  -4   0  351.96   22.10
  -2  -4   0  106.69    8.10
   2  -4   0  109.69    7.90
   2  -4   0   99.39    6.90
   2   4   0  103.09    7.30
   3  -4   0  102.99    8.00
   3  -4   0   96.49    7.20
   3   4   0   99.19    7.50
   4  -4   0    7.60    2.70
   4  -4   0    7.20    2.30
   5  -4   0   75.39    8.50
   5  -4   0   78.39    7.80
   5   4   0   78.89    8.10
   6  -4   0   19.60    4.20
   6  -4   0   15.00    4.20
   6   4   0   19.40    4.30
   7  -4   0   91.19   11.10
   7  -4   0   68.59    9.00
   7   4   0   95.29   10.30
   8  -4   0  192.38   16.20
   8  -4   0  206.88   15.80
   8   4   0  189.78   15.60
  -9  -4   0   27.90    7.80
   9  -4   0   25.00    6.20
   9  -4   0   32.70    7.50
   9   4   0   24.00    5.90
 -10  -4   0  114.19   16.30
  10  -4   0  107.79   13.50
  10  -4   0   91.29   13.50
  10   4   0  101.79   13.10
 -11  -4   0   25.30    8.50
  11  -4   0   31.00    8.10
  11   4   0   34.10    8.10
  12  -4   0   22.10    7.90
  12   4   0   24.40    7.60
  13  -4   0  150.78   18.50
  13  -4   0  147.39   19.20
  13   4   0  161.88   19.50
  14  -4   0    5.20    5.90
  14   4   0   10.20    6.10
   0  -5   0   -0.80    1.20
   0  -5   0    2.40    0.80
  -1  -5   0  195.78   12.80
   1  -5   0  188.88   12.60
  -1  -5   0  169.28   11.40
   1  -5   0  197.58   10.90
  -2  -5   0   96.39    9.00
   2  -5   0   88.79    7.30
  -2  -5   0   75.89    8.00
   2  -5   0   89.59    6.10
   2   5   0   75.89    6.60
   3  -5   0  832.62   47.70
  -3  -5   0  790.52   47.80
   3  -5   0  843.42   46.40
   3   5   0  892.31   47.20
   4  -5   0   52.19    5.90
   4  -5   0   42.00    6.10
   4   5   0   57.09    6.40
   5  -5   0  844.82   48.90
   5  -5   0  844.42   47.90
   6  -5   0    4.60    2.70
   6  -5   0    6.10    2.90
   6   5   0   12.40    3.70
   7  -5   0   76.09   10.20
   7  -5   0   81.99    9.50
   7   5   0   75.89    9.40
   8  -5   0  624.64   39.40
   8  -5   0  609.44   38.00
   8   5   0  617.64   38.30
   9  -5   0   47.30    9.20
   9  -5   0   61.09    9.30
   9   5   0   54.49    9.10
  10  -5   0  153.38   17.70
 -10  -5   0  104.49   16.40
  10  -5   0  145.49   15.60
  10   5   0  183.48   17.70
 -11  -5   0   -3.70    5.20
  11  -5   0    2.90    4.50
  11  -5   0    4.40    4.20
  11   5   0    1.90    3.80
  12  -5   0   22.70    7.20
  12  -5   0    7.60    5.10
  12   5   0   12.40    6.30
  13  -5   0   16.10    7.20
  13  -5   0   -0.60    3.90
  13   5   0   12.40    6.40
  14  -5   0    4.90    5.90
  14   5   0    8.30    7.00
   0  -6   0  213.88   13.90
   0  -6   0  197.68   11.30
   1  -6   0  185.68   12.50
  -1  -6   0  167.88   12.30
  -1  -6   0  164.98   10.80
   1  -6   0  175.38   10.20
  -2  -6   0  319.67   21.40
  -2  -6   0  342.77   21.80
   2  -6   0  357.36   19.90
   2  -6   0  353.96   21.80
  -3  -6   0 1108.69   63.89
   3  -6   0 1146.39   63.69
   3  -6   0 1139.09   61.99
   3   6   0 1143.29   62.89
  -4  -6   0   36.10    6.00
   4  -6   0   17.60    3.40
   4  -6   0   18.00    4.20
   4   6   0   19.60    3.90
   5  -6   0   84.59    8.60
   5  -6   0   80.59    9.70
   5   6   0   96.39    9.70
   6  -6   0  244.48   17.20
   6  -6   0  262.27   18.70
   7  -6   0    7.20    3.70
   7  -6   0   11.40    3.90
   7   6   0   14.30    4.40
   8  -6   0   76.99   11.00
   8  -6   0   81.09   10.00
   8   6   0   94.69   11.30
   9  -6   0  291.67   21.70
   9  -6   0  307.97   23.50
   9   6   0  288.17   21.90
 -10  -6   0   16.70    8.20
  10  -6   0    5.20    5.00
  10  -6   0    9.00    5.10
  10   6   0    5.90    4.30
  11  -6   0  174.48   19.90
  11  -6   0  189.48   19.20
 -11  -6   0  141.99   20.10
  11   6   0  189.38   19.80
  12  -6   0   50.69   10.30
  12  -6   0   45.20   10.60
  12   6   0   44.10   10.00
  13  -6   0    2.70    5.20
  13  -6   0    8.50    6.50
  13   6   0    7.50    6.20
   0  -7   0    1.60    1.70
  -1  -7   0   41.90    3.70
   1  -7   0   28.30    4.60
  -1  -7   0   31.10    5.00
   1  -7   0   25.20    2.80
   2  -7   0  200.68   14.00
   2  -7   0  187.78   11.70
  -2  -7   0  183.28   12.90
  -3  -7   0   12.70    3.60
  -3  -7   0    1.60    3.00
   3  -7   0    2.40    1.80
   3  -7   0    0.30    1.90
   4  -7   0   19.20    4.50
   4  -7   0    8.40    2.70
  -4  -7   0    8.10    3.40
   4   7   0    8.70    3.30
   5  -7   0   14.50    3.60
  -5  -7   0   21.50    5.40
   5  -7   0   17.60    4.60
   5   7   0   20.80    4.60
   6  -7   0   28.70    6.00
   6  -7   0   33.70    5.70
   6   7   0   33.50    6.20
   7  -7   0  139.39   14.90
   7  -7   0  127.09   12.90
   8  -7   0   45.10    8.60
   8  -7   0   47.90    7.90
   8   7   0   33.80    7.10
   9  -7   0  252.07   19.80
   9  -7   0  272.07   21.70
   9   7   0  238.88   20.00
  10  -7   0  298.07   23.30
  10  -7   0  298.17   24.90
  10   7   0  319.37   24.10
  11  -7   0   61.49   10.90
  11  -7   0   65.59   12.20
 -11  -7   0   52.19   12.90
  11   7   0   65.39   11.50
 -12  -7   0  242.58   29.60
  12  -7   0  335.87   27.60
  12  -7   0  333.57   26.00
  12   7   0  303.97   25.70
  13  -7   0   18.70    8.20
  13  -7   0   14.20    7.90
  13   7   0    7.80    6.20
   0  -8   0  665.13   39.40
  -1  -8   0   21.30    4.80
   1  -8   0   18.50    2.30
  -1  -8   0   16.60    2.00
   1  -8   0   20.40    4.20
  -2  -8   0  356.66   22.90
  -2  -8   0  335.57   20.60
   2  -8   0  328.67   22.50
   2  -8   0  350.46   19.90
  -3  -8   0   72.09    9.40
  -3  -8   0   82.29   10.20
   3  -8   0   80.79    6.60
   3  -8   0   86.99    9.80
  -4  -8   0   21.30    5.20
   4  -8   0   21.90    3.90
   4  -8   0   14.70    4.30
  -4  -8   0   15.40    5.80
   5  -8   0 1444.96   85.99
   5  -8   0 1504.85   83.99
  -5  -8   0 1541.35   86.89
   5   8   0 1619.34   85.89
  -6  -8   0  314.07   23.70
   6  -8   0  311.27   23.20
   6  -8   0  331.47   21.70
   6   8   0  349.67   23.10
   7  -8   0    4.00    3.30
  -7  -8   0    2.80    4.30
   7  -8   0   10.20    4.70
   7   8   0    0.60    2.80
   8  -8   0   17.80    5.90
   8  -8   0   19.70    5.40
   8   8   0   20.90    5.90
   9  -8   0  762.12   45.10
   9  -8   0  790.12   47.70
   9   8   0  626.34   44.80
  10  -8   0  110.09   14.10
  10  -8   0  115.29   16.00
  10   8   0  120.39   14.90
  11  -8   0   39.30    9.10
 -11  -8   0   31.20   11.10
  11  -8   0   49.99   11.20
  11   8   0   29.30    8.30
  12  -8   0   16.10    7.90
 -12  -8   0   13.10    8.20
  12  -8   0   13.50    6.80
  12   8   0    9.20    6.00
  13  -8   0   11.60    7.60
  13  -8   0   -2.00    6.10
  13   8   0    4.50    6.60
   0  -9   0    3.30    2.50
   1  -9   0   80.99    5.70
  -1  -9   0   90.99   10.10
   1  -9   0   84.19    9.60
   2  -9   0  292.77   17.10
  -2  -9   0  285.27   17.60
   2  -9   0  282.67   20.20
  -2  -9   0  292.67   20.30
  -3  -9   0  210.48   15.20
   3  -9   0  225.58   16.40
   3  -9   0  193.28   13.20
  -3  -9   0  203.88   15.90
  -4  -9   0  906.81   51.09
   4  -9   0  857.21   47.60
  -4  -9   0  789.32   51.19
   4  -9   0  821.42   50.39
  -5  -9   0  802.72   50.29
   5  -9   0  838.62   50.29
  -5  -9   0  867.01   52.69
   5  -9   0  819.62   47.40
  -6  -9   0  226.28   18.70
   6  -9   0  231.58   18.70
   6  -9   0  219.98   16.30
   6   9   0  229.98   17.90
  -7  -9   0   45.30    9.40
   7  -9   0   42.80    7.40
   7  -9   0   55.49    9.80
   7   9   0   60.99    9.50
  -8  -9   0    8.10    5.70
   8  -9   0   11.60    5.70
   8  -9   0    7.20    4.50
   8   9   0   18.60    6.30
   9  -9   0   80.79   13.20
   9  -9   0   88.49   11.80
  -9  -9   0   93.69   14.30
   9   9   0   85.09   12.60
  10  -9   0  252.67   20.80
  10  -9   0  255.87   26.50
  11  -9   0   63.09   12.70
  11  -9   0   66.59   11.60
  11   9   0   77.49   12.90
 -12  -9   0   13.40    9.00
  12  -9   0   17.90    8.00
  12  -9   0   14.20    8.00
  12   9   0   14.50    7.50
  13  -9   0   30.10   10.10
  13   9   0   14.20    8.20
   0 -10   0   14.00    4.70
   1 -10   0 1110.19   65.59
   1 -10   0 1147.49   61.19
  -1 -10   0 1151.28   65.69
  -2 -10   0  154.38   13.60
   2 -10   0  148.59   15.20
   2 -10   0  161.88   10.50
  -2 -10   0  165.18   10.40
   3 -10   0  313.97   23.30
   3 -10   0  346.47   20.30
  -3 -10   0  348.07   21.40
  -3 -10   0  316.17   23.30
  -4 -10   0    7.90    4.20
   4 -10   0   11.90    3.40
   4 -10   0   18.40    5.30
  -4 -10   0   16.10    6.00
   5 -10   0  476.45   31.70
  -5 -10   0  432.96   31.10
  -5 -10   0  440.56   33.10
   5 -10   0  494.15   28.70
  -6 -10   0   26.90    9.40
  -6 -10   0   33.50    7.70
   6 -10   0   28.10    7.30
   6 -10   0   23.40    5.60
   7 -10   0    4.90    3.90
  -7 -10   0    3.00    4.90
   7 -10   0   10.00    5.50
   7  10   0    4.20    4.30
   8 -10   0   75.49   10.30
   8 -10   0   68.89   12.10
  -8 -10   0   61.99   11.00
   8  10   0   58.79   10.50
   9 -10   0   13.30    6.40
  -9 -10   0   14.50    7.00
   9 -10   0   16.00    5.80
   9  10   0   19.80    6.70
  10 -10   0  153.28   18.90
 -10 -10   0   92.69   15.20
  10 -10   0  115.69   14.90
  10  10   0  113.99   15.50
 -11 -10   0   17.40    8.10
  11 -10   0    6.80    5.80
  11 -10   0    6.00    6.60
  11  10   0   10.20    5.80
  12 -10   0    8.70    6.70
  12 -10   0    1.20    6.30
 -12 -10   0   -0.20    7.50
  12  10   0   12.10    7.20
   0 -11   0   -1.70    2.20
   1 -11   0  318.07   22.40
  -1 -11   0  307.87   22.20
   1 -11   0  310.17   17.70
  -2 -11   0 1508.35   86.99
   2 -11   0 1569.74   87.29
   2 -11   0 1518.25   82.39
  -3 -11   0   12.40    4.90
   3 -11   0   15.40    3.50
  -3 -11   0   12.40    3.70
   3 -11   0   16.60    5.90
   4 -11   0    8.90    3.20
  -4 -11   0   18.30    5.60
   4 -11   0   12.40    5.40
  -4 -11   0   10.20    4.70
  -5 -11   0    2.70    5.40
   5 -11   0   19.20    6.20
  -5 -11   0   16.60    5.70
   5 -11   0   12.40    4.00
   6 -11   0   23.10    5.40
  -6 -11   0   29.80    9.60
  -6 -11   0   28.80    7.60
   6 -11   0   28.90    7.70
   7 -11   0  139.79   14.50
  -7 -11   0  166.58   18.30
   7 -11   0  136.59   17.20
  -7 -11   0  152.18   21.60
   8 -11   0   40.00    7.60
   8 -11   0   52.59   11.10
  -8 -11   0   48.70   14.10
  -8 -11   0   55.39   11.10
  -9 -11   0   20.10   10.30
  -9 -11   0    9.60    6.70
   9 -11   0    8.10    5.20
   9 -11   0   11.70    6.20
   9  11   0   -1.10    6.00
 -10 -11   0   17.00    7.90
  10 -11   0   21.40    9.20
  10 -11   0   19.80    7.20
  11 -11   0   49.00   10.60
 -11 -11   0   65.69   13.40
  11 -11   0   77.39   15.00
  12 -11   0   36.70   12.50
 -12 -11   0    9.00   10.70
  12 -11   0   20.20    8.30
   0 -12   0   77.19   10.70
  -1 -12   0  463.05   31.50
   1 -12   0  488.65   31.80
   2 -12   0  262.37   16.20
   2 -12   0  266.37   20.80
  -2 -12   0  290.77   21.10
  -3 -12   0   73.79   10.80
   3 -12   0   67.69    7.10
   3 -12   0   79.89   11.70
  -4 -12   0  305.57   24.00
   4 -12   0  352.36   25.20
   4 -12   0  322.47   20.60
  -5 -12   0    7.80    4.70
   5 -12   0    5.90    3.30
   5 -12   0    5.00    4.60
  -6 -12   0   19.10    6.90
   6 -12   0   13.80    4.60
   6 -12   0   16.40    6.10
   7 -12   0   38.40    9.60
   7 -12   0   52.09    8.00
  -7 -12   0   27.30    7.90
   8 -12   0   65.49   13.00
  -8 -12   0   85.79   13.80
   8 -12   0   89.89   11.60
   9 -12   0   13.20    6.80
   9 -12   0    1.90    4.40
  -9 -12   0    7.50    6.60
  10 -12   0   35.40    8.70
 -10 -12   0   36.20   10.50
  10 -12   0   47.40   12.40
  11 -12   0   22.00    9.40
 -11 -12   0   12.20    8.40
  11 -12   0   12.00    7.10
   0 -13   0    0.70    3.60
   1 -13   0   23.20    6.70
  -1 -13   0   17.30    5.70
   2 -13   0  204.08   17.60
  -2 -13   0  198.18   19.60
  -3 -13   0   17.00    6.00
   3 -13   0   30.30    7.40
   4 -13   0   49.70   10.00
  -4 -13   0   40.80    9.00
  -5 -13   0    8.30    5.20
   5 -13   0    4.60    4.90
   5 -13   0    9.70    3.80
   6 -13   0   38.60    6.80
  -6 -13   0   30.50    8.50
   6 -13   0   35.60    9.40
  -7 -13   0   52.59   11.30
   7 -13   0   51.59    8.30
   7 -13   0   47.10   10.90
  -8 -13   0   25.30    9.10
   8 -13   0   47.00   11.60
   8 -13   0   31.60    7.20
   9 -13   0   35.70    8.30
   9 -13   0   61.99   13.60
  -9 -13   0   36.60    9.90
  10 -13   0   59.39   14.10
  10 -13   0   45.50   10.00
 -10 -13   0   49.60   12.00
  11 -13   0   12.70    7.60
   0 -14   0  260.57   21.20
  -1 -14   0   77.59   11.80
   1 -14   0  101.59   13.00
   2 -14   0   50.39    9.60
  -2 -14   0   49.00    9.30
   3 -14   0  376.36   27.50
  -3 -14   0  339.77   26.60
   4 -14   0    1.60    4.40
  -4 -14   0    4.50    4.70
   5 -14   0   85.69   14.10
  -5 -14   0   58.49   11.30
  -6 -14   0   71.19   12.30
   6 -14   0   60.39   12.60
   7 -14   0   17.00    7.80
  -7 -14   0    6.90    6.80
  -8 -14   0   24.00    8.50
   8 -14   0   25.70    9.30
  -9 -14   0   87.69   15.40
   9 -14   0  121.49   19.90
 -10 -14   0   60.09   13.60
  10 -14   0   69.89   15.40
   0 -15   0    7.40    5.00
   1 -15   0    1.80    4.30
  -1 -15   0    0.30    4.40
   2 -15   0  138.79   16.90
  -2 -15   0  137.49   16.20
  -3 -15   0   10.00    5.80
   3 -15   0   -1.20    4.40
   4 -15   0  101.89   15.20
  -4 -15   0  118.39   15.20
  -5 -15   0  132.89   18.80
   5 -15   0  207.88   22.70
  -6 -15   0   44.30   10.70
   6 -15   0   65.19   13.30
   7 -15   0   57.49   12.80
  -7 -15   0   32.10   10.50
   8 -15   0    7.20    8.10
  -8 -15   0   16.30    8.50
   9 -15   0   73.29   16.10
  -9 -15   0   49.10   12.60
   0 -16   0   29.50    7.90
  -1 -16   0   29.60    8.40
   1 -16   0   45.90   10.60
  -2 -16   0    7.00    5.10
   2 -16   0   13.10    7.10
  -3 -16   0   75.89   13.30
   3 -16   0   85.19   14.00
  -4 -16   0  100.39   14.90
   4 -16   0  126.99   17.60
   5 -16   0  157.48   20.40
  -5 -16   0  164.88   19.60
  -6 -16   0    1.40    5.90
   6 -16   0   -1.70    5.80
   7 -16   0    4.60    6.90
  -7 -16   0   -1.50    6.30
  -8 -16   0   85.19   15.50
   8 -16   0  126.59   20.80
   0 -17   0    1.70    4.90
   1 -17   0    5.00    6.40
  -1 -17   0    7.20    6.30
   2 -17   0   19.20    8.00
  -2 -17   0   28.30    8.70
  -3 -17   0   13.70    7.40
   3 -17   0   17.20    7.60
   4 -17   0  330.57   26.90
  -4 -17   0  242.68   26.20
   5 -17   0   67.59   13.90
  -5 -17   0   55.69   12.60
  -6 -17   0    4.20    6.30
   6 -17   0    8.90    8.00
   7 -17   0   47.80   12.30
  -7 -17   0   57.79   12.70
   0 -18   0   34.40    9.00
   1 -18   0   77.09   13.60
  -1 -18   0   50.29   11.70
   2 -18   0    1.90    6.10
  -2 -18   0    5.40    6.30
  -3 -18   0   28.20    9.60
   3 -18   0   63.99   13.30
  -4 -18   0   54.59   12.30
   4 -18   0   65.19   13.90
   5 -18   0   -1.80    5.80
  -5 -18   0   -0.80    5.50
  -6 -18   0   33.30   10.60
   6 -18   0   49.99   13.90
   0 -19   0    2.40    6.00
   1 -19   0   10.20    6.90
  -1 -19   0    4.30    6.60
   2 -19   0   54.99   13.00
  -2 -19   0   57.19   12.30
  -3 -19   0   23.70    9.40
   3 -19   0    9.40    7.70
   4 -19   0  123.89   18.50
  -4 -19   0  109.59   17.00
  14   0  -1    9.80    6.80
  13   0  -1    9.20    5.60
  12   0  -1    4.30    4.20
  11   0  -1  196.08   19.90
  10   0  -1    2.10    3.50
   9   0  -1  446.76   30.10
  -9   0   1  461.05   27.80
   8   0  -1   -2.30    2.20
  -8   0   1    4.10    2.80
   8   0  -1   -2.40    1.80
   7   0  -1  401.06   25.10
   7   0  -1  387.36   25.10
  -7   0   1  376.16   23.30
   6   0  -1   -1.70    1.80
   6   0  -1   -0.70    1.60
  -6   0   1    7.00    2.60
   5   0  -1  600.94   35.40
   5   0  -1  619.44   35.70
   4   0  -1    0.90    1.70
   4   0  -1    5.30    1.90
   3   0  -1 1874.51  106.79
   3   0  -1 2113.99  107.29
   2   0  -1    6.60    1.60
   2   0  -1    4.20    1.50
   0   0  -1   -0.50    0.20
   0   0   1   -0.80    0.60
   0   0  -1   -0.20    0.40
   1   0   1 2299.57  126.69
  -1   0  -1 2257.07  126.69
   1   0   1 2615.24  126.29
   2   0   1   21.10    2.90
   2   0   1   27.60    3.40
  -2   0  -1   29.80    3.00
   3   0   1  761.72   40.00
  -3   0  -1  708.73   39.80
   3   0   1  698.93   40.10
   4   0   1    3.10    1.80
  -4   0  -1    5.40    2.20
   4   0   1    5.00    2.10
   5   0   1  308.67   19.10
   5   0   1  305.27   19.40
  -5   0  -1  310.97   19.00
  -6   0  -1   13.20    3.90
   6   0   1    5.40    2.60
   6   0   1    4.60    2.40
  -7   0  -1  118.09   10.10
   7   0   1  129.09   10.50
   7   0   1  122.29   12.10
   8   0   1    9.90    3.70
  -8   0  -1    9.30    3.80
   9   0   1  188.98   15.00
  -9   0  -1  160.78   13.50
  10   0   1    7.10    4.20
  11   0   1    0.20    3.20
  12   0   1   -1.40    3.50
  13   0   1    5.10    5.90
  14   0   1    6.70    5.80
  14  -1  -1  202.98   23.30
  14   1  -1  230.98   24.80
  13  -1  -1   17.70    6.40
  13   1  -1    9.80    6.00
  12  -1  -1   91.79   13.70
  12   1  -1   75.79   12.70
  11  -1  -1  135.89   16.50
  11   1  -1  143.39   16.70
  10  -1  -1   10.80    4.70
 -10  -1   1    6.90    5.80
  10  -1  -1   14.40    5.30
  10   1  -1   11.80    4.30
   9  -1  -1   58.69    8.90
   9  -1  -1   35.30    6.90
  -9  -1   1   48.80    7.70
  -9   1   1   33.00    4.80
   9   1  -1   52.09    8.50
  -8  -1   1   47.80    7.50
   8  -1  -1   47.80    7.30
   8  -1  -1   50.79    7.90
   8   1  -1   61.49    8.70
  -8   1   1   40.50    5.00
   7  -1  -1  773.02   43.30
   7  -1  -1  722.43   42.40
  -7  -1   1  693.73   41.30
   7   1  -1  716.53   42.60
  -7   1   1  698.93   39.60
   6  -1  -1   13.40    4.10
   6  -1  -1    9.30    2.80
  -6   1   1   13.70    2.70
   6   1  -1    8.00    2.90
   5  -1  -1    1.70    1.70
   5  -1  -1    1.50    2.00
   5   1  -1    0.20    1.40
  -5   1   1    1.80    1.40
   4  -1  -1  405.46   24.70
   4  -1  -1  425.16   25.30
   4   1  -1  429.56   25.00
  -4   1   1  423.26   22.90
   3  -1  -1    3.10    1.50
   3  -1  -1    4.90    1.90
   3   1  -1    7.80    2.10
   2  -1  -1  186.28   11.00
   2  -1  -1  168.78   10.60
   2   1  -1  161.08   10.90
   1  -1  -1    2.40    0.90
   1  -1  -1    0.50    0.60
   1  -1  -1    2.20    0.60
  -1  -1   1    3.70    1.50
   0  -1   1 3647.33  212.68
   0  -1  -1 4018.70  212.78
   0  -1  -1 4390.16  212.28
   1  -1   1    1.70    0.90
   1  -1   1    2.50    0.80
  -1  -1  -1    3.00    1.30
  -1   1  -1    2.90    1.20
   2  -1   1  630.04   31.10
  -2  -1  -1  540.75   31.30
   2  -1   1  577.94   31.30
   2   1   1  544.95   31.00
  -2   1  -1  538.85   30.80
   3  -1   1   15.20    2.70
  -3  -1  -1   22.50    3.50
   3  -1   1   18.60    2.90
   3   1   1   18.20    2.80
  -3   1  -1   22.40    2.80
   4  -1   1  299.27   18.50
  -4  -1  -1  320.77   18.70
   4  -1   1  319.97   18.50
  -4   1  -1  285.57   17.50
   4   1   1  291.47   18.30
   5  -1   1   85.89    8.50
  -5  -1  -1   86.09    7.50
   5  -1   1   76.19    7.90
   5   1   1   81.59    7.10
  -5   1  -1   71.79    6.20
   6  -1   1  142.49   11.30
  -6  -1  -1  150.28   11.50
   6  -1   1  142.59   11.10
  -6   1  -1  135.59   10.00
   6   1   1  148.89   11.30
   7  -1   1    4.60    2.70
   7  -1   1    8.80    3.40
  -7  -1  -1    5.30    3.80
  -7   1  -1    5.30    2.70
   7   1   1    4.70    2.70
   8  -1   1  189.08   14.80
  -8  -1  -1  188.28   15.20
   8  -1   1  228.98   15.90
  -8   1  -1  164.18   13.00
   8   1   1  207.88   15.30
   9  -1   1   19.40    5.40
   9  -1   1   28.60    6.00
  -9  -1  -1   24.80    6.80
  -9   1  -1   14.30    4.20
   9   1   1   25.30    5.70
 -10  -1  -1  147.09   16.30
  10  -1   1  149.19   16.50
  10  -1   1  181.68   17.10
  10   1   1  175.48   17.80
  11  -1   1   76.99   11.50
  11   1   1   80.29   12.20
  12  -1   1   84.29   12.40
  12   1   1   88.19   13.40
  13  -1   1   76.89   12.90
  13   1   1   76.19   13.10
  14  -1   1  101.29   16.00
  14   1   1   97.29   15.80
  14  -2  -1   12.90    6.90
  14   2  -1   27.00    9.10
  13  -2  -1    8.70    6.10
  13   2  -1   24.20    7.50
  12  -2  -1   28.30    7.80
  12  -2  -1   21.20    7.20
  12   2  -1   24.40    7.20
  11  -2  -1    8.90    4.80
  11  -2  -1   -1.80    3.50
  11   2  -1    6.50    4.60
  10  -2  -1   94.29   12.10
  10  -2  -1  127.39   14.50
 -10  -2   1  117.59   13.90
  10   2  -1   97.39   12.70
   9  -2  -1   96.99   12.30
   9  -2  -1   73.39    9.90
  -9  -2   1   79.99   11.20
   9   2  -1   88.79   11.40
  -8  -2   1  138.89   12.50
   8  -2  -1  160.38   15.80
   8  -2  -1  158.18   13.00
  -8   2   1  132.99    9.00
   8   2  -1  151.28   12.90
   7  -2  -1 1538.25   84.79
   7  -2  -1 1491.75   85.59
   7   2  -1 1530.45   85.09
   6  -2  -1 1176.18   65.89
   6  -2  -1 1160.88   66.69
   6   2  -1 1192.48   66.29
   5  -2  -1   92.69    9.50
   5  -2  -1   84.49    7.60
   5   2  -1   97.89    8.10
   4  -2  -1  492.65   28.00
   4  -2  -1  459.45   28.50
   4   2  -1  491.55   28.40
   3  -2  -1    4.90    1.60
   3  -2  -1    6.90    2.20
   3   2  -1    4.70    1.90
   2  -2  -1  357.46   20.20
   2  -2  -1  335.97   19.60
   1  -2  -1   75.09    5.20
   1  -2  -1   85.79    5.70
  -1  -2   1   91.19    6.50
   0  -2   1   15.60    2.20
   0  -2  -1   18.00    2.00
   0  -2   1   17.40    2.20
   1  -2   1   23.10    2.60
   1  -2   1   20.50    2.60
  -1  -2  -1   26.90    2.80
   1   2   1   31.90    2.20
   3  -2   1   60.99    4.80
   3  -2   1   40.00    4.70
   3   2   1   49.20    4.40
  -3   2  -1   56.09    4.90
   4  -2   1   29.40    4.20
   4  -2   1   26.80    4.00
  -4   2  -1   27.60    3.50
   4   2   1   22.50    3.50
   5  -2   1  281.77   17.80
  -5  -2  -1  269.37   17.80
   5  -2   1  270.07   17.50
  -5   2  -1  258.87   16.10
   5   2   1  285.27   17.50
  -6  -2  -1  197.78   14.80
   6  -2   1  210.78   14.40
   6  -2   1  185.98   14.20
  -6   2  -1  187.08   12.60
   6   2   1  223.18   14.50
   7  -2   1 1141.59   66.69
   7  -2   1 1153.88   66.99
  -7  -2  -1 1220.38   67.39
   7   2   1 1205.48   66.89
  -8  -2  -1  362.56   24.70
   8  -2   1  367.86   24.60
   8  -2   1  346.77   23.90
  -8   2  -1  350.56   21.60
   8   2   1  358.36   24.00
   9  -2   1   75.29   10.40
  -9  -2  -1   85.79   12.30
   9  -2   1   63.99    9.70
  -9   2  -1   85.69    9.60
   9   2   1   92.09   11.20
 -10  -2  -1  486.35   34.80
  10  -2   1  512.05   34.80
  10  -2   1  549.54   35.00
  10   2   1  594.94   35.90
  11  -2   1   31.20    8.10
  11  -2   1   39.50    8.30
  11   2   1   32.60    7.90
  12  -2   1    9.40    5.50
  12   2   1   -0.40    4.10
  13  -2   1   25.80    7.80
  13   2   1   33.30    9.00
  14  -2   1  146.49   19.40
  14   2   1  181.18   21.80
  14  -3  -1  129.19   17.70
  14   3  -1  109.09   16.90
  13  -3  -1  114.09   15.70
  13  -3  -1   77.09   13.90
  13   3  -1   94.69   14.80
  12  -3  -1   83.99   13.10
  12  -3  -1   73.89   12.10
  12   3  -1   89.29   13.60
  11  -3  -1    7.20    5.10
  11  -3  -1   -0.20    3.40
  11   3  -1   11.70    5.70
  10  -3  -1  110.29   14.30
 -10  -3   1   93.09   13.70
  10  -3  -1  108.59   13.40
  10   3  -1  123.79   13.90
   9  -3  -1   14.10    4.60
  -9  -3   1   14.50    6.00
   9  -3  -1    9.40    4.70
   9   3  -1   12.00    4.60
   8  -3  -1  634.34   39.10
   8  -3  -1  642.34   40.20
   8   3  -1  644.54   39.60
   7  -3  -1  809.22   47.20
   7  -3  -1  755.82   45.80
   7   3  -1  792.12   46.40
   6  -3  -1  428.06   26.60
   6  -3  -1  394.16   25.30
   6   3  -1  406.56   25.70
   5  -3  -1  597.04   35.80
   5  -3  -1  598.44   34.90
   5   3  -1  606.34   35.40
   4  -3  -1  456.35   27.00
   4  -3  -1  470.95   28.00
   4   3  -1  468.15   27.60
   3  -3  -1  151.48   10.40
   3  -3  -1  145.09    9.70
   2  -3  -1 1451.05   77.29
   2  -3  -1 1530.05   78.19
   2   3  -1 1347.07   78.09
  -1  -3   1   11.90    2.60
   1  -3  -1    7.50    1.40
   1  -3  -1    3.60    1.60
  -1  -3   1    5.70    2.00
   0  -3   1  740.73   37.50
   0  -3  -1  676.53   37.10
   0  -3   1  617.94   36.80
   1  -3   1  385.86   22.00
  -1  -3  -1  404.56   22.50
   1  -3   1  417.66   22.70
   1   3   1  374.86   21.40
   2  -3   1  353.76   20.30
   2  -3   1  329.07   19.90
  -2  -3  -1  349.96   20.30
   2   3   1  357.46   19.50
   3  -3   1   76.09    6.10
   3  -3   1   74.69    6.00
   4  -3   1   68.29    6.80
   4   3   1   55.49    5.90
   5  -3   1    0.30    0.80
   5  -3   1    7.90    2.50
   5   3   1    3.60    2.00
  -6  -3  -1  113.19   12.40
   6  -3   1  103.79   10.50
   6   3   1  100.59   10.10
   7  -3   1  501.85   31.60
  -7  -3  -1  519.85   32.60
   7  -3   1  490.75   31.70
   7   3   1  533.05   31.70
  -8  -3  -1  508.55   31.90
   8  -3   1  436.16   30.40
   8  -3   1  480.65   30.50
   8   3   1  477.95   30.40
  -9  -3  -1    9.50    5.60
   9  -3   1    8.50    3.90
   9  -3   1    7.20    4.00
   9   3   1   10.60    4.00
 -10  -3  -1  150.68   18.50
  10  -3   1  178.28   17.90
  10  -3   1  203.08   19.30
  10   3   1  144.99   16.60
  11  -3   1  241.38   20.90
  11  -3   1  274.07   21.50
  11   3   1  259.07   21.50
  12  -3   1   82.19   12.40
  12  -3   1   74.29   12.80
  12   3   1   75.09   12.40
  13  -3   1   -3.60    3.90
  13   3   1   -1.60    4.80
  14  -3   1   16.60    8.30
  14   3   1   22.70    8.40
  14  -4  -1  121.79   17.90
  14  -4  -1   78.99   14.10
  14   4  -1  116.59   17.00
  13  -4  -1   50.59   10.90
  13  -4  -1   81.09   13.60
  13   4  -1   56.99   11.70
  12  -4  -1   16.60    6.40
  12  -4  -1   24.70    8.40
  12   4  -1   24.30    7.90
 -11  -4   1   40.70   10.20
  11  -4  -1   43.30    9.70
  11  -4  -1   38.90    8.40
  11   4  -1   43.00    9.10
  10  -4  -1   42.70    8.50
  10  -4  -1   60.69   10.90
 -10  -4   1   65.09   11.90
  10   4  -1   57.59    9.90
   9  -4  -1  144.79   16.40
   9  -4  -1  131.79   14.50
   9   4  -1  151.58   15.60
   8  -4  -1  159.28   13.50
   8  -4  -1  157.98   16.50
   8   4  -1  166.28   14.00
   7  -4  -1  101.69   11.90
   7  -4  -1   97.89   10.60
   7   4  -1  110.89   11.80
   6  -4  -1  165.88   12.40
   6  -4  -1  171.68   13.50
   6   4  -1  150.28   12.50
   5  -4  -1    7.20    2.60
   5  -4  -1    5.10    2.50
   5   4  -1    5.50    2.60
   4  -4  -1 1240.18   68.99
   4  -4  -1 1239.48   67.99
   3  -4  -1  391.06   22.10
   3  -4  -1  346.27   20.90
   3   4  -1  337.17   21.90
  -2  -4   1   27.70    4.90
   2  -4  -1   24.00    2.80
   2  -4  -1   23.70    3.70
  -1  -4   1  869.11   49.99
   1  -4  -1  912.11   48.30
  -1  -4   1  891.41   49.70
   1  -4  -1  935.91   49.80
   0  -4  -1 1134.89   60.89
   0  -4   1 1148.79   61.19
   0  -4   1 1069.49   59.99
  -1  -4  -1  817.82   46.50
   1  -4   1  885.61   46.80
   1  -4   1  835.92   45.70
   1   4   1  835.92   45.00
   2  -4   1  499.15   29.20
  -2  -4  -1  499.85   29.20
   2  -4   1  513.35   28.50
   2   4   1  514.95   28.00
   3  -4   1  157.28   10.70
   3  -4   1  163.98   11.30
   3   4   1  167.98   10.50
   4  -4   1   97.39    8.20
   4  -4   1   96.29    7.70
   5  -4   1  983.70   56.49
   5  -4   1  990.40   56.09
   5   4   1 1025.30   55.99
   6  -4   1   42.30    6.10
   6  -4   1   22.60    4.80
   6   4   1   37.70    5.40
  -7  -4  -1  759.92   46.70
   7  -4   1  781.52   45.60
   7   4   1  774.42   45.30
  -8  -4  -1  999.10   61.79
   8  -4   1 1093.79   61.19
   8   4   1 1054.59   60.79
  -9  -4  -1   -0.70    4.00
   9  -4   1    3.20    3.20
   9  -4   1   -0.70    2.60
   9   4   1    1.30    3.00
 -10  -4  -1  241.48   21.00
  10  -4   1  204.48   18.50
  10  -4   1  257.87   20.50
  10   4   1  246.58   19.60
  11  -4   1    4.00    4.20
 -11  -4  -1    9.90    7.10
  11  -4   1    5.70    4.60
  11   4   1    2.10    4.00
  12  -4   1    1.30    4.20
  12  -4   1    1.20    4.30
  12   4   1   -2.70    3.70
  13  -4   1   41.00    9.80
  13   4   1   34.40    9.40
  14  -4   1    4.70    5.90
  14   4   1    4.60    5.90
  14  -5  -1   87.09   15.10
  14  -5  -1   86.69   15.00
  14   5  -1  108.59   16.60
  13  -5  -1   46.70   10.80
  13  -5  -1   65.89   13.40
  13   5  -1   55.59   11.80
  12  -5  -1   48.80   10.40
  12  -5  -1   59.59   12.50
  12   5  -1   64.69   11.80
 -11  -5   1   32.30   10.00
  11  -5  -1   42.80    9.70
  11  -5  -1   57.79   10.60
  11   5  -1   52.29   10.10
  10  -5  -1  106.69   13.50
  10  -5  -1  125.19   15.60
  10   5  -1  108.89   13.90
   9  -5  -1   16.80    5.90
   9  -5  -1   14.80    4.90
   9   5  -1   25.70    6.50
   8  -5  -1   21.00    6.00
   8  -5  -1   20.50    5.10
   8   5  -1   23.40    6.00
   7  -5  -1   32.20    6.70
   7  -5  -1   30.80    5.50
   7   5  -1   33.80    6.50
   6  -5  -1  344.17   21.60
   6  -5  -1  322.67   22.80
   6   5  -1  331.17   22.30
   5  -5  -1   93.69    8.00
   5  -5  -1   83.69    9.80
   4  -5  -1   40.10    5.10
   4  -5  -1   46.60    6.40
   4   5  -1   49.90    6.70
   3  -5  -1  116.59    8.50
   3  -5  -1  117.39    9.60
  -3  -5   1  143.49   11.50
   2  -5  -1   40.80    5.40
  -2  -5   1   37.60    5.40
  -2  -5   1   41.80    6.00
   2  -5  -1   36.70    3.70
  -1  -5   1   52.69    6.00
  -1  -5   1   48.60    5.50
   1  -5  -1   57.89    3.80
   1  -5  -1   45.00    5.60
   0  -5  -1  583.34   33.30
   0  -5   1  600.74   33.60
   0  -5   1  565.24   32.00
  -1  -5  -1  862.41   49.90
   1  -5   1  919.51   50.19
   1  -5   1  910.81   48.70
   2  -5   1 2562.04  136.39
  -2  -5  -1 2463.35  136.29
   2  -5   1 2527.85  135.19
   2   5   1 2580.04  134.79
   3  -5   1 1248.58   69.69
  -3  -5  -1 1226.18   69.69
   3  -5   1 1260.27   68.69
   3   5   1 1302.47   68.49
   4  -5   1   31.60    5.00
   4  -5   1   39.80    5.10
   4   5   1   42.70    5.10
   5  -5   1   35.70    5.70
   5  -5   1   47.10    6.00
   6  -5   1  298.27   20.20
   6  -5   1  308.17   19.70
   6   5   1  274.77   19.10
   7  -5   1  320.67   22.50
   7  -5   1  318.67   21.80
   7   5   1  328.37   21.80
  -8  -5  -1   45.10    9.70
   8  -5   1   35.00    7.40
   8  -5   1   32.60    6.70
   8   5   1   35.10    6.70
   9  -5   1    0.60    2.50
   9  -5   1    7.80    4.30
  -9  -5  -1   -0.30    4.60
   9   5   1    3.50    3.40
 -10  -5  -1   19.20    8.10
  10  -5   1    8.40    4.60
  10  -5   1    4.00    3.60
  10   5   1    9.00    4.40
  11  -5   1   37.10    8.10
 -11  -5  -1   17.20    8.20
  11  -5   1   31.00    8.30
  11   5   1   25.40    6.90
  12  -5   1   29.80    9.00
  12  -5   1   13.60    6.30
  12   5   1   17.10    6.50
  13  -5   1   55.79   11.20
  13   5   1   59.29   11.60
  14  -6  -1    9.40    7.50
  14   6  -1   11.50    6.70
  13  -6  -1   82.69   14.90
  13  -6  -1   83.49   14.60
  13   6  -1   86.39   14.30
  12  -6  -1  453.75   34.80
  12  -6  -1  462.95   33.30
  12   6  -1  437.66   33.40
  11  -6  -1   82.59   12.90
 -11  -6   1   89.99   15.80
  11  -6  -1  100.09   14.90
  11   6  -1   91.09   13.90
  10  -6  -1  111.49   14.10
  10  -6  -1  118.29   16.10
  10   6  -1  127.09   15.30
   9  -6  -1   53.79   10.20
   9  -6  -1   56.49    8.90
   9   6  -1   61.59   10.00
   8  -6  -1  126.89   13.20
   8  -6  -1  133.19   15.00
   8   6  -1  132.59   14.40
   7  -6  -1  202.08   16.30
   7  -6  -1  191.98   14.70
   7   6  -1  179.28   15.20
   6  -6  -1  276.97   18.70
   6  -6  -1  282.07   20.20
   5  -6  -1   32.90    5.80
   5  -6  -1   29.50    4.80
   5   6  -1   22.60    5.00
   4  -6  -1    9.10    3.20
   4  -6  -1   11.10    2.70
   4   6  -1   15.00    4.10
   3  -6  -1   85.29    9.00
  -3  -6   1   79.49    8.80
  -3  -6   1   78.69   10.40
   3  -6  -1   86.39    6.60
   2  -6  -1  125.59    7.90
  -2  -6   1  114.99    9.70
   2  -6  -1  111.09    9.40
  -2  -6   1  118.29    9.80
  -1  -6   1   27.90    4.20
  -1  -6   1   20.70    4.00
   1  -6  -1   29.50    4.60
   1  -6  -1   27.50    2.40
   0  -6  -1  957.80   52.99
   0  -6   1  927.81   53.19
   0  -6   1  947.91   51.19
   1  -6   1 2791.22  151.68
  -1  -6  -1 2748.93  151.38
   1  -6   1 2899.81  149.69
   2  -6   1  506.75   28.90
  -2  -6  -1  487.15   30.30
   2  -6   1  510.35   30.60
   2   6   1  542.25   29.00
  -3  -6  -1  231.38   16.60
   3  -6   1  253.67   15.60
   3  -6   1  239.38   16.80
   3   6   1  266.87   15.60
   4  -6   1  191.18   13.00
  -4  -6  -1  170.98   13.80
   4  -6   1  185.08   13.80
   4   6   1  208.08   13.00
   5  -6   1  861.21   49.40
  -5  -6  -1  910.01   50.99
   5  -6   1  859.21   50.39
   5   6   1  854.01   49.30
   6  -6   1   10.10    3.40
   6  -6   1    9.80    3.60
   6   6   1    3.50    2.20
   7  -6   1  155.98   13.00
   7  -6   1  162.48   16.00
   7   6   1  156.98   12.90
   8  -6   1    8.70    4.00
   8  -6   1   14.00    5.10
   8   6   1   10.50    4.00
  -9  -6  -1    9.50    6.60
   9  -6   1   15.70    5.90
   9  -6   1   11.70    4.90
   9   6   1   11.30    4.60
  10  -6   1   74.59   10.90
  10  -6   1   41.70    9.20
 -10  -6  -1   73.09   13.80
  10   6   1   75.69   11.20
 -11  -6  -1    3.40    6.70
  11  -6   1   16.40    5.90
  11  -6   1    2.60    3.10
  11   6   1   14.50    6.10
  12  -6   1   80.59   12.60
  12  -6   1   75.09   13.40
  12   6   1   42.20    9.70
  13  -6   1    6.80    5.60
  13   6   1    9.70    5.60
  13  -7  -1   81.59   14.80
  13  -7  -1   87.99   15.40
  13   7  -1   86.89   15.00
 -12  -7   1   61.59   14.50
  12  -7  -1   68.09   12.30
  12  -7  -1   81.89   14.70
  12   7  -1   72.79   12.90
  11  -7  -1  177.38   20.00
  11  -7  -1  253.47   25.20
  11   7  -1  191.08   20.50
  10  -7  -1   36.90    8.90
  10  -7  -1   47.40   10.20
  10   7  -1   54.39   10.20
   9  -7  -1  428.56   29.90
   9  -7  -1  420.16   31.50
   9   7  -1  490.45   31.70
   8  -7  -1   12.20    5.30
   8  -7  -1   10.40    4.00
   8   7  -1   15.40    5.30
   7  -7  -1    8.00    3.50
   7  -7  -1    7.90    4.20
   6  -7  -1  344.27   24.10
   6  -7  -1  330.17   22.20
   6   7  -1  363.06   24.20
   5  -7  -1   33.30    5.20
   5  -7  -1   27.60    5.90
   5   7  -1   32.30    6.10
  -4  -7   1   56.99    9.40
   4  -7  -1   37.40    6.50
   4  -7  -1   37.00    5.00
  -4  -7   1   29.40    5.90
   3  -7  -1  127.19   10.60
  -3  -7   1  126.69   13.30
   3  -7  -1  121.49    8.80
  -3  -7   1  126.79   11.00
  -2  -7   1  251.17   16.30
  -2  -7   1  257.97   17.30
   2  -7  -1  235.88   14.50
   2  -7  -1  245.38   16.90
  -1  -7   1   87.79    6.60
  -1  -7   1   65.19    7.80
   1  -7  -1   55.89    7.00
   1  -7  -1   70.99    4.70
   0  -7   1   28.70    4.70
   0  -7   1   30.20    3.20
   0  -7  -1   15.00    3.60
  -1  -7  -1  342.77   22.00
   1  -7   1  354.36   20.00
   1  -7   1  343.87   22.20
   2  -7   1   52.79    5.20
   2  -7   1   47.40    6.60
  -2  -7  -1   45.80    6.30
  -2  -7  -1   46.20    6.00
   3  -7   1  310.27   21.50
   3  -7   1  332.47   19.90
  -3  -7  -1  310.17   21.40
   3   7   1  358.46   20.40
   4  -7   1   61.19    7.90
   4  -7   1   56.39    6.50
  -4  -7  -1   53.99    7.70
   4   7   1   56.09    6.50
  -5  -7  -1  220.48   17.00
   5  -7   1  230.18   15.70
   5  -7   1  219.28   16.80
   5   7   1  238.68   15.90
  -6  -7  -1  286.87   20.90
   6  -7   1  299.37   20.70
   6  -7   1  278.97   19.40
   6   7   1  284.57   19.50
   7  -7   1    3.60    3.50
   7  -7   1    5.70    3.50
   7   7   1    5.10    2.90
   8  -7   1   86.79   12.10
   8  -7   1   90.59   11.10
   8   7   1  103.39   11.70
   9  -7   1  285.97   22.70
   9  -7   1  294.27   21.80
   9   7   1  265.27   21.10
  10  -7   1  196.48   17.20
  10  -7   1  162.78   19.50
 -10  -7  -1  220.48   24.90
  10   7   1  198.68   17.40
  11  -7   1   28.90    9.10
 -11  -7  -1   36.30   11.60
  11  -7   1   32.00    8.50
  11   7   1   54.89   10.00
  12  -7   1   22.30    7.70
 -12  -7  -1    7.50    7.50
  12  -7   1   -1.00    3.00
  12   7   1    5.80    5.50
  13  -7   1   36.30    9.80
  13   7   1   25.10    8.60
  13  -8  -1   19.40    8.20
  13  -8  -1   37.30   12.00
  13   8  -1   10.50    7.60
  12  -8  -1  210.88   25.10
 -12  -8   1  147.99   21.80
  12  -8  -1  206.48   22.30
  12   8  -1  196.78   22.10
  11  -8  -1   35.90    9.10
  11  -8  -1   16.30    7.60
  11   8  -1   33.30    8.90
  10  -8  -1  350.56   26.90
  10  -8  -1  405.96   29.90
  10   8  -1  353.56   27.90
   9  -8  -1    6.50    4.80
   9  -8  -1    0.60    4.10
   9   8  -1    0.90    4.70
   8  -8  -1   99.09   11.70
   8  -8  -1  118.19   14.70
   7  -8  -1   19.60    5.80
   7  -8  -1   20.50    5.10
   7   8  -1   16.50    5.50
  -6  -8   1   27.70    7.10
   6  -8  -1   28.80    5.60
   6  -8  -1   22.20    5.90
   6   8  -1   25.70    6.30
  -5  -8   1 1222.48   71.19
  -5  -8   1 1194.58   68.89
   5  -8  -1 1172.48   65.79
   5  -8  -1 1143.29   67.99
   4  -8  -1  552.64   32.20
  -4  -8   1  533.65   34.80
   4  -8  -1  589.54   34.90
  -4  -8   1  538.55   36.40
   3  -8  -1  326.57   21.60
   3  -8  -1  311.17   18.80
  -3  -8   1  327.97   21.70
  -3  -8   1  290.27   21.30
  -2  -8   1   25.20    5.10
  -2  -8   1   29.30    4.80
   2  -8  -1   30.90    3.60
   2  -8  -1   41.40    6.30
   1  -8  -1  117.69    7.50
  -1  -8   1  122.99    8.60
   1  -8  -1  131.79   10.70
  -1  -8   1  143.89   11.20
   0  -8   1   13.10    2.20
   0  -8  -1    8.90    2.90
   0  -8   1   11.40    3.60
  -1  -8  -1  168.68   12.40
   1  -8   1  145.09   12.20
   1  -8   1  153.98    9.80
   2  -8   1  112.69    7.90
  -2  -8  -1  103.39   10.80
   2  -8   1  102.39   10.70
  -2  -8  -1  117.99    8.40
   3  -8   1  368.06   20.10
  -3  -8  -1  291.37   21.40
   3  -8   1  312.27   21.80
  -3  -8  -1  311.97   21.70
   4  -8   1  500.55   31.90
   4  -8   1  498.95   29.90
  -4  -8  -1  476.35   31.60
   4   8   1  545.45   30.80
   5  -8   1   92.69   11.30
   5  -8   1   96.99    9.80
  -5  -8  -1  109.89   12.00
   5   8   1   94.89   10.10
   6  -8   1  148.69   15.20
  -6  -8  -1  135.39   14.70
   6  -8   1  135.49   11.60
   6   8   1  149.79   12.20
   7  -8   1    4.00    3.10
   7  -8   1    5.20    4.10
  -7  -8  -1    2.90    4.40
   7   8   1    3.50    3.10
   8  -8   1    1.20    3.70
  -8  -8  -1   -1.10    4.20
   8  -8   1    6.50    3.90
   8   8   1    5.10    3.60
   9  -8   1  831.12   51.29
   9  -8   1  774.92   48.90
  10  -8   1  134.59   15.80
 -10  -8  -1  105.29   17.80
  10  -8   1  166.08   18.90
  10   8   1  118.59   14.70
 -11  -8  -1   37.40   11.70
  11  -8   1   59.49   12.00
  11  -8   1   57.89   10.60
  11   8   1   37.50    9.20
  12  -8   1   -0.20    5.20
 -12  -8  -1    2.30    8.00
  12  -8   1    7.00    5.90
  12   8   1    3.10    4.90
  13  -8   1   15.30    8.00
  13   8   1   -4.80    5.40
  13  -9  -1    5.90    7.20
  13  -9  -1    0.40    5.80
  13   9  -1    0.90    5.70
  12  -9  -1   16.60    8.00
  12  -9  -1    6.10    7.00
  12   9  -1   12.50    7.30
  11  -9  -1    4.60    5.70
  11  -9  -1    0.60    5.60
  11   9  -1   12.30    6.40
  10  -9  -1   11.00    6.80
  10  -9  -1   16.90    6.70
  10   9  -1    5.90    4.80
   9  -9  -1  291.67   22.50
   9  -9  -1  324.77   25.40
   9   9  -1  287.07   23.90
   8  -9  -1  173.28   16.40
   8  -9  -1  172.58   18.60
   8   9  -1  145.79   17.00
  -7  -9   1    8.90    5.50
  -7  -9   1   15.90    8.30
   7  -9  -1    1.10    3.40
   7  -9  -1    4.20    3.30
   7   9  -1    3.80    4.20
   6  -9  -1  582.44   37.80
  -6  -9   1  628.64   38.70
   6  -9  -1  559.64   35.00
  -6  -9   1  567.94   40.80
  -5  -9   1  892.41   52.79
   5  -9  -1  881.41   49.40
   5  -9  -1  885.01   52.29
  -5  -9   1  780.72   54.29
   4  -9  -1    9.70    4.10
   4  -9  -1    4.00    2.40
  -4  -9   1    5.30    3.80
  -4  -9   1   -0.90    3.80
   3  -9  -1   56.99    8.60
  -3  -9   1   45.60    7.60
  -3  -9   1   47.00    7.10
   3  -9  -1   54.39    5.70
  -2  -9   1  192.28   15.80
   2  -9  -1  201.68   15.70
  -2  -9   1  226.18   14.40
   2  -9  -1  207.78   12.80
  -1  -9   1  159.18   12.50
  -1  -9   1  132.29    9.00
   1  -9  -1  142.49   11.90
   0  -9   1  167.48   10.20
   0  -9   1  166.18   13.30
   0  -9  -1  162.58   13.20
   1  -9   1   85.39    6.30
   1  -9   1   80.39    9.80
  -1  -9  -1   99.09   10.60
   2  -9   1  348.17   20.20
   2  -9   1  321.87   22.80
  -2  -9  -1  345.57   22.90
   3  -9   1   80.99    6.80
  -3  -9  -1   75.89    9.60
   3  -9   1   84.29   10.30
  -3  -9  -1   72.69    8.80
   4  -9   1   43.00    5.70
   4  -9   1   56.79    8.50
  -4  -9  -1   31.50    6.60
  -4  -9  -1   57.89    9.70
   4   9   1   58.99    7.40
   5  -9   1  290.37   21.00
   5  -9   1  284.47   18.70
  -5  -9  -1  247.78   20.20
   5   9   1  292.97   19.70
  -6  -9  -1   55.29    8.90
   6  -9   1   37.90    7.90
   6  -9   1   58.39    7.60
   6   9   1   56.59    8.00
   7  -9   1   39.90    8.20
   7  -9   1   39.20    6.90
  -7  -9  -1   50.69    9.40
   7   9   1   42.40    7.50
   8  -9   1  135.99   14.50
   8  -9   1  132.29   16.00
  -8  -9  -1  125.19   15.70
   8   9   1  147.99   15.50
   9  -9   1    4.30    4.20
   9  -9   1    6.50    4.40
  -9  -9  -1   -1.00    4.40
   9   9   1   -2.40    3.30
 -10  -9  -1   -0.10    4.70
 -10  -9  -1   -6.70    6.70
  10  -9   1    7.30    4.90
  10  -9   1    3.10    4.70
  10   9   1    0.80    2.80
 -11  -9  -1   13.10    8.40
  11  -9   1    6.50    6.30
 -11  -9  -1   23.70    8.30
  11  -9   1    2.40    5.10
  11   9   1   11.40    6.10
  12  -9   1   70.19   13.70
 -12  -9  -1   45.50   13.00
  12  -9   1   59.59   11.20
  12   9   1   59.19   11.90
 -12 -10   1    5.00    6.30
  12 -10  -1    2.80    6.80
  12 -10  -1    6.80    6.00
  12  10  -1   -0.40    5.40
  11 -10  -1   40.40   10.20
  11 -10  -1   38.40   10.90
 -11 -10   1   37.50   10.70
  10 -10  -1    2.60    4.80
  10 -10  -1    5.10    5.60
 -10 -10   1   10.80    7.40
  10  10  -1    7.10    5.50
  -9 -10   1   -4.60    4.60
   9 -10  -1    2.40    4.90
   9 -10  -1    1.00    4.10
  -9 -10   1    5.20    8.60
   9  10  -1    0.50    4.70
  -8 -10   1    3.90    5.30
  -8 -10   1    1.90    8.10
   8 -10  -1    7.00    4.20
   8 -10  -1    7.00    5.00
   7 -10  -1  427.56   28.40
  -7 -10   1  435.76   35.10
   7 -10  -1  438.56   31.50
  -7 -10   1  470.75   32.30
  -6 -10   1   70.29   14.50
  -6 -10   1   97.09   13.00
   6 -10  -1   73.99   11.20
   6 -10  -1   95.29   10.10
  -5 -10   1   23.10    8.10
   5 -10  -1   34.10    5.60
   5 -10  -1   41.20    8.00
  -5 -10   1   21.10    6.50
   4 -10  -1  321.07   19.80
  -4 -10   1  306.77   23.00
   4 -10  -1  300.37   22.70
  -4 -10   1  318.97   23.00
   3 -10  -1   14.50    4.80
   3 -10  -1   21.50    3.70
  -3 -10   1   27.30    6.30
  -3 -10   1   20.40    5.20
  -2 -10   1  849.52   47.30
  -2 -10   1  779.92   50.19
   2 -10  -1  860.61   50.49
   2 -10  -1  870.91   46.40
   1 -10  -1  311.37   22.20
  -1 -10   1  343.37   22.80
  -1 -10   1  317.97   18.50
   0 -10  -1   32.50    6.60
   0 -10   1   47.50    3.90
   0 -10   1   37.20    6.60
   1 -10   1   24.40    5.40
  -1 -10  -1   26.30    5.50
   1 -10   1   22.10    3.00
   2 -10   1  186.48   16.30
   2 -10   1  229.98   13.80
  -2 -10  -1  215.38   16.50
  -3 -10  -1   11.40    4.40
   3 -10   1   11.90    3.20
   3 -10   1   13.80    5.00
  -3 -10  -1   28.90    4.60
  -4 -10  -1   49.00    8.90
   4 -10   1   47.90    6.10
   4 -10   1   56.39    9.10
  -4 -10  -1   41.70    7.50
   5 -10   1  396.96   24.80
  -5 -10  -1  387.16   28.90
  -5 -10  -1  389.36   27.30
   5 -10   1  392.66   27.60
  -6 -10  -1   71.59   10.90
   6 -10   1   69.39   11.30
   6 -10   1   79.79    9.50
   6  10   1   81.29   10.50
  -7 -10  -1   80.89   12.20
   7 -10   1   98.69   13.40
   7 -10   1   78.19   10.20
   7  10   1  113.29   13.10
  -8 -10  -1  126.19   16.10
   8 -10   1  132.49   14.60
   8 -10   1  128.29   16.60
   8  10   1  128.79   15.20
   9 -10   1    0.00    4.40
  -9 -10  -1   -4.80    3.50
   9 -10   1    1.40    4.20
   9  10   1    8.20    5.00
  10 -10   1    0.00    3.90
 -10 -10  -1    1.20    4.90
  10 -10   1    4.20    5.60
  10  10   1    8.70    5.60
  11 -10   1  174.58   19.40
 -11 -10  -1  186.08   26.30
  11 -10   1  229.78   24.90
 -11 -10  -1  150.18   22.80
  11  10   1  170.18   20.00
  12 -10   1    6.90    6.40
 -12 -10  -1    0.50    8.10
  12 -10   1   17.80    9.20
  12  10   1   -2.20    3.60
 -12 -11   1    6.70    8.70
  12 -11  -1   16.00    9.40
  12 -11  -1   13.00    7.40
 -11 -11   1   49.00   11.80
  11 -11  -1   69.19   14.70
  11 -11  -1   43.40   10.10
 -11 -11   1   56.39   17.50
  10 -11  -1    6.10    6.90
 -10 -11   1   13.60    7.40
 -10 -11   1   13.80   12.00
  10 -11  -1   20.70    7.50
  -9 -11   1    9.70    6.50
   9 -11  -1    5.50    5.00
   9 -11  -1   16.20    7.40
  -9 -11   1    2.60    8.50
   8 -11  -1   -2.30    3.30
   8 -11  -1    3.80    5.50
  -8 -11   1   17.00   10.30
  -8 -11   1   10.40    6.10
   7 -11  -1    5.90    4.00
  -7 -11   1    4.30    5.00
  -7 -11   1    6.80    8.70
   7 -11  -1    1.50    4.70
   6 -11  -1  186.68   19.10
   6 -11  -1  187.78   14.30
  -6 -11   1  193.68   22.40
  -6 -11   1  154.38   18.00
   5 -11  -1  203.08   14.40
  -5 -11   1  190.18   19.30
   5 -11  -1  202.48   19.50
  -5 -11   1  177.38   19.40
  -4 -11   1  261.67   18.80
   4 -11  -1  244.88   16.30
   4 -11  -1  242.18   19.70
  -4 -11   1  230.48   19.40
   3 -11  -1  818.42   45.70
   3 -11  -1  775.22   49.60
  -3 -11   1  845.82   47.00
  -3 -11   1  818.12   50.09
   2 -11  -1  626.54   41.30
  -2 -11   1  692.03   37.30
  -2 -11   1  656.23   41.70
   2 -11  -1  670.73   37.10
  -1 -11   1  576.54   31.70
   1 -11  -1  568.94   36.50
  -1 -11   1  581.34   36.60
   0 -11   1    6.50    3.70
   0 -11  -1   13.20    4.50
   0 -11   1   15.70    2.40
   1 -11   1  196.18   11.80
  -1 -11  -1  173.28   15.30
   1 -11   1  181.18   15.50
   2 -11   1  109.09   13.00
   2 -11   1  117.59    8.70
  -2 -11  -1  143.09   14.00
  -3 -11  -1   87.09   11.40
  -3 -11  -1  109.89   11.80
   3 -11   1   85.49    7.70
   3 -11   1   96.69   12.60
   4 -11   1    6.00    3.00
  -4 -11  -1    7.80    4.80
  -4 -11  -1    8.00    4.00
   4 -11   1   15.40    5.50
   5 -11   1  562.64   33.20
  -5 -11  -1  570.44   37.70
   5 -11   1  552.94   36.80
  -5 -11  -1  500.95   35.60
  -6 -11  -1   20.00    8.60
  -6 -11  -1   15.60    6.20
   6 -11   1   14.10    6.40
   6 -11   1   18.50    5.10
   7 -11   1    0.80    3.30
   7 -11   1    9.10    5.30
  -7 -11  -1   -0.30    3.80
   7  11   1   11.60    7.40
   8 -11   1   54.89   10.70
  -8 -11  -1   38.60    9.50
   8 -11   1   67.19   10.10
   9 -11   1  112.19   13.70
   9 -11   1  137.69   18.10
  -9 -11  -1   78.79   13.60
  10 -11   1  200.88   20.40
  10 -11   1  224.18   25.00
 -10 -11  -1  159.18   20.80
 -11 -11  -1    3.20    7.80
  11 -11   1    0.10    4.90
  11 -11   1    2.80    5.40
  12 -11   1   89.89   14.60
  11 -12  -1   31.10    8.70
  11 -12  -1   39.60   11.60
 -11 -12   1   16.00    8.70
 -10 -12   1   62.99   13.50
  10 -12  -1   64.49   11.50
  10 -12  -1   78.09   15.40
  -9 -12   1  544.55   40.20
   9 -12  -1  583.14   41.10
   9 -12  -1  538.15   36.80
  -8 -12   1   38.00   10.30
   8 -12  -1   46.80    8.50
   8 -12  -1   54.89   12.00
  -7 -12   1   36.00    8.80
   7 -12  -1   20.60    6.10
   7 -12  -1   34.00    9.20
   6 -12  -1    8.10    4.90
  -6 -12   1    7.60    5.60
   6 -12  -1   12.40    4.40
   5 -12  -1  116.79   15.00
   5 -12  -1  117.49   11.30
  -5 -12   1   99.49   13.50
  -4 -12   1   51.49    9.60
   4 -12  -1   42.00    9.00
   4 -12  -1   43.10    6.00
   3 -12  -1    4.40    2.60
  -3 -12   1    2.40    3.60
   3 -12  -1    6.00    3.80
   2 -12  -1  231.58   18.80
  -2 -12   1  230.28   18.80
  -1 -12   1   27.00    6.50
   1 -12  -1    8.50    4.60
   0 -12   1   73.19    9.90
   0 -12  -1   61.59    9.40
   1 -12   1   13.00    4.70
   1 -12   1   18.90    2.90
  -1 -12  -1   13.90    5.30
   2 -12   1  107.39    8.10
  -2 -12  -1   91.39   11.80
   2 -12   1  125.99   13.90
  -3 -12  -1   63.99    9.50
   3 -12   1   66.29    7.00
   3 -12   1   71.29   11.10
   4 -12   1  139.99   16.30
  -4 -12  -1  132.29   14.90
   4 -12   1  137.79   10.90
   5 -12   1   77.09   11.80
  -5 -12  -1   74.99   11.70
   5 -12   1   84.39    9.40
  -6 -12  -1   23.50    7.40
   6 -12   1   36.10    6.50
   6 -12   1   35.20    8.90
   7 -12   1   16.80    7.00
   7 -12   1   16.50    5.20
  -7 -12  -1    7.00    5.30
   8 -12   1   14.30    5.20
  -8 -12  -1    4.60    5.30
   8 -12   1    5.30    5.70
   9 -12   1   25.50    8.50
  -9 -12  -1    4.00    5.90
   9 -12   1   12.00    5.70
 -10 -12  -1   13.70    7.40
  10 -12   1   23.60    7.50
  10 -12   1   19.90    8.60
  11 -12   1   17.40    7.50
  11 -12   1    7.40    8.60
 -11 -12  -1    9.80    9.20
  11 -13  -1   16.20    9.70
 -11 -13   1   11.80    8.50
  11 -13  -1   15.40    7.80
  10 -13  -1   15.50    7.00
 -10 -13   1   16.40    8.70
  10 -13  -1   13.80    9.10
   9 -13  -1  100.49   13.90
  -9 -13   1   93.99   15.80
   9 -13  -1  128.39   18.40
   8 -13  -1  374.56   29.70
  -8 -13   1  319.47   28.30
   8 -13  -1  352.56   25.40
   7 -13  -1   58.19   12.10
  -7 -13   1   21.40    8.20
   7 -13  -1   27.70    6.80
   6 -13  -1   18.10    7.40
  -6 -13   1   25.10    7.60
   6 -13  -1   19.00    5.30
  -5 -13   1    5.10    4.90
   5 -13  -1    2.20    4.30
  -4 -13   1   50.69    9.40
   4 -13  -1   28.20    7.60
   3 -13  -1  234.08   20.10
  -3 -13   1  246.58   20.20
   2 -13  -1  212.78   17.10
  -2 -13   1  137.19   16.10
   1 -13  -1   13.00    5.30
  -1 -13   1   17.60    5.60
   0 -13   1  269.37   22.40
   0 -13  -1  343.77   23.50
   1 -13   1    7.40    4.10
  -1 -13  -1   10.80    4.80
  -2 -13  -1   13.30    5.20
   2 -13   1   14.90    6.00
  -3 -13  -1   41.90    8.40
   3 -13   1   45.50    9.30
   4 -13   1  146.29   17.20
   4 -13   1  136.89   10.90
  -4 -13  -1  114.79   15.00
   5 -13   1   25.00    7.70
   5 -13   1   26.00    5.50
  -5 -13  -1   20.60    6.50
  -6 -13  -1  160.28   18.90
   6 -13   1  163.48   13.90
   6 -13   1  169.38   19.00
  -7 -13  -1   58.69   11.70
   7 -13   1   88.59   14.40
   7 -13   1   72.09   10.00
  -8 -13  -1    7.90    5.80
   8 -13   1    8.00    4.60
   8 -13   1   11.30    7.40
  -9 -13  -1   17.70    8.10
   9 -13   1   14.60    5.70
   9 -13   1   19.40    8.80
 -10 -13  -1   53.19   12.30
  10 -13   1   36.10    9.40
  10 -13   1   46.60   13.10
 -10 -14   1   10.60    8.50
  10 -14  -1    2.40    6.90
  -9 -14   1   53.29   12.60
   9 -14  -1   70.29   15.00
  -8 -14   1  227.38   26.10
   8 -14  -1  256.87   28.40
  -7 -14   1    0.20    5.30
   7 -14  -1    6.00    6.70
   6 -14  -1    3.60    6.00
  -6 -14   1    4.70    5.20
  -5 -14   1    8.70    5.40
   5 -14  -1    4.30    5.40
   4 -14  -1  159.18   18.20
  -4 -14   1  171.28   18.80
  -3 -14   1  114.59   14.50
   3 -14  -1   70.39   12.10
  -2 -14   1  651.53   43.70
   2 -14  -1  701.73   44.30
  -1 -14   1   21.00    6.80
   1 -14  -1    9.10    5.60
   0 -14  -1   22.80    6.70
   0 -14   1   44.80    8.90
  -1 -14  -1   68.59   11.30
   1 -14   1   85.39   12.00
  -2 -14  -1   58.19    9.90
   2 -14   1   38.80    8.80
   3 -14   1  108.39   14.50
  -3 -14  -1  100.29   13.50
   4 -14   1    5.20    5.50
  -4 -14  -1    2.60    4.10
  -5 -14  -1  242.08   24.30
   5 -14   1  235.18   24.60
  -6 -14  -1  562.04   39.90
   6 -14   1  596.54   41.50
   7 -14   1    7.30    7.00
  -7 -14  -1    5.00    6.00
   8 -14   1   23.70    9.50
  -8 -14  -1   18.80    7.30
   9 -14   1    2.10    7.50
   9 -14   1    4.60    5.20
  -9 -14  -1    2.70    5.60
  10 -14   1   27.10   11.70
  10 -14   1   38.90    9.50
 -10 -14  -1   37.00   10.30
  -9 -15   1    9.20    7.40
   9 -15  -1   26.20   10.90
   8 -15  -1   53.69   13.00
  -8 -15   1   42.60   11.00
   7 -15  -1   14.30    8.10
  -7 -15   1    7.30    6.70
   6 -15  -1    7.60    7.30
  -6 -15   1    5.50    6.70
  -5 -15   1   11.80    6.50
   5 -15  -1   17.20    7.60
   4 -15  -1   -2.10    4.40
  -4 -15   1   10.80    6.00
  -3 -15   1  254.87   21.50
   3 -15  -1  218.08   23.00
   2 -15  -1  142.09   17.00
  -2 -15   1  142.59   16.50
  -1 -15   1    8.40    5.40
   1 -15  -1   15.40    6.10
   0 -15   1   27.50    7.80
   0 -15  -1   19.80    6.60
  -1 -15  -1   48.30    9.60
   1 -15   1   55.59   10.40
  -2 -15  -1   -0.80    3.90
   2 -15   1   -0.50    4.60
   3 -15   1   41.80    9.60
  -3 -15  -1   57.79   10.60
   4 -15   1   37.40    9.90
  -4 -15  -1   35.80    8.70
   5 -15   1   12.00    7.10
  -5 -15  -1    9.70    5.80
   6 -15   1  106.09   16.80
  -6 -15  -1   84.79   14.40
   7 -15   1   49.60   12.10
  -7 -15  -1   30.00    9.40
  -8 -15  -1   15.70    8.40
   8 -15   1   32.50   11.00
   9 -15   1   -3.70    6.90
  -9 -15  -1    5.60    7.10
  -8 -16   1   11.50    7.10
   8 -16  -1    6.10    7.60
   7 -16  -1   57.59   13.60
  -7 -16   1   41.50   10.80
  -6 -16   1   -1.40    5.20
   6 -16  -1    9.00    7.50
  -5 -16   1   12.70    6.80
   5 -16  -1   10.60    7.60
  -4 -16   1   90.49   14.20
   4 -16  -1  140.59   18.60
  -3 -16   1   30.30    8.50
   3 -16  -1   30.80    8.60
   2 -16  -1    9.40    6.20
  -2 -16   1   16.30    7.20
  -1 -16   1   53.79   10.80
   1 -16  -1   64.69   11.40
   0 -16   1  266.67   22.60
   0 -16  -1  260.37   22.40
   1 -16   1   12.60    6.20
  -1 -16  -1   15.20    6.60
  -2 -16  -1   46.20    9.70
   2 -16   1   31.10    8.40
   3 -16   1    4.10    5.90
  -3 -16  -1    9.10    5.70
   4 -16   1  618.64   42.10
  -4 -16  -1  549.74   40.00
  -5 -16  -1  134.79   18.30
   5 -16   1  197.68   22.60
   6 -16   1   29.30   10.50
  -6 -16  -1   28.90    8.60
  -7 -16  -1   51.59   11.60
   7 -16   1   65.79   14.50
   8 -16   1   30.20   11.60
  -8 -16  -1   20.20    9.00
   7 -17  -1   11.10    8.20
  -7 -17   1   31.50   10.50
   6 -17  -1   22.70   10.00
  -6 -17   1   28.00    9.10
  -5 -17   1   66.49   13.30
   5 -17  -1   70.29   13.90
   4 -17  -1    5.50    7.30
  -4 -17   1    9.30    6.50
   3 -17  -1   47.20   10.80
  -3 -17   1   40.20   10.10
   2 -17  -1    8.00    6.20
  -2 -17   1    3.20    5.70
  -1 -17   1  229.18   24.50
   1 -17  -1  239.08   24.00
   0 -17   1    2.00    5.40
   0 -17  -1    3.80    5.70
  -1 -17  -1    8.50    5.50
   1 -17   1   11.50    6.70
   2 -17   1   12.40    7.10
  -2 -17  -1    4.30    5.60
   3 -17   1   65.89   12.60
  -3 -17  -1   71.39   12.90
   4 -17   1   14.60    8.40
  -4 -17  -1   27.70    8.70
  -5 -17  -1  126.69   17.80
   5 -17   1  204.78   23.50
   6 -17   1   21.50    9.10
  -6 -17  -1   10.90    7.50
  -7 -17  -1    2.60    6.50
   7 -17   1   10.60    7.70
  -6 -18   1   19.60    9.40
   6 -18  -1   36.40   11.30
   5 -18  -1    0.30    6.70
  -5 -18   1   -0.70    6.30
   4 -18  -1   -5.40    6.30
  -4 -18   1    6.40    7.20
  -3 -18   1   10.00    7.30
   3 -18  -1   18.60    8.60
  -2 -18   1   -5.30    5.00
   2 -18  -1   -1.20    5.60
  -1 -18   1    8.70    6.40
   1 -18  -1    7.60    6.10
   0 -18   1   -4.50    4.60
   0 -18  -1    4.30    5.90
  -1 -18  -1   33.80    9.60
   1 -18   1   29.70    9.30
  -2 -18  -1    7.00    6.10
   2 -18   1   -1.10    5.60
  -3 -18  -1    5.20    6.60
   3 -18   1   -0.90    5.90
  -4 -18  -1   21.40    8.20
   4 -18   1   -2.30    5.70
   5 -18   1   -6.00    5.20
  -5 -18  -1   -0.40    5.80
   6 -18   1   42.80   12.50
  -6 -18  -1   12.30    8.50
   4 -19  -1   10.90    8.10
  -4 -19   1   24.50   10.00
   3 -19  -1  129.39   18.60
  -3 -19   1  112.99   16.90
   2 -19  -1    6.00    7.70
  -2 -19   1    2.90    6.40
  -1 -19   1   42.60   10.40
   1 -19  -1   31.60    9.90
   0 -19   1   -0.40    6.00
   0 -19  -1   11.70    7.20
  -1 -19  -1   97.29   16.30
   1 -19   1   78.69   14.30
   2 -19   1   -5.30    5.70
  -2 -19  -1    8.50    7.30
  -3 -19  -1  255.97   27.10
   3 -19   1  284.17   29.60
   4 -19   1    8.10    7.20
  -4 -19  -1    3.30    6.60
  14   0  -2    4.40    6.00
  13   0  -2    1.90    4.70
  12   0  -2   40.10    9.40
  11   0  -2    6.70    4.80
  10   0  -2   74.69   11.10
   9   0  -2    2.70    3.20
   9   0  -2    5.70    4.00
  -9   0   2    6.70    3.40
   8   0  -2  109.39   11.80
   8   0  -2   77.99   10.30
  -8   0   2   83.79    9.00
   7   0  -2   -1.60    1.80
   7   0  -2   -0.40    2.10
   6   0  -2  462.95   28.70
   6   0  -2  459.45   28.50
   5   0  -2   10.70    3.00
   5   0  -2    4.30    2.50
   4   0  -2   12.40    3.10
   4   0  -2   15.10    3.30
   3   0  -2    4.90    2.10
   3   0  -2    0.80    1.70
   2   0  -2  117.59    8.50
  -1   0   2   15.10    3.10
   1   0  -2    7.40    1.80
   0   0  -2  385.46   20.50
   0   0   2  338.57   21.40
  -1   0  -2   13.70    2.30
   2   0   2  803.92   40.20
   2   0   2  701.43   41.00
  -2   0  -2  722.73   41.10
   3   0   2    6.50    1.80
  -3   0  -2    3.30    1.80
   3   0   2    6.50    1.70
  -4   0  -2 3451.75  182.68
   4   0   2 3446.46  182.08
   4   0   2 3371.26  182.88
   5   0   2    2.20    1.80
   5   0   2    2.40    1.60
  -5   0  -2    2.70    2.40
   6   0   2 1507.75   84.69
   6   0   2 1553.54   85.69
  -6   0  -2 1588.04   85.29
   7   0   2    0.40    1.80
   7   0   2    2.40    2.30
  -7   0  -2    2.20    3.00
   8   0   2  588.54   35.40
  -8   0  -2  543.85   34.20
   9   0   2   -0.80    2.70
  -9   0  -2   -0.80    3.30
  10   0   2  121.39   14.50
  11   0   2    2.20    3.80
  12   0   2  105.89   14.50
  13   0   2    2.60    4.10
  14   0   2   46.60   11.50
  14  -1  -2    4.20    6.30
  14   1  -2   -0.60    5.40
  13  -1  -2    9.30    5.50
  13   1  -2   14.20    6.80
  12  -1  -2  135.49   16.80
  12   1  -2  188.28   20.10
  11  -1  -2  294.07   22.60
  11  -1  -2  266.57   22.10
  11   1  -2  265.47   22.10
  10  -1  -2  358.16   26.20
  10  -1  -2  364.96   26.20
  10   1  -2  371.66   26.40
   9  -1  -2  487.55   30.60
   9  -1  -2  485.35   30.80
  -9  -1   2  394.26   28.00
   9   1  -2  479.75   30.70
   8  -1  -2   89.39   10.50
   8  -1  -2  104.99   11.90
   8   1  -2  130.09   13.20
  -8   1   2   93.39    7.20
   7  -1  -2  404.96   26.50
   7  -1  -2  402.66   25.90
   7   1  -2  406.66   26.10
  -7   1   2  390.96   22.60
   6  -1  -2  203.58   15.60
   6  -1  -2  223.58   15.40
   6   1  -2  210.38   15.30
  -6   1   2  209.98   12.60
   5  -1  -2  183.78   14.70
   5  -1  -2  237.38   14.90
   5   1  -2  212.28   14.80
   4  -1  -2    8.10    2.80
   4  -1  -2    8.60    2.60
   4   1  -2    5.20    2.40
   3  -1  -2  197.88   12.90
   3  -1  -2  189.18   12.70
   3   1  -2  191.28   13.20
   2  -1  -2  250.67   16.20
  -2  -1   2  265.27   17.40
   2  -1  -2  259.37   14.80
   2  -1  -2  289.17   16.40
   1  -1  -2  197.48   12.10
  -1   1   2  248.68   13.70
   0  -1   2   28.10    4.00
   0  -1  -2   28.60    2.20
   0  -1  -2   26.30    3.00
   1  -1   2  141.99    8.00
  -1  -1  -2  141.89    8.90
  -1  -1  -2  137.79    7.70
   1  -1   2  133.99    8.80
  -1   1  -2  141.29    8.80
   1   1   2  125.39    8.40
   2  -1   2   11.60    1.60
   2  -1   2   10.70    2.20
  -2  -1  -2   12.30    2.60
   2   1   2    8.90    1.90
  -2   1  -2    9.40    2.10
  -3  -1  -2 3462.75  183.68
   3  -1   2 3603.94  182.78
   3  -1   2 3399.16  183.48
   3   1   2 3420.76  183.28
  -3   1  -2 3334.87  182.98
   4  -1   2   11.90    2.50
   4  -1   2    7.10    2.30
  -4  -1  -2   12.00    3.20
   4   1   2    8.80    2.50
  -4   1  -2   13.00    2.90
   5  -1   2  128.89    9.60
  -5  -1  -2  122.19    9.70
   5  -1   2  113.09    8.90
   5   1   2  110.99    9.10
  -5   1  -2  111.59    8.70
  -6  -1  -2   19.50    4.70
   6  -1   2   18.30    4.00
   6  -1   2   22.10    4.30
   6   1   2   19.10    4.00
  -6   1  -2   20.20    4.20
  -7  -1  -2  227.38   16.70
   7  -1   2  212.78   15.90
   7  -1   2  227.58   15.70
   7   1   2  226.28   16.00
  -7   1  -2  204.88   14.70
   8  -1   2   19.00    5.00
   8  -1   2   12.20    3.90
   8   1   2   16.20    4.60
  -8   1  -2   15.50    4.40
  -9  -1  -2   49.90    9.10
   9  -1   2   72.89    9.20
   9  -1   2   66.29    9.60
   9   1   2   58.29    9.00
  -9   1  -2   50.29    7.60
  10  -1   2  278.87   20.40
 -10  -1  -2  228.18   19.40
  10   1   2  241.78   19.60
  11  -1   2   66.59   11.10
  11   1   2  112.39   14.30
  12  -1   2   25.60    7.60
  12   1   2   34.30    8.60
  13  -1   2   18.70    7.10
  13   1   2   13.00    6.90
  14  -1   2   17.10    7.70
  14   1   2   23.30    8.40
  14  -2  -2   18.10    7.70
  14   2  -2   25.60    8.60
  13  -2  -2   29.00    8.90
  13   2  -2   31.70    9.30
  12  -2  -2   15.10    6.60
  12  -2  -2   28.90    8.10
  12   2  -2   14.70    6.60
  11  -2  -2  615.14   40.90
  11  -2  -2  652.43   41.50
  11   2  -2  600.84   41.00
  10  -2  -2   19.50    6.00
  10  -2  -2   21.90    6.40
 -10  -2   2   19.90    6.40
  10   2  -2   29.10    7.20
   9  -2  -2    3.30    3.40
   9  -2  -2   -1.50    3.40
   9   2  -2    2.90    3.50
   8  -2  -2   14.70    4.40
   8  -2  -2   18.60    5.50
   8   2  -2   11.90    4.30
   7  -2  -2 1389.66   78.89
   7  -2  -2 1363.36   77.89
   7   2  -2 1401.26   78.29
   6  -2  -2   18.00    4.60
   6  -2  -2   14.20    4.00
   6   2  -2    7.10    3.30
   5  -2  -2  365.66   22.50
   5  -2  -2  356.36   23.00
   5   2  -2  351.36   22.90
   4  -2  -2 1645.44   90.89
   4  -2  -2 1659.63   90.19
   4   2  -2 1664.43   90.99
   3  -2  -2  173.68   11.60
   3  -2  -2  167.88   11.90
   3   2  -2  180.38   12.60
  -2  -2   2  174.28   12.40
   2  -2  -2  164.48   10.80
   2  -2  -2  164.38    9.40
   2  -2  -2  152.98   10.50
  -1  -2   2   77.29    6.90
   1  -2  -2   91.79    6.20
  -1   2   2   89.09    6.50
   0  -2  -2  300.97   16.20
   0  -2   2  277.87   16.50
   0  -2  -2  275.37   16.60
   1  -2   2   41.90    4.30
  -1  -2  -2   41.70    3.30
   1  -2   2   45.90    3.70
  -1  -2  -2   49.30    5.30
   1   2   2   45.00    3.50
   2  -2   2  689.03   37.50
  -2  -2  -2  680.13   38.60
  -2  -2  -2  665.53   37.30
   2  -2   2  713.83   38.20
   3  -2   2   44.20    4.60
  -3  -2  -2   51.69    6.40
   3  -2   2   51.69    5.30
   3   2   2   43.00    4.70
  -3   2  -2   54.49    5.40
   4  -2   2   36.70    4.50
  -4  -2  -2   36.50    5.70
   4  -2   2   28.30    4.40
   4   2   2   33.30    4.50
  -4   2  -2   32.10    4.30
   5  -2   2    8.70    2.70
   5  -2   2    6.50    2.50
  -5  -2  -2    6.20    2.90
   5   2   2    4.10    2.10
  -5   2  -2   10.20    2.90
   6  -2   2  242.78   16.70
  -6  -2  -2  254.67   17.80
   6  -2   2  267.97   17.30
   6   2   2  252.97   16.90
  -6   2  -2  228.78   15.60
   7  -2   2  317.57   21.90
   7  -2   2  343.37   22.50
  -7  -2  -2  355.16   23.40
   7   2   2  361.06   22.40
  -7   2  -2  307.77   20.60
   8  -2   2   77.89    9.60
  -8  -2  -2   72.99   11.00
   8  -2   2   51.59    8.00
  -8   2  -2   74.39    8.10
   8   2   2   69.19    9.20
   9  -2   2  354.56   23.70
  -9  -2  -2  336.37   24.80
   9  -2   2  352.46   24.10
   9   2   2  363.66   24.10
  -9   2  -2  296.67   21.30
  10  -2   2  660.53   39.20
  10  -2   2  618.34   39.60
 -10  -2  -2  550.34   39.40
  10   2   2  623.04   39.40
  11  -2   2   92.19   13.00
  11  -2   2   96.89   12.60
  11   2   2   83.59   12.40
  12  -2   2   48.70   10.20
  12   2   2   45.40   10.00
  13  -2   2   40.70    9.60
  13   2   2   46.90   10.40
  14  -2   2    2.30    5.90
  14   2   2    3.60    5.90
  14  -3  -2  156.08   20.10
  14   3  -2  124.59   18.30
  13  -3  -2    3.50    6.00
  13  -3  -2    8.10    6.20
  13   3  -2   10.50    6.30
  12  -3  -2   23.40    7.70
  12  -3  -2   19.80    7.30
  12   3  -2   23.60    7.90
  11  -3  -2   21.40    6.80
  11  -3  -2   31.80    8.50
  11   3  -2   20.50    6.70
  10  -3  -2   20.10    6.60
  10  -3  -2   18.40    5.70
  10   3  -2    9.40    5.00
   9  -3  -2  221.18   21.40
   9  -3  -2  212.18   17.30
   9   3  -2  206.08   17.50
   8  -3  -2  493.05   30.30
   8  -3  -2  452.45   30.90
   8   3  -2  435.16   30.10
   7  -3  -2  310.97   22.30
   7  -3  -2  345.27   23.60
   7   3  -2  350.76   23.30
   6  -3  -2   68.99    8.50
   6  -3  -2   64.89    8.90
   6   3  -2   75.79    9.40
   5  -3  -2  456.95   27.90
   5  -3  -2  452.65   28.70
   5   3  -2  476.65   28.90
   4  -3  -2 1146.79   64.09
   4  -3  -2 1112.39   63.09
   4   3  -2 1172.58   64.39
   3  -3  -2  846.42   45.40
   3  -3  -2  879.71   47.20
   3  -3  -2  834.82   47.70
  -3  -3   2  870.41   49.80
   3   3  -2  814.52   48.20
  -2  -3   2   32.40    5.40
   2  -3  -2   21.30    3.20
   2  -3  -2   21.40    3.50
   1  -3  -2  738.83   39.80
  -1  -3   2  707.93   40.60
  -1   3   2  705.83   39.40
   0  -3   2   74.49    5.90
   0  -3  -2   77.79    5.60
   0  -3   2   79.09    6.60
  -1  -3  -2  831.32   45.40
   1  -3   2  820.92   45.70
   1  -3   2  853.21   45.80
   1   3   2  829.92   44.80
  -2  -3  -2  150.48    9.80
   2  -3   2  149.88   10.10
   2   3   2  155.88    9.50
   3  -3   2  166.38   11.00
   3  -3   2  153.78   10.50
   4  -3   2   15.00    3.20
  -4  -3  -2   23.50    5.20
   4  -3   2   10.60    2.60
   4   3   2    8.00    2.40
  -5  -3  -2  396.46   24.80
   5  -3   2  367.56   23.40
   5  -3   2  395.46   23.80
  -5   3  -2  366.56   22.90
   5   3   2  396.46   23.50
  -6  -3  -2   14.70    4.80
   6  -3   2   18.50    4.30
   6  -3   2   16.70    4.10
   6   3   2   12.60    3.40
  -6   3  -2   16.70    3.90
  -7  -3  -2  388.56   26.10
   7  -3   2  417.96   25.20
   7  -3   2  381.36   24.70
  -7   3  -2  341.47   22.90
   7   3   2  386.86   24.60
   8  -3   2  494.85   30.90
  -8  -3  -2  522.35   32.70
   8  -3   2  491.55   30.90
  -8   3  -2  428.56   28.40
   8   3   2  491.85   30.70
   9  -3   2   64.29    9.50
   9  -3   2   79.89   10.70
  -9  -3  -2   52.99   10.50
   9   3   2   66.69    9.60
  10  -3   2  374.06   24.90
 -10  -3  -2  307.67   25.50
  10  -3   2  327.57   24.20
  10   3   2  304.87   23.60
  11  -3   2  321.97   23.70
  11  -3   2  292.87   23.60
 -11  -3  -2  281.47   31.10
  11   3   2  310.97   23.80
  12  -3   2   28.30    8.00
  12   3   2   30.40    8.50
  13  -3   2   44.30   10.10
  13   3   2   64.89   12.50
  14  -3   2   -0.30    4.40
  14   3   2   -1.80    5.20
  14  -4  -2  185.88   22.20
  14  -4  -2  188.08   22.60
  14   4  -2  167.98   21.10
  13  -4  -2  207.98   24.30
  13  -4  -2  258.47   25.80
  13   4  -2  258.07   26.40
  12  -4  -2    7.20    6.40
  12  -4  -2    7.90    5.40
  12   4  -2    7.70    5.30
 -11  -4   2    6.50    6.00
  11  -4  -2    5.40    5.20
  11  -4  -2    3.00    3.90
  11   4  -2   16.90    6.30
  10  -4  -2    9.30    5.30
  10  -4  -2   21.40    5.70
  10   4  -2   11.70    5.40
   9  -4  -2   56.39    9.10
   9  -4  -2   75.39   11.50
   9   4  -2   56.09    9.20
   8  -4  -2   75.89   10.10
   8  -4  -2   72.59   10.60
   8   4  -2   86.89   11.20
   7  -4  -2  275.67   19.80
   7  -4  -2  237.98   18.00
   7   4  -2  255.57   19.00
   6  -4  -2  106.59   12.00
   6  -4  -2   96.49   10.20
   6   4  -2  108.09   11.50
   5  -4  -2  909.11   53.59
   5  -4  -2  941.51   52.59
   5   4  -2  933.01   53.89
   4  -4  -2 1164.78   64.99
   4  -4  -2 1160.68   63.99
   4   4  -2 1145.79   65.39
   3  -4  -2  130.49   10.20
   3  -4  -2  133.79    9.50
  -3  -4   2  155.68   15.10
   2  -4  -2  997.40   54.49
   2  -4  -2  963.20   55.29
  -2  -4   2 1044.90   56.89
   1  -4  -2    3.70    2.00
  -1  -4   2    2.60    2.00
  -1  -4   2   13.40    3.50
  -1   4   2    6.10    1.90
   0  -4   2   99.09    7.20
   0  -4   2   82.69    6.90
   0  -4  -2   84.69    6.60
  -1  -4  -2 1393.76   76.79
   1  -4   2 1383.26   76.69
   1  -4   2 1479.85   77.39
   1   4   2 1433.76   75.49
   2  -4   2  641.04   36.20
   2  -4   2  655.53   36.60
  -2  -4  -2  637.94   36.20
   2   4   2  653.43   35.40
  -3  -4  -2  493.45   28.40
   3  -4   2  472.85   28.30
   3   4   2  502.15   27.80
   5  -4   2    3.40    2.30
   5  -4   2    5.70    2.40
  -5  -4  -2    2.20    3.10
   5   4   2    0.90    1.50
   6  -4   2    4.30    2.60
   6  -4   2    5.40    2.80
  -6  -4  -2    3.10    3.10
   6   4   2    5.60    2.50
  -7  -4  -2  566.44   37.00
   7  -4   2  556.84   35.50
   7  -4   2  610.34   35.80
   7   4   2  581.74   35.20
   8  -4   2   22.10    5.60
   8  -4   2   19.90    5.00
  -8  -4  -2   34.10    8.30
   8   4   2   18.40    4.70
  -9  -4  -2   17.70    6.90
   9  -4   2   18.10    5.90
   9  -4   2   24.70    6.00
   9   4   2   22.10    5.60
  10  -4   2   77.49   11.60
 -10  -4  -2   66.89   12.80
  10  -4   2   67.89   10.80
  10   4   2   59.99    9.90
  11  -4   2   12.00    5.40
  11  -4   2   16.90    6.50
 -11  -4  -2   24.10    8.80
  11   4   2   17.60    6.50
  12  -4   2   48.60   10.50
  12   4   2   41.00    9.40
  13  -4   2   15.40    7.30
  13   4   2   21.20    7.60
  14  -5  -2  166.48   21.20
  14  -5  -2  208.28   23.90
  14   5  -2  149.19   20.30
  13  -5  -2  247.28   26.30
  13  -5  -2  227.58   24.40
  13   5  -2  228.18   24.50
  12  -5  -2   68.29   12.10
  12  -5  -2   82.29   14.50
  12   5  -2   80.19   13.70
  11  -5  -2    2.40    4.50
  11  -5  -2    1.00    3.80
  11   5  -2    1.00    4.30
  10  -5  -2   51.59    9.30
  10  -5  -2   75.79   12.20
  10   5  -2   83.49   12.30
   9  -5  -2  123.49   14.10
   9  -5  -2  127.59   15.70
   9   5  -2  128.09   15.20
   8  -5  -2   72.69    9.70
   8  -5  -2   51.29    9.00
   8   5  -2   74.09   10.50
   7  -5  -2   28.80    6.50
   7  -5  -2   10.90    3.90
   7   5  -2   25.90    6.10
   6  -5  -2   52.89    8.50
   6  -5  -2   66.09    8.20
   6   5  -2   58.89    9.00
   5  -5  -2    3.30    2.70
   5  -5  -2   -0.20    2.00
   5   5  -2    4.20    3.00
   4  -5  -2  392.26   23.70
   4  -5  -2  411.66   25.00
  -4  -5   2  366.36   26.80
   3  -5  -2  302.97   19.20
   3  -5  -2  293.27   18.00
  -3  -5   2  297.57   21.30
   2  -5  -2    5.20    1.80
   2  -5  -2    5.90    2.40
  -2  -5   2    5.30    2.40
  -2  -5   2    1.10    2.20
  -1  -5   2  302.07   19.50
  -1  -5   2  307.67   19.70
   1  -5  -2  319.37   19.20
   0  -5   2 2378.86  135.79
   0  -5  -2 2616.74  136.29
   0  -5   2 2635.64  136.89
  -1  -5  -2 3107.69  170.78
   1  -5   2 3179.88  170.38
   1  -5   2 3328.97  171.48
   1   5   2 3188.28  168.88
  -2  -5  -2  388.76   24.10
   2  -5   2  421.76   23.80
   2  -5   2  411.36   24.50
   2   5   2  408.46   22.70
   3  -5   2  213.18   13.20
   3  -5   2  173.38   13.20
  -3  -5  -2  201.58   13.30
   3   5   2  196.68   12.20
   4  -5   2    9.90    2.80
   4  -5   2   10.60    3.00
  -4  -5  -2    9.50    2.90
   4   5   2   13.80    2.70
   5  -5   2   39.50    5.40
   5  -5   2   11.20    3.30
   5   5   2   17.80    3.50
   6  -5   2  230.58   16.10
   6   5   2  217.28   15.50
   7  -5   2   25.70    5.70
  -7  -5  -2   25.10    6.70
   7  -5   2   19.20    5.00
   7   5   2   18.90    4.50
   8  -5   2   82.19   10.40
   8  -5   2   87.09   11.50
  -8  -5  -2  119.49   15.60
   8   5   2   86.89   10.50
   9  -5   2  175.58   18.10
   9  -5   2  178.58   18.10
  -9  -5  -2  210.38   22.30
   9   5   2  176.88   15.20
  10  -5   2    2.70    4.10
 -10  -5  -2   -1.50    4.90
  10  -5   2    9.40    5.00
  10   5   2    2.60    3.90
  11  -5   2    6.60    5.30
 -11  -5  -2    2.20    6.50
  11  -5   2    6.90    4.70
  11   5   2    0.90    3.60
  12  -5   2    2.00    4.70
  12   5   2    1.20    3.90
  13  -5   2   24.40    8.30
  13   5   2   37.90    9.70
  14  -6  -2    5.60    6.70
  14  -6  -2    7.50    7.80
  14   6  -2   11.90    7.50
  13  -6  -2   -4.00    5.40
  13  -6  -2    2.20    5.50
  13   6  -2   15.60    8.20
  12  -6  -2   72.09   12.40
  12  -6  -2  101.09   15.80
  12   6  -2   71.89   13.30
  11  -6  -2  144.89   17.30
  11  -6  -2  160.48   19.90
  11   6  -2  139.49   17.90
  10  -6  -2    6.60    5.80
  10  -6  -2    4.90    4.20
  10   6  -2   10.10    5.70
   9  -6  -2   37.70    7.70
   9  -6  -2   31.70    8.30
   9   6  -2   44.50    9.00
   8  -6  -2   18.70    5.30
   8  -6  -2   18.70    6.50
   8   6  -2   22.30    6.30
   7  -6  -2   45.40    7.30
   7  -6  -2   48.60    8.70
   7   6  -2   49.70    8.60
   6  -6  -2    3.90    3.30
   6  -6  -2   -0.30    2.50
   6   6  -2    1.40    3.00
   5  -6  -2  128.39   12.90
   5  -6  -2  132.69   10.50
  -5  -6   2  155.28   17.20
   5   6  -2  122.09   13.40
  -4  -6   2  112.29   14.30
   4  -6  -2  126.89   12.30
   4  -6  -2  121.29    9.40
   3  -6  -2    9.60    2.60
   3  -6  -2    9.90    3.30
  -3  -6   2    9.00    4.30
  -3  -6   2   11.60    3.90
   2  -6  -2  796.42   45.10
  -2  -6   2  763.72   45.20
   2  -6  -2  790.82   43.20
  -1  -6   2   25.00    4.30
  -1  -6   2   25.00    4.70
   1  -6  -2   28.30    4.50
   0  -6   2  214.08   14.00
   0  -6  -2  240.68   15.00
   0  -6   2  221.78   15.20
   1  -6   2 2059.79  108.29
  -1  -6  -2 1936.51  109.09
   1  -6   2 2051.59  109.79
   2  -6   2 1681.63   90.89
  -2  -6  -2 1622.44   91.69
   2  -6   2 1707.53   92.19
   2   6   2 1712.33   89.79
   3  -6   2 1118.89   60.79
  -3  -6  -2 1105.49   61.49
   3  -6   2 1106.79   61.79
   3   6   2 1074.39   59.79
  -4  -6  -2   16.90    4.00
   4  -6   2   23.50    4.20
   4  -6   2   25.40    4.90
   4   6   2   19.40    3.50
   5  -6   2    5.20    2.70
   5  -6   2    9.00    3.20
  -5  -6  -2   13.00    3.80
   5   6   2    8.50    2.70
   6  -6   2   58.69    8.00
  -6  -6  -2   72.49    9.10
   6  -6   2   71.89    8.70
   6   6   2   49.99    6.90
   7  -6   2   42.30    7.40
  -7  -6  -2   43.10    9.70
   7   6   2   42.60    6.60
   8  -6   2   18.90    5.20
  -8  -6  -2   19.40    7.20
   8   6   2   17.00    4.60
   9  -6   2   12.20    5.00
  -9  -6  -2    8.50    7.00
   9  -6   2   16.20    5.70
   9   6   2    6.60    4.10
  10  -6   2   12.20    5.40
 -10  -6  -2    5.00    7.00
  10  -6   2   16.30    5.60
  10   6   2   12.80    5.20
 -11  -6  -2   67.69   14.60
  11  -6   2   71.19   11.70
  11  -6   2   92.09   13.50
  11   6   2   70.09   11.20
  12  -6   2   25.40    7.70
  12   6   2   23.80    7.80
  13  -6   2   73.29   12.70
  13   6   2   60.49   11.70
  13  -7  -2   35.50   10.40
  13  -7  -2   23.90   10.10
  13   7  -2   18.40    8.60
  12  -7  -2  468.05   34.00
  12  -7  -2  457.55   35.90
  12   7  -2  456.85   35.00
  11  -7  -2   22.00    8.70
  11  -7  -2   11.20    6.40
  11   7  -2   18.80    7.30
  10  -7  -2   29.20    8.60
  10  -7  -2   20.90    6.60
  10   7  -2   27.60    7.70
   9  -7  -2    0.90    4.40
   9  -7  -2   15.60    6.30
   9   7  -2    0.00    4.30
   8  -7  -2   74.89   11.20
   8  -7  -2   59.19    8.70
   8   7  -2   56.49    9.80
   7  -7  -2  340.87   20.50
   7  -7  -2  298.57   21.70
   7   7  -2  196.08   19.50
  -6  -7   2  851.81   53.59
   6  -7  -2  813.32   48.10
   6  -7  -2  771.02   49.60
   6   7  -2  888.21   50.89
  -5  -7   2  301.47   24.80
   5  -7  -2  324.77   20.70
   5  -7  -2  320.07   22.20
   4  -7  -2    3.10    2.80
   4  -7  -2    4.10    2.30
  -4  -7   2    9.80    3.90
  -4  -7   2    6.20    4.60
   3  -7  -2  353.56   23.80
  -3  -7   2  362.36   24.90
  -3  -7   2  394.76   24.70
   3  -7  -2  369.76   22.00
  -2  -7   2  182.78   13.30
   2  -7  -2  174.78   11.30
   2  -7  -2  165.48   13.10
  -2  -7   2  195.08   13.90
  -1  -7   2   47.50    6.20
  -1  -7   2   44.00    6.20
   1  -7  -2   47.60    6.20
   0  -7   2  468.35   27.50
   0  -7   2  473.45   29.40
   0  -7  -2  507.75   29.20
   1  -7   2  160.38   10.50
   1  -7   2  157.88   12.10
  -1  -7  -2  151.98   11.60
   2  -7   2  275.07   19.40
  -2  -7  -2  283.47   19.10
   2  -7   2  299.77   18.00
   2   7   2  306.57   17.10
   3  -7   2   64.59    8.10
   3  -7   2   81.09    6.60
  -3  -7  -2   54.09    7.30
   3   7   2   75.89    5.90
   4  -7   2  131.39   12.30
  -4  -7  -2   91.29   10.20
   4  -7   2  110.49    8.90
   4   7   2  109.19    8.40
  -5  -7  -2   44.80    6.90
   5  -7   2   43.60    6.40
   5  -7   2   50.09    7.40
   5   7   2   49.99    6.30
   6  -7   2  222.78   15.90
  -6  -7  -2  217.38   16.70
   6  -7   2  204.18   16.40
   6   7   2  209.18   15.30
   7  -7   2   28.10    6.20
  -7  -7  -2   18.00    5.50
   7  -7   2   18.70    5.00
   7   7   2   19.00    4.60
   8  -7   2   54.59    9.10
  -8  -7  -2   48.30   11.50
   8  -7   2   46.30    7.80
   8   7   2   21.90    5.60
  -9  -7  -2  168.28   20.90
   9  -7   2  189.88   16.10
   9   7   2  171.08   15.30
  10  -7   2    4.10    4.90
 -10  -7  -2    9.30    7.40
  10  -7   2    9.70    5.00
  10   7   2    8.30    4.70
  11  -7   2   18.60    6.70
 -11  -7  -2   13.40    8.60
  11  -7   2   10.10    5.90
  11   7   2   17.60    6.80
 -12  -7  -2   74.49   15.70
  12  -7   2  103.89   15.20
  12   7   2  132.99   16.50
  13  -7   2   25.20    8.60
  13   7   2   14.00    6.80
  13  -8  -2    6.70    7.50
  13  -8  -2    3.30    5.90
  13   8  -2    4.80    6.60
  12  -8  -2   44.30   10.00
  12  -8  -2   34.00   11.10
  12   8  -2   43.30   10.30
  11  -8  -2   36.70   10.50
  11  -8  -2   41.00    9.40
  11   8  -2   50.09   11.10
  10  -8  -2   66.59   12.60
  10  -8  -2   44.10    9.50
  10   8  -2   37.00    9.30
   9  -8  -2    5.90    4.90
   9  -8  -2    6.50    4.80
   9   8  -2    2.30    4.80
   8  -8  -2   30.00    7.80
   8  -8  -2   28.40    6.50
  -7  -8   2  168.58   22.10
   7  -8  -2  162.58   13.50
   7  -8  -2  137.49   15.90
  -6  -8   2 1287.27   75.99
   6  -8  -2 1138.49   70.99
   6  -8  -2 1261.87   69.39
   5  -8  -2  121.19   13.20
  -5  -8   2   95.09   15.30
   5  -8  -2  120.39   10.40
  -5  -8   2  122.69   13.60
   4  -8  -2   -1.40    2.00
  -4  -8   2    9.40    5.00
  -4  -8   2    1.70    2.90
   4  -8  -2    4.00    3.00
   3  -8  -2  108.59   11.30
  -3  -8   2  110.89   11.80
   3  -8  -2   98.29    8.00
  -3  -8   2  104.79   11.40
   2  -8  -2   49.00    7.10
   2  -8  -2   59.19    5.20
  -2  -8   2   67.59    7.90
  -2  -8   2   65.79    8.60
  -1  -8   2 1401.06   75.89
  -1  -8   2 1375.86   77.79
   1  -8  -2 1375.26   77.39
   0  -8  -2  449.56   28.00
   0  -8   2  452.45   28.40
   0  -8   2  454.75   26.10
   1  -8   2  551.64   32.30
   1  -8   2  584.04   34.90
  -1  -8  -2  592.24   34.50
   2  -8   2  140.29   11.90
  -2  -8  -2  142.79   11.50
   2  -8   2  149.88   10.20
  -3  -8  -2    4.90    2.40
   3  -8   2    2.30    1.90
   3  -8   2    1.40    2.10
   3   8   2   -1.00    1.50
  -4  -8  -2   93.29   10.40
   4  -8   2   96.79   11.10
   4  -8   2   93.79    8.40
   4   8   2  107.39    8.20
   5  -8   2   44.50    7.50
   5  -8   2   36.70    5.80
  -5  -8  -2   29.00    5.80
   5   8   2   24.10    4.50
  -6  -8  -2   79.89   10.60
   6  -8   2   81.19    9.50
   6  -8   2   72.69   10.10
   6   8   2   79.89    9.20
   7  -8   2   77.99    9.80
   7  -8   2   85.19   11.40
  -7  -8  -2   63.39   10.20
   7   8   2   90.29   10.40
  -8  -8  -2  564.54   36.40
   8  -8   2  540.75   34.90
   8  -8   2  549.15   36.50
   8   8   2  534.65   34.70
   9  -8   2   22.20    7.20
   9  -8   2   27.30    6.80
  -9  -8  -2   25.00    9.90
  -9  -8  -2   40.10    9.00
  10  -8   2   38.70    9.70
 -10  -8  -2   84.19   16.50
  10  -8   2   81.29   11.50
 -10  -8  -2   52.59   10.50
  10   8   2   60.49   10.20
  11  -8   2   28.60    7.60
  11  -8   2    2.30    4.00
 -11  -8  -2   19.80    9.80
  11   8   2   32.90    8.00
 -12  -8  -2    4.50    8.70
  12  -8   2    9.50    7.30
  12  -8   2    6.70    5.90
  12   8   2    1.20    4.70
  13  -9  -2   16.20    8.70
  13  -9  -2   27.30   10.30
  13   9  -2   23.60    9.20
  12  -9  -2   -0.10    5.30
  12  -9  -2    5.50    6.80
  12   9  -2    0.70    6.20
  11  -9  -2    7.10    6.20
  11  -9  -2   18.90    7.20
  11   9  -2   13.40    6.70
  10  -9  -2   69.69   13.30
  10  -9  -2   61.89   11.10
  10   9  -2   64.29   11.70
  -9  -9   2   78.29   17.10
   9  -9  -2  101.09   13.10
   9  -9  -2   83.59   14.30
   8  -9  -2   28.10    7.10
   8  -9  -2   40.20    9.30
  -8  -9   2   30.30   11.10
   7  -9  -2   16.50    5.20
  -7  -9   2   19.50    8.80
   7  -9  -2    5.20    4.50
   6  -9  -2   21.10    6.10
   6  -9  -2   24.20    5.90
  -6  -9   2   54.99    9.70
  -6  -9   2    9.60    8.00
   5  -9  -2  272.57   19.50
  -5  -9   2  259.77   19.80
  -5  -9   2  191.38   22.90
   5  -9  -2  231.88   16.80
   4  -9  -2  221.38   14.80
  -4  -9   2  237.38   17.90
   4  -9  -2  215.28   17.10
  -4  -9   2  180.88   19.40
   3  -9  -2   24.10    5.40
  -3  -9   2   30.70    6.00
  -3  -9   2   34.70    6.30
   3  -9  -2   24.30    4.00
   2  -9  -2  291.87   20.20
   2  -9  -2  265.17   16.90
  -2  -9   2  291.67   20.40
  -2  -9   2  309.37   19.20
  -1  -9   2  204.48   15.70
  -1  -9   2  201.88   13.20
   1  -9  -2  193.78   15.10
   0  -9   2  157.58   10.50
   0  -9  -2  155.28   12.70
   0  -9   2  163.88   13.20
   1  -9   2   91.89   10.50
  -1  -9  -2  116.49   11.00
   1  -9   2  104.59    7.70
  -2  -9  -2   86.79    9.90
   2  -9   2  100.49   11.00
   2  -9   2  115.19    8.30
   3  -9   2  156.88   13.20
  -3  -9  -2  152.58   12.80
  -3  -9  -2  146.49   12.40
   3  -9   2  159.18   11.20
   3   9   2  154.68   10.90
  -4  -9  -2  125.59   12.80
   4  -9   2  115.59    9.50
   4  -9   2  135.19   13.70
   4   9   2  109.89    9.30
  -5  -9  -2   51.69    8.20
   5  -9   2   70.49    9.70
   5  -9   2   59.79    7.70
   5   9   2   61.39    7.70
  -6  -9  -2   51.69    8.80
   6  -9   2   79.09   10.70
   6  -9   2   67.79    8.70
   6   9   2   62.19    8.20
   7  -9   2   22.40    6.50
  -7  -9  -2    0.20    3.50
   7  -9   2   17.10    5.20
   7   9   2    5.80    3.50
  -8  -9  -2  468.45   32.60
   8  -9   2  501.25   33.60
   8  -9   2  461.75   31.20
   8   9   2  470.45   31.20
  -9  -9  -2  250.37   21.90
   9  -9   2  281.27   23.00
  -9  -9  -2  323.17   32.30
   9  -9   2  247.08   20.70
   9   9   2  271.17   20.90
  10  -9   2    4.00    4.70
  10  -9   2    2.00    5.00
 -10  -9  -2   -1.10    6.60
 -10  -9  -2    6.00    5.30
  10   9   2    4.20    3.30
  11  -9   2  109.99   16.20
 -11  -9  -2   82.59   17.30
  11  -9   2   69.89   12.00
  11   9   2   97.59   13.80
  12  -9   2   94.59   15.00
 -12  -9  -2  118.69   20.60
  12   9   2   86.89   14.30
 -12 -10   2   44.40   16.80
  12 -10  -2   36.90    9.50
  12 -10  -2   48.30   12.70
  11 -10  -2    5.10    5.60
 -11 -10   2   -2.10    9.10
  11 -10  -2    1.40    5.80
 -10 -10   2    5.20    9.40
  10 -10  -2    2.40    5.70
  10 -10  -2    9.80    5.70
  -9 -10   2    8.60    6.20
   9 -10  -2    2.40    3.70
  -9 -10   2    7.00    7.70
   9 -10  -2    1.70    4.60
   8 -10  -2  235.48   18.50
   8 -10  -2  258.77   24.90
  -8 -10   2  234.18   24.20
  -8 -10   2  201.38   27.20
   7 -10  -2   16.90    6.60
  -7 -10   2   10.50    8.40
  -7 -10   2    7.40    5.40
   7 -10  -2    4.80    4.30
  -6 -10   2   29.10    9.50
   6 -10  -2   14.70    4.90
  -6 -10   2   18.80    6.50
   6 -10  -2   17.70    6.20
  -5 -10   2  111.69   15.80
  -5 -10   2  131.19   15.30
   5 -10  -2  130.59   15.10
   5 -10  -2  150.48   11.60
  -4 -10   2  200.58   16.50
  -4 -10   2  149.09   16.30
   4 -10  -2  192.58   16.10
   4 -10  -2  191.48   13.30
   3 -10  -2   22.60    5.80
  -3 -10   2   34.50    7.00
  -3 -10   2   29.50    5.90
   3 -10  -2   31.60    4.50
   2 -10  -2  649.83   37.60
  -2 -10   2  708.63   39.60
  -2 -10   2  706.93   42.10
   2 -10  -2  663.63   41.50
  -1 -10   2  133.39    9.70
   1 -10  -2  153.18   12.70
  -1 -10   2  143.19   14.60
   0 -10  -2   19.50    5.10
   0 -10   2   22.80    5.30
   0 -10   2   21.60    3.30
   1 -10   2  442.46   25.30
   1 -10   2  425.06   28.50
  -1 -10  -2  431.36   28.10
   2 -10   2   93.39    7.50
   2 -10   2  100.99   11.30
  -2 -10  -2   73.09    9.60
  -3 -10  -2   38.60    6.60
   3 -10   2   30.80    4.90
  -3 -10  -2   35.00    5.50
   3 -10   2   41.30    7.50
  -4 -10  -2   67.09    9.60
  -4 -10  -2   58.79   10.00
   4 -10   2   81.99   11.00
   4 -10   2   91.59    8.90
   4  10   2   88.69    9.00
  -5 -10  -2  855.31   53.39
   5 -10   2  877.41   51.39
   5 -10   2  955.90   54.79
   5  10   2  900.11   51.99
   6 -10   2   15.90    5.70
   6 -10   2   15.50    4.90
  -6 -10  -2   17.70    5.30
   6  10   2   24.70    5.40
   7 -10   2   98.79   13.80
   7 -10   2  116.49   12.70
  -7 -10  -2   91.79   12.70
   7  10   2   90.29   11.30
   8 -10   2    8.60    5.90
  -8 -10  -2   17.90    6.60
   8 -10   2   17.00    5.50
   8  10   2   16.60    5.30
   9 -10   2  117.99   14.50
  -9 -10  -2  100.69   14.50
   9 -10   2  135.09   17.10
   9  10   2  122.99   14.80
 -10 -10  -2   78.69   16.40
  10 -10   2  101.69   16.20
  10 -10   2  117.59   15.10
 -10 -10  -2   92.29   14.60
  10  10   2   85.69   13.00
  11 -10   2   -0.80    5.90
  11 -10   2   11.30    6.20
 -11 -10  -2   -5.60    7.20
  11  10   2    7.70    5.20
  12 -10   2   13.40    6.90
  12 -10   2    0.10    5.80
 -12 -10  -2   -2.40    8.80
  12 -11  -2    1.60    6.40
  12 -11  -2   -4.30    6.50
 -12 -11   2   -4.40    6.60
 -12 -11   2   -6.20   10.40
  11 -11  -2    5.30    5.70
 -11 -11   2    1.40    6.60
 -11 -11   2    0.80    8.80
  11 -11  -2    1.20    5.10
  10 -11  -2  175.08   21.80
 -10 -11   2  108.89   22.70
 -10 -11   2  109.59   17.50
  10 -11  -2  110.09   15.00
   9 -11  -2  326.17   24.60
   9 -11  -2  322.87   31.80
  -9 -11   2  321.17   37.10
  -9 -11   2  342.17   28.50
   8 -11  -2    1.30    4.20
   8 -11  -2    0.40    3.90
  -8 -11   2   -2.10    4.70
  -8 -11   2   -2.10    7.50
   7 -11  -2  329.47   22.70
   7 -11  -2  311.57   25.30
  -7 -11   2  372.36   26.80
  -7 -11   2  234.18   29.50
  -6 -11   2   62.89   11.20
   6 -11  -2   55.79    7.90
  -6 -11   2   24.80    9.80
   6 -11  -2   53.19   10.20
  -5 -11   2  108.09   14.10
   5 -11  -2  102.79   13.30
   5 -11  -2  102.19   10.90
  -5 -11   2  110.19   13.70
   4 -11  -2    0.90    3.40
  -4 -11   2    3.20    3.90
  -4 -11   2    9.50    4.80
   4 -11  -2    2.90    2.90
  -3 -11   2   21.40    5.90
   3 -11  -2    9.60    4.60
  -3 -11   2   22.40    5.40
   3 -11  -2    5.60    3.20
  -2 -11   2  644.24   41.50
   2 -11  -2  681.23   41.50
  -2 -11   2  659.73   37.90
  -1 -11   2   29.30    6.30
  -1 -11   2   31.40    4.10
   1 -11  -2   36.40    7.00
   0 -11   2   85.09   11.10
   0 -11   2   90.09    6.80
   0 -11  -2   80.59   10.40
  -1 -11  -2  190.98   15.60
   1 -11   2  195.18   12.60
   1 -11   2  192.78   16.00
   2 -11   2  145.09   15.50
   2 -11   2  174.28   12.00
  -2 -11  -2  203.38   15.30
   3 -11   2    3.70    3.80
   3 -11   2    4.60    2.70
  -3 -11  -2    2.80    3.50
  -4 -11  -2  365.96   26.70
   4 -11   2  400.96   24.60
   4 -11   2  406.96   28.10
  -5 -11  -2  367.46   26.90
   5 -11   2  379.36   24.60
   5 -11   2  398.76   28.10
   6 -11   2  641.34   38.90
   6 -11   2  646.34   42.10
  -6 -11  -2  628.44   41.20
  -7 -11  -2  111.59   14.70
   7 -11   2  146.69   17.20
   7 -11   2  130.79   13.80
   8 -11   2   56.39   11.50
   8 -11   2   70.79   10.30
  -8 -11  -2   48.40    9.90
   9 -11   2   35.70    8.30
  -9 -11  -2   51.59   10.20
   9 -11   2   27.30    9.40
 -10 -11  -2    7.80    7.90
 -10 -11  -2    4.90    6.90
  10 -11   2    6.70    6.80
  10 -11   2    7.10    5.80
  11 -11   2   24.40    7.80
 -11 -11  -2   24.00   11.10
  11 -11   2   28.00    9.80
 -11 -12   2   63.79   12.90
  11 -12  -2   51.99   13.80
  11 -12  -2   34.40    9.60
 -10 -12   2  199.58   23.40
  10 -12  -2  186.38   23.80
  10 -12  -2  163.18   18.90
   9 -12  -2   39.80   11.30
   9 -12  -2   32.00    8.20
  -9 -12   2   50.89   11.80
   8 -12  -2  174.58   20.90
   8 -12  -2  174.58   17.00
  -8 -12   2  144.59   18.90
  -7 -12   2    3.70    9.50
   7 -12  -2   25.80    7.90
  -7 -12   2   23.30    7.50
   7 -12  -2   16.80    5.20
  -6 -12   2   61.59   11.10
   6 -12  -2   77.49   12.20
  -6 -12   2   72.09   14.70
   6 -12  -2   57.49    8.20
  -5 -12   2   22.20    7.50
   5 -12  -2    7.80    5.20
  -5 -12   2   17.40    6.80
   5 -12  -2   11.30    4.10
   4 -12  -2   39.90    8.40
  -4 -12   2   32.20    7.10
   4 -12  -2   43.10    6.10
  -4 -12   2   28.20    7.10
   3 -12  -2   29.80    7.10
  -3 -12   2   35.70    6.20
  -3 -12   2   31.80    7.10
   2 -12  -2  138.79   15.20
  -2 -12   2  135.79    9.50
  -2 -12   2  114.89   14.00
  -1 -12   2   86.89   11.60
   1 -12  -2   91.29   11.70
  -1 -12   2   85.99    6.70
   0 -12  -2  144.69   15.30
   0 -12   2  153.68   15.80
   0 -12   2  158.18   10.30
   1 -12   2  150.08   15.90
  -1 -12  -2  157.68   15.90
   1 -12   2  165.88   11.00
   2 -12   2   54.79    6.10
   2 -12   2   47.10    8.60
  -2 -12  -2   48.80    8.10
   3 -12   2    8.10    3.10
  -3 -12  -2    4.70    3.80
   3 -12   2    8.40    4.70
   4 -12   2   16.00    6.00
  -4 -12  -2    5.70    4.20
   4 -12   2    6.00    3.00
  -5 -12  -2  443.86   31.80
   5 -12   2  483.05   29.50
   5 -12   2  470.65   33.10
   6 -12   2   45.70    7.60
  -6 -12  -2   33.10    7.60
   6 -12   2   47.30    9.80
   7 -12   2   20.40    5.60
  -7 -12  -2   26.90    7.50
   7 -12   2   30.50    8.80
   8 -12   2   34.40    8.00
   8 -12   2   42.40   10.30
  -8 -12  -2   41.20    9.20
  -9 -12  -2    2.30    5.40
   9 -12   2    2.80    5.10
   9 -12   2   -3.70    4.50
 -10 -12  -2    6.80    8.50
  10 -12   2   19.50    7.20
  10 -12   2   31.10   10.20
  11 -12   2    7.90    6.50
 -11 -12  -2   17.00   10.70
  11 -12   2   35.50   11.30
  11 -13  -2   69.79   16.30
  11 -13  -2   67.29   12.70
 -11 -13   2   67.69   14.90
  10 -13  -2   24.10    8.30
  10 -13  -2   44.60   12.70
 -10 -13   2   27.70    9.80
   9 -13  -2  760.52   49.40
  -9 -13   2  775.02   53.39
   9 -13  -2  852.71   55.39
   8 -13  -2  193.08   19.40
  -8 -13   2  224.68   24.80
   8 -13  -2  245.58   26.50
  -7 -13   2   19.20    7.00
   7 -13  -2   15.00    5.60
   7 -13  -2   15.10    7.30
  -6 -13   2   71.29   12.90
   6 -13  -2   80.79   13.60
  -5 -13   2    8.80    5.70
   5 -13  -2    8.30    5.40
  -4 -13   2   81.19   12.70
   4 -13  -2   96.19   13.70
  -3 -13   2  116.89   14.30
   3 -13  -2  100.89   13.40
   2 -13  -2  148.19   16.10
  -2 -13   2  159.48   16.70
  -1 -13   2   66.29   10.10
   1 -13  -2   78.79   11.20
   0 -13   2   22.70    6.30
   0 -13  -2   28.90    6.50
   1 -13   2    4.40    3.90
  -1 -13  -2   11.90    4.60
   2 -13   2   22.80    4.60
  -2 -13  -2   17.20    5.60
   2 -13   2   28.60    6.90
   3 -13   2  342.07   25.80
   3 -13   2  332.97   21.40
  -3 -13  -2  358.26   25.30
  -4 -13  -2    7.40    4.50
   4 -13   2   12.80    4.10
   4 -13   2    7.80    5.70
   5 -13   2  185.38   14.20
   5 -13   2  189.48   20.40
  -5 -13  -2  151.68   17.80
   6 -13   2  240.28   24.60
  -6 -13  -2  196.58   21.20
   6 -13   2  215.38   16.70
   7 -13   2    8.60    6.50
   7 -13   2    6.10    4.30
  -7 -13  -2    9.40    5.70
   8 -13   2    3.70    5.80
   8 -13   2    3.90    4.30
  -8 -13  -2    5.60    5.40
  -9 -13  -2    1.70    4.90
   9 -13   2   -4.70    5.10
   9 -13   2    2.90    4.30
  10 -13   2   11.20    6.60
  10 -13   2   22.60   10.30
 -10 -13  -2    6.80    9.30
  10 -14  -2   11.50    9.30
 -10 -14   2   11.20    8.50
  -9 -14   2   33.60   10.60
   9 -14  -2   27.30   10.70
  -8 -14   2   25.60    9.50
   8 -14  -2   29.70   10.40
  -7 -14   2   71.89   13.90
   7 -14  -2   64.99   13.80
  -6 -14   2   27.40    8.60
   6 -14  -2   24.00    8.50
  -5 -14   2   48.90   10.20
   5 -14  -2   47.90   10.40
  -4 -14   2    8.50    5.90
   4 -14  -2    9.80    6.10
  -3 -14   2  886.51   54.69
   3 -14  -2  844.22   54.69
   2 -14  -2  170.98   18.50
  -2 -14   2  199.58   19.80
  -1 -14   2   27.10    6.90
   1 -14  -2   16.70    6.40
   0 -14  -2   34.80    7.60
   0 -14   2   29.80    7.40
   1 -14   2   20.20    6.80
  -1 -14  -2   32.50    7.90
   2 -14   2   46.90    9.70
  -2 -14  -2   53.79    9.50
  -3 -14  -2   19.40    7.00
   3 -14   2   10.60    6.50
   4 -14   2   28.70    8.30
  -4 -14  -2   24.00    7.20
   5 -14   2  293.47   27.50
  -5 -14  -2  250.17   21.90
   6 -14   2  102.89   15.80
  -6 -14  -2   87.09   13.40
   7 -14   2  162.48   16.60
   7 -14   2  236.18   24.90
  -7 -14  -2  160.38   19.40
  -8 -14  -2    4.50    5.70
   8 -14   2   -0.40    4.10
   8 -14   2    0.50    7.00
  -9 -14  -2    0.50    5.80
   9 -14   2    8.50    8.20
   9 -14   2    1.50    5.00
  10 -14   2   -0.40    5.40
  -9 -15   2    7.50    7.30
   9 -15  -2   11.10    8.70
   8 -15  -2   57.09   13.60
  -8 -15   2   53.89   13.00
  -7 -15   2   94.49   15.60
   7 -15  -2  129.09   19.90
   6 -15  -2    3.00    6.30
  -6 -15   2    2.30    5.00
   5 -15  -2    6.70    5.90
  -5 -15   2   15.60    7.30
   4 -15  -2   70.69   12.70
  -4 -15   2   50.29   10.70
  -3 -15   2  112.89   15.30
   3 -15  -2  115.99   16.30
  -2 -15   2   64.99   11.50
   2 -15  -2   65.09   11.20
   1 -15  -2  108.19   14.60
  -1 -15   2  122.49   15.90
   0 -15  -2   82.49   12.20
   0 -15   2  104.39   13.80
  -1 -15  -2    0.60    3.90
   1 -15   2    0.90    4.00
   2 -15   2   54.39   11.10
  -2 -15  -2   61.79   10.50
   3 -15   2   87.39   14.00
  -3 -15  -2   76.09   11.90
  -4 -15  -2   15.30    6.40
   4 -15   2   19.30    7.80
  -5 -15  -2  103.59   15.20
   5 -15   2  127.79   17.60
   6 -15   2  225.08   25.00
  -6 -15  -2  158.98   19.30
   7 -15   2   -1.40    6.90
  -7 -15  -2    6.10    6.20
   8 -15   2   42.50   12.30
  -8 -15  -2   30.50    9.80
  -9 -15  -2    4.80    6.20
   9 -15   2   18.80   10.80
   8 -16  -2   22.10   10.20
  -8 -16   2   17.30    8.80
   7 -16  -2   47.50   12.90
  -7 -16   2   56.19   12.20
  -6 -16   2    2.70    6.00
   6 -16  -2    8.50    6.70
   5 -16  -2   44.50   10.80
  -5 -16   2   33.70    9.80
  -4 -16   2  106.49   15.50
   4 -16  -2   99.89   14.90
  -3 -16   2   22.30    8.00
   3 -16  -2    7.80    6.90
   2 -16  -2  111.59   15.20
  -2 -16   2  119.49   15.70
   1 -16  -2  634.64   43.50
  -1 -16   2  660.73   43.70
   0 -16  -2   54.59   10.50
   0 -16   2   46.00    9.80
   1 -16   2   18.70    7.70
  -1 -16  -2   30.30    8.00
  -2 -16  -2    4.90    4.90
   2 -16   2   14.70    7.10
   3 -16   2  147.19   18.40
  -3 -16  -2  132.79   16.90
   4 -16   2   13.70    7.50
  -4 -16  -2   16.70    7.30
   5 -16   2   59.79   12.40
  -5 -16  -2   49.70   10.90
  -6 -16  -2   14.10    7.00
   6 -16   2   10.70    7.60
   7 -16   2   34.90   11.20
  -7 -16  -2   18.20    8.30
   8 -16   2   21.80   11.00
  -8 -16  -2   11.60    7.20
   7 -17  -2   41.90   12.50
  -7 -17   2   46.60   12.70
  -6 -17   2   54.39   12.20
   6 -17  -2   34.20   10.30
   5 -17  -2   18.90    8.50
  -5 -17   2    8.50    6.60
   4 -17  -2    6.20    6.40
  -4 -17   2    4.60    6.10
   3 -17  -2   33.50    9.80
  -3 -17   2   25.20    8.40
   2 -17  -2  200.48   22.10
  -2 -17   2  173.68   20.10
  -1 -17   2   31.60    9.10
   1 -17  -2   33.00   10.00
   0 -17   2  117.49   15.90
   0 -17  -2   89.09   14.00
   1 -17   2    0.10    4.70
  -1 -17  -2    4.80    6.00
   2 -17   2   -3.30    4.40
  -2 -17  -2   -3.70    4.30
   3 -17   2    5.60    6.70
  -3 -17  -2    8.50    6.10
  -4 -17  -2  160.78   19.50
   4 -17   2  178.88   22.10
  -5 -17  -2    6.10    6.20
   5 -17   2    9.90    8.10
   6 -17   2    9.70    7.60
  -6 -17  -2   36.60    9.80
  -7 -17  -2    1.20    6.10
   7 -17   2    4.20    8.40
  -6 -18   2   99.29   17.20
   6 -18  -2   90.49   17.10
  -5 -18   2    1.80    6.30
   5 -18  -2   -3.60    6.70
   4 -18  -2   47.60   12.60
  -4 -18   2   88.59   15.00
   3 -18  -2   18.20    8.30
  -3 -18   2   27.00    9.50
  -2 -18   2   15.50    7.60
   2 -18  -2   21.90    8.20
   1 -18  -2   11.60    7.50
  -1 -18   2    7.50    6.70
   0 -18   2   15.20    7.40
   0 -18  -2   10.30    6.60
   1 -18   2   37.10    9.90
  -1 -18  -2   11.50    6.90
   2 -18   2   19.90    7.90
  -2 -18  -2   39.10    9.60
   3 -18   2   32.10   10.00
  -3 -18  -2   20.10    8.00
   4 -18   2   13.40    8.50
  -4 -18  -2   11.70    7.60
  -5 -18  -2    3.50    5.90
   5 -18   2   -1.60    6.70
  -4 -19   2    5.70    7.80
   4 -19  -2    1.10    7.20
   3 -19  -2   11.90    7.40
  -3 -19   2   10.80    8.90
  -2 -19   2   47.70   11.80
   2 -19  -2   24.40    9.60
   1 -19  -2    3.10    6.80
  -1 -19   2   22.40    8.40
   0 -19   2  205.88   23.20
   0 -19  -2  241.58   25.60
   1 -19   2   10.70    7.70
  -1 -19  -2   -3.30    5.70
  -2 -19  -2   21.10    8.60
   2 -19   2   38.60   11.10
   3 -19   2   -0.80    5.90
  -3 -19  -2    9.70    7.50
  14   0  -3    2.90    6.00
  13   0  -3   22.70    8.00
  12   0  -3   11.10    6.10
  11   0  -3  874.81   54.89
  10   0  -3   -1.20    3.20
   9   0  -3  287.67   20.90
   9   0  -3  277.97   20.60
  -9   0   3  250.07   17.30
   8   0  -3    6.10    3.70
   8   0  -3   10.20    4.50
   7   0  -3    0.10    2.50
   7   0  -3   -1.40    2.50
   6   0  -3    5.90    2.90
   6   0  -3    1.70    2.80
   5   0  -3 1073.49   59.79
   5   0  -3 1023.80   59.29
   4   0  -3    3.20    2.70
   4   0  -3    7.30    3.30
   3   0  -3  216.68   15.60
   3   0  -3  246.58   15.30
   2   0  -3    1.50    1.60
  -2   0   3    1.60    2.20
   1   0  -3  570.24   29.50
   1   0  -3  506.95   29.30
  -1   0   3  492.55   30.60
   0   0   3   26.10    4.80
  -1   0  -3 1200.68   67.49
   1   0   3 1296.97   67.89
   2   0   3    6.90    2.00
  -2   0  -3    5.30    2.30
   3   0   3 9443.56  515.05
  -3   0  -3 9773.02  515.25
   3   0   3 9999.00  514.15
  -4   0  -3    6.20    2.80
   4   0   3    4.40    1.70
   4   0   3    4.20    1.90
   5   0   3  101.29    7.60
  -5   0  -3  107.49    9.00
   5   0   3   92.69    8.40
   6   0   3   13.20    3.50
  -6   0  -3   22.90    5.00
   6   0   3   14.50    3.30
   7   0   3  343.47   23.20
  -7   0  -3  354.46   23.10
  -8   0  -3    2.60    3.70
   8   0   3   -1.10    2.50
  -9   0  -3   92.09   11.60
   9   0   3   74.69   10.10
 -10   0  -3    1.30    5.20
  10   0   3    6.20    4.30
  11   0   3    1.00    3.70
  12   0   3    8.10    5.20
  13   0   3   12.80    6.40
  14  -1  -3   52.39   11.90
  14   1  -3   61.39   13.20
  13  -1  -3   -2.20    4.90
  13   1  -3   -2.90    4.00
  12  -1  -3  200.38   22.00
  12   1  -3  215.88   22.50
  11  -1  -3  531.45   33.90
  11  -1  -3  419.66   32.20
  11   1  -3  455.45   33.00
  10  -1  -3   54.49    9.70
  10  -1  -3   66.89   10.80
  10   1  -3   61.19   10.40
   9  -1  -3   18.50    6.30
   9  -1  -3   26.40    6.50
   9   1  -3   28.20    6.90
   8  -1  -3   43.50    7.40
   8  -1  -3   59.49    9.30
   8   1  -3   50.29    8.70
  -8   1   3   50.49    5.00
   7  -1  -3   13.90    4.40
   7  -1  -3    0.20    2.70
   7   1  -3    5.10    3.30
   6  -1  -3  143.29   12.70
   6  -1  -3  158.98   12.70
   6   1  -3  164.58   13.10
   5  -1  -3   28.90    5.10
   5  -1  -3   28.60    5.50
   5   1  -3   39.70    6.50
   4  -1  -3 1079.79   63.39
   4  -1  -3 1170.38   63.59
   4   1  -3 1146.99   63.99
   3  -1  -3 1960.80  110.99
   3  -1  -3 2162.58  111.09
  -3  -1   3 2018.00  112.69
   2  -1  -3  997.70   52.29
  -2  -1   3  966.20   55.19
  -2   1   3  930.81   54.49
   1  -1  -3    8.10    1.70
  -1  -1   3   18.30    3.80
   1  -1  -3   13.70    2.40
  -1   1   3   10.80    2.80
   0  -1   3  584.24   38.80
   0  -1  -3  794.62   37.10
   0  -1  -3  668.43   37.50
   0   1  -3  707.83   37.90
   0   1   3  593.44   38.50
   1  -1   3   10.70    2.40
  -1  -1  -3    2.30    1.80
   1  -1   3    5.60    1.10
  -1   1  -3    4.20    2.00
   1   1   3    3.90    1.60
   2  -1   3  770.12   42.60
  -2  -1  -3  750.32   42.90
   2  -1   3  770.12   41.10
   2   1   3  748.83   42.30
  -2   1  -3  775.52   42.50
   3  -1   3   21.30    3.50
   3  -1   3   19.70    2.50
  -3  -1  -3   25.20    4.50
  -3   1  -3   14.90    3.50
   3   1   3   16.70    3.10
   4  -1   3 2290.57  117.09
   4  -1   3 2212.78  118.29
  -4  -1  -3 2256.97  118.99
   4   1   3 2031.70  117.89
  -4   1  -3 2145.39  117.79
   5  -1   3   35.50    5.40
  -5  -1  -3   36.80    6.10
   5  -1   3   33.00    4.60
   5   1   3   33.20    5.10
  -5   1  -3   39.20    5.50
  -6  -1  -3  399.56   25.10
   6  -1   3  369.66   23.30
   6  -1   3  397.26   24.50
  -6   1  -3  369.66   23.60
   6   1   3  380.26   24.30
  -7  -1  -3   52.99    8.80
   7  -1   3   37.60    5.80
   7  -1   3   38.30    6.40
  -7   1  -3   26.00    5.50
   7   1   3   28.80    6.10
   8  -1   3  177.78   14.20
   8  -1   3  172.38   13.10
  -8  -1  -3  160.98   14.40
  -8   1  -3  162.18   13.20
   8   1   3  154.18   13.50
   9  -1   3  266.07   20.10
   9  -1   3  280.57   19.10
  -9  -1  -3  257.57   20.40
  -9   1  -3  246.48   18.60
   9   1   3  276.77   20.20
  10  -1   3   94.09   12.00
 -10  -1  -3   87.49   13.10
  10   1   3   90.19   12.20
  11  -1   3    5.60    4.90
  11   1   3   11.20    4.80
  12  -1   3   24.80    7.30
  12   1   3   28.80    7.70
  13  -1   3    5.10    5.40
  13   1   3    2.90    5.00
  14  -2  -3   61.09   12.80
  14   2  -3   58.99   12.40
  13  -2  -3   56.39   11.80
  13   2  -3   42.60   10.80
  12  -2  -3  269.07   23.50
  12  -2  -3  325.17   25.00
  12   2  -3  266.17   23.80
  11  -2  -3  267.57   22.60
  11  -2  -3  276.37   23.00
  11   2  -3  297.77   23.80
  10  -2  -3  145.99   15.90
  10  -2  -3  137.79   15.70
  10   2  -3  102.49   14.20
   9  -2  -3  236.48   18.30
   9  -2  -3  226.38   19.00
   9   2  -3  215.08   18.40
   8  -2  -3   87.89   10.80
   8  -2  -3   98.09   12.20
   8   2  -3   81.39   10.70
   7  -2  -3    0.10    3.00
   7  -2  -3    8.60    3.70
   7   2  -3    4.80    3.80
   6  -2  -3   53.29    8.10
   6  -2  -3   50.59    7.20
   6   2  -3   53.59    8.10
   5  -2  -3  133.89   10.80
   5  -2  -3  118.59   12.30
   5   2  -3  137.09   11.60
   4  -2  -3  253.27   17.80
   4  -2  -3  282.87   17.90
   4   2  -3  265.17   18.50
   3  -2  -3 2594.04  127.89
   3  -2  -3 2266.17  129.99
  -3  -2   3 2292.77  132.09
   3  -2  -3 2446.16  130.29
  -2  -2   3  351.56   23.20
   2  -2  -3  362.76   20.10
   2  -2  -3  355.66   21.50
  -2   2   3  357.86   22.20
   1  -2  -3  459.15   25.10
  -1  -2   3  411.16   26.50
   0  -2   3  585.14   35.90
   0  -2  -3  650.93   34.60
   0  -2  -3  681.73   33.90
   0   2   3  528.45   34.90
  -1  -2  -3 2831.12  154.18
  -1  -2  -3 2896.81  155.78
   1  -2   3 3027.50  154.88
   1  -2   3 2912.61  155.88
  -2  -2  -3    3.20    1.00
  -2  -2  -3    2.50    2.00
   2  -2   3    5.10    1.30
   2  -2   3    2.30    1.50
   2   2   3    3.60    1.40
  -2   2  -3    8.10    2.80
  -3  -2  -3  301.17   19.10
   3  -2   3  288.57   18.30
   3  -2   3  285.57   17.20
   3   2   3  308.87   18.10
  -3   2  -3  305.87   18.30
   4  -2   3    6.10    2.00
   4  -2   3   11.00    3.00
  -4  -2  -3   13.90    4.20
  -4   2  -3   10.70    3.30
   4   2   3    8.70    2.50
   5  -2   3  579.14   32.30
   5  -2   3  501.45   30.90
  -5  -2  -3  549.74   32.90
   5   2   3  546.15   31.80
  -5   2  -3  512.05   31.10
   6  -2   3   32.20    5.10
   6  -2   3   32.10    5.40
  -6  -2  -3   35.10    6.90
  -6   2  -3   35.30    5.50
   6   2   3   29.30    5.20
   7  -2   3   39.20    6.40
   7  -2   3   43.00    6.60
  -7  -2  -3   54.99    9.60
   7   2   3   37.60    6.30
  -7   2  -3   44.70    6.70
   8  -2   3   11.10    3.90
  -8  -2  -3   13.00    6.20
   8  -2   3   12.60    4.30
  -8   2  -3   13.20    4.40
   8   2   3    9.30    3.60
  -9  -2  -3   74.09   12.20
   9  -2   3   84.99   11.10
   9  -2   3   99.69   11.10
  -9   2  -3   63.99    9.20
   9   2   3   80.99   10.70
  10  -2   3  123.69   15.20
 -10  -2  -3  143.59   18.00
  10  -2   3  123.69   13.90
  10   2   3  159.58   16.80
  11  -2   3  409.86   29.60
  11   2   3  402.76   29.10
  12  -2   3   55.69   10.80
  12   2   3   73.69   12.10
  13  -2   3    7.10    5.70
  13   2   3    5.20    5.10
  14  -3  -3    5.50    6.20
  14  -3  -3   16.70    8.40
  14   3  -3   -0.20    6.10
  13  -3  -3   88.39   14.80
  13  -3  -3   87.19   14.60
  13   3  -3   76.19   13.70
  12  -3  -3    9.20    6.40
  12  -3  -3   15.30    6.00
  12   3  -3   17.70    7.20
  11  -3  -3   87.09   12.70
  11  -3  -3  128.19   16.50
  11   3  -3  106.09   15.00
  10  -3  -3    8.30    4.70
  10  -3  -3    8.00    4.80
  10   3  -3   14.40    6.00
   9  -3  -3  200.68   16.90
   9  -3  -3  207.38   21.00
   9   3  -3  198.88   17.40
   8  -3  -3  318.07   22.90
   8  -3  -3  267.97   21.10
   8   3  -3  320.77   22.60
   7  -3  -3  310.07   20.90
   7  -3  -3  272.07   21.30
   7   3  -3  305.37   21.80
   6  -3  -3   40.90    7.10
   6  -3  -3   29.20    5.40
   6   3  -3   31.10    6.40
   5  -3  -3  521.85   30.80
   5  -3  -3  468.75   31.20
   5   3  -3  529.25   32.20
  -4  -3   3 2590.44  145.29
   4  -3  -3 2644.14  142.89
   4  -3  -3 2666.93  142.39
  -3  -3   3  320.07   23.60
   3  -3  -3  363.86   21.80
   3  -3  -3  356.96   19.40
   3  -3  -3  331.07   21.40
   2  -3  -3   39.20    4.00
  -2  -3   3   45.90    6.70
   2  -3  -3   33.10    4.50
  -2   3   3   35.90    5.10
   1  -3  -3 1108.49   55.89
  -1  -3   3 1016.30   57.59
  -1   3   3  935.01   55.69
   0  -3  -3  146.79   10.00
   0  -3   3  139.29    9.70
   0  -3  -3  149.59    9.30
   0  -3   3  135.29   10.80
  -1  -3  -3   14.50    3.50
   1  -3   3   11.90    2.80
  -1  -3  -3   10.20    1.80
   1   3   3    9.90    1.90
   2  -3   3  249.08   16.50
   2  -3   3  273.27   16.10
  -2  -3  -3  267.07   17.40
  -2  -3  -3  280.17   15.60
   2   3   3  267.37   15.80
  -3  -3  -3   29.20    3.60
   3  -3   3   26.60    4.20
   3  -3   3   30.60    3.90
  -3  -3  -3   31.70    5.50
   4  -3   3  315.87   19.90
   4  -3   3  320.37   19.20
  -4  -3  -3  304.87   20.80
  -4   3  -3  315.47   19.80
   4   3   3  319.77   19.40
  -5  -3  -3   10.90    4.20
   5  -3   3   10.80    2.90
   5  -3   3   10.70    3.00
   5   3   3   14.80    3.50
  -5   3  -3   17.00    3.90
   6  -3   3    5.50    2.60
   6  -3   3    3.40    2.60
  -6  -3  -3    2.20    3.10
   6   3   3    3.40    2.30
  -6   3  -3    4.50    3.00
  -7  -3  -3  175.88   14.90
   7  -3   3  159.78   12.60
   7  -3   3  152.48   12.90
  -7   3  -3  152.68   12.20
   7   3   3  158.08   12.70
   8  -3   3   16.50    5.00
   8  -3   3   28.70    5.80
  -8  -3  -3   27.50    7.60
  -8   3  -3   17.70    4.90
   8   3   3   24.30    5.40
   9  -3   3  264.47   19.90
  -9  -3  -3  255.37   21.80
   9  -3   3  237.98   19.20
   9   3   3  252.67   19.60
  -9   3  -3  291.57   22.30
  10  -3   3  568.24   38.30
  10  -3   3  596.64   37.90
 -10  -3  -3  606.34   40.70
  10   3   3  597.04   38.30
  11  -3   3  245.38   20.40
 -11  -3  -3  211.48   25.40
  11   3   3  223.18   19.60
  12  -3   3   40.60    9.20
  12   3   3   22.70    7.10
  13  -3   3   32.10    9.50
  13   3   3   45.10   10.30
  14  -4  -3   63.19   13.50
  14  -4  -3   75.19   13.90
  14   4  -3   61.69   13.60
  13  -4  -3    1.90    5.60
  13  -4  -3   -0.70    5.60
  13   4  -3    6.40    6.40
  12  -4  -3   11.10    6.70
  12  -4  -3   12.60    6.40
  12   4  -3   12.50    6.60
  11  -4  -3   22.80    6.80
  11  -4  -3   15.10    7.00
  11   4  -3   23.20    7.60
  10  -4  -3  441.26   30.90
  10  -4  -3  445.56   32.50
  10   4  -3  459.75   32.20
   9  -4  -3   32.40    7.30
   9  -4  -3   41.40    9.10
   9   4  -3   44.10    8.50
   8  -4  -3   46.30    8.70
   8  -4  -3   61.69    9.10
   8   4  -3   59.89    9.90
   7  -4  -3  229.78   17.40
   7  -4  -3  241.78   18.70
   7   4  -3  242.18   18.90
   6  -4  -3   21.50    5.40
   6  -4  -3   17.60    4.20
   6   4  -3   17.60    5.40
   5  -4  -3   14.10    3.90
   5  -4  -3   21.80    4.90
   5   4  -3   18.20    5.10
   4  -4  -3  366.76   23.10
  -4  -4   3  344.17   26.00
   4  -4  -3  380.76   20.60
   4  -4  -3  371.66   23.80
   3  -4  -3   99.09    9.90
  -3  -4   3  123.59   13.10
   3  -4  -3   96.29    8.30
   3  -4  -3  104.19    6.90
   2  -4  -3   41.40    5.20
  -2  -4   3   47.10    7.00
   2  -4  -3   50.89    5.00
  -2   4   3   35.90    5.00
  -1  -4   3    3.50    3.30
  -1  -4   3    5.60    2.20
   1  -4  -3    4.20    2.20
   1  -4  -3    7.10    2.10
  -1   4   3    8.30    2.20
   0  -4  -3    2.30    2.00
   0  -4   3    1.00    1.40
   0  -4  -3    1.00    1.30
   0  -4   3    0.10    2.00
   0   4   3    0.80    1.30
   1  -4   3    8.40    2.70
  -1  -4  -3    9.80    3.00
  -1  -4  -3    6.60    1.80
   1  -4   3    9.30    2.50
   1   4   3    9.40    1.70
  -2  -4  -3    5.60    1.70
   2  -4   3   -0.50    0.60
  -2  -4  -3    0.60    2.20
   2  -4   3    3.40    1.80
   2   4   3    3.10    1.30
  -3  -4  -3   15.10    2.70
   3  -4   3   12.10    2.80
  -3  -4  -3   12.20    4.10
   3  -4   3   14.20    3.20
   3   4   3   20.20    3.00
   4  -4   3  167.58   11.30
  -4  -4  -3  157.48   11.10
   4  -4   3  158.98   11.70
  -4  -4  -3  154.28   12.80
  -5  -4  -3   48.10    8.40
   5  -4   3   55.79    7.10
   5  -4   3   36.40    5.50
   5   4   3   46.60    6.00
  -6  -4  -3  144.69   15.70
   6  -4   3  136.89   11.30
   6  -4   3  119.29   10.50
   6   4   3  136.89   10.70
  -7  -4  -3   -2.60    3.20
   7  -4   3    3.50    2.90
   7  -4   3   -0.20    2.20
   7   4   3    3.80    2.50
   8  -4   3   46.30    7.60
   8  -4   3   56.59    8.50
  -8  -4  -3   53.99   10.20
   8   4   3   31.30    6.30
  -9  -4  -3   20.20    8.10
   9  -4   3   58.39    9.20
   9  -4   3   42.30    8.10
   9   4   3   49.80    8.20
  10  -4   3   46.80    9.10
  10  -4   3   33.00    7.80
 -10  -4  -3   25.30    9.30
  10   4   3   51.69    8.70
 -11  -4  -3   87.69   15.90
  11  -4   3  135.89   16.40
  11   4   3  160.98   17.30
  12  -4   3   37.40    9.20
  12   4   3   55.49   10.50
  13  -4   3   37.40    9.50
  13   4   3   37.30   10.10
  14  -5  -3   76.99   14.70
  14  -5  -3   76.39   15.00
  14   5  -3   49.10   12.30
  13  -5  -3   65.69   12.70
  13  -5  -3   88.59   15.80
  13   5  -3   41.50   10.90
  12  -5  -3   15.20    7.50
  12  -5  -3   27.10    7.80
  12   5  -3    3.60    5.00
  11  -5  -3   23.30    7.50
  11  -5  -3   18.20    7.30
  11   5  -3   27.30    8.20
  10  -5  -3   49.40    9.20
  10  -5  -3   72.59   12.10
  10   5  -3   51.89   10.60
   9  -5  -3   15.00    5.30
   9  -5  -3   10.40    5.60
   9   5  -3   21.70    6.60
   8  -5  -3   33.50    6.70
   8  -5  -3   32.20    7.70
   8   5  -3   33.60    7.90
   7  -5  -3   92.39   12.00
   7  -5  -3   85.19   10.20
   7   5  -3   81.09   11.30
   6  -5  -3   55.89    7.90
   6  -5  -3   89.09   11.10
   6   5  -3   96.69   11.90
   5  -5  -3  423.06   27.80
  -5  -5   3  456.05   31.10
   5  -5  -3  422.06   26.60
   4  -5  -3   51.49    4.30
   4  -5  -3   46.90    6.90
  -4  -5   3   44.90    8.70
   4  -5  -3   48.10    6.30
  -3  -5   3   24.00    5.90
   3  -5  -3   29.10    4.90
   3  -5  -3   19.50    3.70
   2  -5  -3  735.33   41.60
  -2  -5   3  709.93   42.70
   1  -5  -3    3.20    2.00
  -1  -5   3    3.80    2.00
  -1  -5   3    6.60    3.30
  -1   5   3    2.40    1.60
   0  -5   3  895.41   51.29
   0  -5  -3  941.51   50.79
   0  -5   3  907.21   51.39
  -1  -5  -3  182.68   11.90
   1  -5   3  160.08   11.90
   1  -5   3  185.28   12.50
   1   5   3  183.78   10.40
   2  -5   3  199.38   13.30
  -2  -5  -3  204.38   13.00
   2  -5   3  201.68   13.60
   2   5   3  197.58   12.00
   3  -5   3  103.89    8.30
  -3  -5  -3   97.49    7.80
   3   5   3   99.49    7.30
   4  -5   3   48.00    6.80
  -4  -5  -3   90.99    8.10
   4  -5   3   61.89    7.30
  -4  -5  -3   83.19   10.40
   4   5   3   77.19    6.30
   5  -5   3    2.50    2.40
   5  -5   3    8.60    3.10
  -5  -5  -3    4.40    3.70
  -5  -5  -3    7.30    2.80
   5   5   3    0.20    1.00
  -6  -5  -3  458.55   30.70
   6  -5   3  453.45   28.70
   6  -5   3  441.06   28.40
   6   5   3  476.45   28.20
  -7  -5  -3  196.18   17.10
   7  -5   3  187.38   14.70
   7  -5   3  186.78   14.60
   7   5   3  168.08   13.80
  -8  -5  -3  255.47   22.10
   8  -5   3  270.37   20.20
   8  -5   3  273.47   20.30
   8   5   3  298.37   20.10
   9  -5   3    7.20    4.20
   9  -5   3   19.30    5.80
  -9  -5  -3   23.10    8.00
   9   5   3   10.10    4.20
 -10  -5  -3   42.00   10.90
  10  -5   3   38.70    8.60
  10  -5   3   37.60    8.00
  10   5   3   59.49    9.80
 -11  -5  -3  184.98   25.00
  11  -5   3  246.58   20.90
  11   5   3  259.07   20.60
  12  -5   3   10.80    6.70
  12   5   3    3.90    4.50
  13  -5   3   56.19   12.00
  14  -6  -3   38.60   11.80
  14  -6  -3   56.49   13.00
  14   6  -3   41.20   11.70
  13  -6  -3    3.60    6.40
  13  -6  -3   18.70    9.20
  13   6  -3    7.00    6.90
  12  -6  -3  100.19   15.30
  12  -6  -3  122.99   17.70
  12   6  -3  104.19   16.00
  11  -6  -3    5.10    5.20
  11  -6  -3    3.00    5.60
  11   6  -3   13.50    7.00
  10  -6  -3   -3.50    3.00
  10  -6  -3    2.80    4.30
  10   6  -3    1.80    3.90
   9  -6  -3  138.09   17.00
   9  -6  -3  141.59   16.00
   9   6  -3  166.08   18.00
   8  -6  -3  791.92   50.79
   8  -6  -3  874.41   53.39
   8   6  -3  918.31   53.59
   7  -6  -3   81.89    9.90
   7  -6  -3   57.59    9.80
   7   6  -3   76.19   11.10
   6  -6  -3  764.12   46.80
  -6  -6   3  732.33   50.09
   6  -6  -3  790.02   45.30
   5  -6  -3  171.98   10.90
  -5  -6   3  237.98   23.20
   5  -6  -3  193.78   13.60
   5  -6  -3  170.28   14.30
   4  -6  -3   16.20    4.30
   4  -6  -3   12.30    3.60
  -4  -6   3   17.10    5.70
   3  -6  -3  593.94   34.50
  -3  -6   3  631.54   37.90
   3  -6  -3  575.74   35.60
  -2  -6   3    3.00    2.20
   2  -6  -3    1.80    1.90
  -2  -6   3    8.00    3.40
  -1  -6   3   36.60    5.50
  -1  -6   3   38.90    6.60
   1  -6  -3   28.10    4.60
  -1   6   3   28.50    3.40
   0  -6  -3  681.73   38.70
   0  -6   3  687.43   38.70
   0  -6   3  653.03   39.20
  -1  -6  -3  307.47   19.50
   1  -6   3  303.47   19.30
   1  -6   3  336.57   20.40
   1   6   3  316.07   17.40
  -2  -6  -3   27.20    4.20
   2  -6   3   17.10    3.80
   2  -6   3   21.20    3.80
   2   6   3   25.40    2.90
   3  -6   3   45.20    6.30
   3  -6   3   46.10    5.80
  -3  -6  -3   50.19    6.00
   3   6   3   52.19    5.10
  -4  -6  -3  323.67   20.40
   4  -6   3  301.67   20.60
   4  -6   3  315.57   20.30
   4   6   3  328.07   19.40
   5  -6   3  475.95   28.80
  -5  -6  -3  454.75   28.50
  -5  -6  -3  469.85   30.60
   5   6   3  461.05   27.80
  -6  -6  -3 1411.56   81.49
  -6  -6  -3 1388.56   79.19
   6  -6   3 1497.65   79.59
   6  -6   3 1359.46   79.19
  -7  -6  -3   25.40    6.00
  -7  -6  -3   28.70    8.10
   7  -6   3   44.20    7.30
   7  -6   3   30.00    6.10
   7   6   3   43.20    6.70
   8  -6   3   19.90    5.70
   8  -6   3   13.40    4.50
  -8  -6  -3   25.20    8.60
   8   6   3   19.80    4.80
   9  -6   3  141.59   15.10
  -9  -6  -3  138.59   19.00
   9  -6   3  142.69   15.90
   9   6   3  125.49   13.90
 -10  -6  -3   29.60    9.20
  10  -6   3   42.20    8.80
  10  -6   3   28.00    7.60
  10   6   3   39.50    7.70
 -11  -6  -3   15.50    9.10
  11  -6   3    2.40    6.40
  11  -6   3   15.40    6.40
  11   6   3   17.10    6.20
  12  -6   3   43.30   10.10
 -12  -6  -3   31.30   14.20
  12   6   3   34.60    8.70
  13  -6   3    7.10    5.80
  13   6   3   12.50    6.70
  13  -7  -3   30.90   10.10
  13  -7  -3   18.10    8.40
  13   7  -3   10.70    7.50
  12  -7  -3    3.80    5.50
  12  -7  -3    5.70    6.50
  12   7  -3   -5.00    4.60
  11  -7  -3  124.19   16.70
  11  -7  -3  191.58   22.20
  11   7  -3  142.39   18.20
  10  -7  -3   15.90    6.90
  10  -7  -3   17.60    6.60
  10   7  -3   25.20    7.70
   9  -7  -3  742.93   45.60
   9  -7  -3  733.23   47.90
   9   7  -3  708.83   47.30
   8  -7  -3  155.18   15.60
   8  -7  -3  139.39   16.80
  -8  -7   3  154.28   21.90
   8   7  -3  182.38   18.80
   7  -7  -3  523.05   33.00
   7  -7  -3  506.45   34.80
  -7  -7   3  538.95   39.20
  -6  -7   3  537.35   37.60
   6  -7  -3  480.65   32.70
   6  -7  -3  500.05   27.70
   6  -7  -3  495.45   31.20
   5  -7  -3  465.45   31.30
  -5  -7   3  466.75   35.00
   5  -7  -3  525.55   30.30
   4  -7  -3   78.39    8.00
   4  -7  -3   49.60    7.50
  -4  -7   3   47.10    9.50
   3  -7  -3    5.70    2.50
  -3  -7   3    1.50    2.60
  -3  -7   3    3.00    3.20
   3  -7  -3    3.00    2.60
   2  -7  -3    7.20    3.00
  -2  -7   3   15.30    4.00
  -2  -7   3   14.50    4.40
  -1  -7   3  215.28   15.60
  -1  -7   3  226.38   15.80
   1  -7  -3  211.08   15.10
   0  -7   3   13.20    3.20
   0  -7  -3    8.90    2.80
   0  -7   3    5.70    2.70
   1  -7   3  385.96   22.70
  -1  -7  -3  371.86   23.30
   1  -7   3  365.86   23.80
  -2  -7  -3   54.19    6.50
   2  -7   3   54.29    6.10
   2  -7   3   51.09    7.10
   2   7   3   47.20    3.90
  -3  -7  -3   32.70    4.90
   3  -7   3   19.30    4.10
   3  -7   3   26.80    5.10
   3   7   3   34.10    3.80
   4  -7   3   54.19    7.60
  -4  -7  -3   61.59    7.50
   4  -7   3   71.19    7.50
   4   7   3   43.50    5.50
  -5  -7  -3   14.40    4.00
   5  -7   3   23.60    4.80
   5  -7   3   18.90    4.60
   5   7   3   22.80    4.10
   6  -7   3    7.80    3.60
  -6  -7  -3    6.20    3.30
   6  -7   3    6.30    3.40
  -6  -7  -3   -3.50    4.20
   6   7   3    6.00    2.70
   7  -7   3   76.19   10.20
  -7  -7  -3   83.39   13.20
  -7  -7  -3   74.09   10.00
   7   7   3   87.49    9.70
  -8  -7  -3   46.10   10.90
   8  -7   3   37.70    7.70
   8  -7   3   40.80    7.40
  -8  -7  -3   32.20    7.00
   8   7   3   16.70    4.70
  -9  -7  -3   49.50    8.90
   9  -7   3   46.20    9.10
  -9  -7  -3   37.50   11.00
   9  -7   3   42.30    8.30
   9   7   3   31.70    7.00
  10  -7   3   62.59   10.70
 -10  -7  -3   55.69   12.70
  10  -7   3   70.39   11.40
  10   7   3   72.59   11.10
 -11  -7  -3   -2.10    6.40
  11  -7   3   -1.30    4.00
  11  -7   3   -1.60    4.10
  11   7   3    1.50    3.90
 -12  -7  -3   26.90   10.60
  12  -7   3   70.59   12.70
  12   7   3   62.39   11.00
  13  -7   3  193.28   22.40
  13   7   3  159.48   19.60
  13  -8  -3   30.60   10.70
  13  -8  -3   20.00    8.20
  13   8  -3   19.60    9.30
  12  -8  -3    6.70    5.90
  12  -8  -3    3.50    6.90
  12   8  -3   10.90    7.90
  11  -8  -3   93.19   14.20
  11  -8  -3   96.99   15.50
  11   8  -3   78.89   14.00
  10  -8  -3    1.70    5.20
  10  -8  -3   -4.80    4.10
 -10  -8   3    4.40    8.40
  10   8  -3   -2.70    4.60
   9  -8  -3   17.10    6.90
  -9  -8   3    5.70    7.90
   9  -8  -3   20.00    6.30
  -8  -8   3  299.67   31.70
   8  -8  -3  238.38   18.60
   8  -8  -3  212.98   22.30
   7  -8  -3  190.08   15.60
  -7  -8   3  202.58   25.40
   7  -8  -3  196.68   19.60
   6  -8  -3 1459.25   81.59
   6  -8  -3 1376.36   78.89
  -6  -8   3 1379.56   85.89
   5  -8  -3   74.09   10.40
  -5  -8   3   52.29   10.80
   5  -8  -3   67.69    8.20
   4  -8  -3   26.40    4.80
   4  -8  -3   27.00    5.80
  -4  -8   3   25.90    7.20
  -4  -8   3   27.90    6.40
   3  -8  -3  370.56   25.40
  -3  -8   3  473.75   27.30
  -3  -8   3  373.76   26.10
   3  -8  -3  375.06   23.60
   2  -8  -3 1462.45   82.99
  -2  -8   3 1565.54   83.69
  -2  -8   3 1433.06   82.89
  -1  -8   3  112.49   10.10
   1  -8  -3   71.39    8.40
  -1  -8   3   72.69    9.00
   0  -8   3   72.59    7.50
   0  -8   3   66.19    8.50
   0  -8  -3   70.79    8.10
   1  -8   3  239.98   15.80
  -1  -8  -3  246.78   17.00
   1  -8   3  258.97   17.70
  -2  -8  -3   95.39    9.50
   2  -8   3   86.59   10.00
   2  -8   3   80.89    7.20
   2   8   3   85.59    5.90
  -3  -8  -3  320.17   21.20
   3  -8   3  319.17   20.40
   3  -8   3  324.47   22.00
   3   8   3  329.87   19.10
  -4  -8  -3   93.89   10.10
   4  -8   3   98.89    9.60
   4  -8   3   91.39   10.70
   4   8   3   88.79    7.40
   5  -8   3   79.29   10.20
  -5  -8  -3   70.39    9.30
   5  -8   3  100.59   10.30
   5   8   3   91.59    8.90
   6  -8   3  204.48   15.20
  -6  -8  -3  194.38   15.50
   6  -8   3  189.08   15.80
   6   8   3  187.18   14.10
   7  -8   3    8.80    4.00
  -7  -8  -3    3.70    5.60
  -7  -8  -3    0.70    3.20
   7  -8   3    4.80    3.30
   7   8   3    8.70    3.50
  -8  -8  -3  588.14   42.00
  -8  -8  -3  632.74   39.70
   8  -8   3  643.34   39.40
   8   8   3  615.24   38.60
  -9  -8  -3  210.08   20.90
  -9  -8  -3  256.47   28.40
   9  -8   3  234.08   18.90
   9  -8   3  226.98   19.60
  10  -8   3   12.50    5.60
  10  -8   3   11.00    5.90
 -10  -8  -3    1.90    7.30
  10   8   3    6.30    4.10
 -11  -8  -3    0.50    7.00
  11  -8   3    8.60    6.00
  11  -8   3   10.90    6.20
  11   8   3    7.30    4.50
  12  -8   3  229.18   23.30
 -12  -8  -3  158.48   24.20
  12   8   3  217.48   22.90
 -13  -9   3  264.27   39.10
  13  -9  -3  244.08   27.60
  13  -9  -3  302.07   32.80
 -12  -9   3   62.89   19.30
  12  -9  -3  133.79   19.90
  12  -9  -3  102.99   15.40
 -11  -9   3   -9.90    8.60
  11  -9  -3   10.00    5.90
  11  -9  -3   -3.10    5.50
  10  -9  -3   76.59   12.10
  10  -9  -3   97.39   15.60
 -10  -9   3   56.29   16.40
   9  -9  -3   75.69   11.40
  -9  -9   3   31.90   12.90
   9  -9  -3   38.70    9.70
  -8  -9   3  135.89   22.00
   8  -9  -3  102.39   12.70
   8  -9  -3  141.39   17.10
   7  -9  -3  349.57   26.00
   7  -9  -3  345.87   23.70
  -7  -9   3  311.07   34.00
   6  -9  -3  104.29   12.80
  -6  -9   3   87.09   15.50
   6  -9  -3   87.99   10.60
  -6  -9   3  105.49   14.00
   5  -9  -3   59.39    9.30
   5  -9  -3   45.20    6.90
  -5  -9   3   60.59    9.90
  -5  -9   3   42.40    9.80
   4  -9  -3   35.50    7.00
   4  -9  -3   48.70    6.50
  -4  -9   3   41.20    8.50
  -4  -9   3   65.09    9.70
   3  -9  -3  326.77   20.90
   3  -9  -3  310.47   23.00
  -3  -9   3  357.46   23.60
  -3  -9   3  374.66   24.30
  -2  -9   3 1466.35   78.29
  -2  -9   3 1312.07   76.59
   2  -9  -3 1332.37   77.39
   1  -9  -3 1652.73   94.59
  -1  -9   3 1730.93   95.29
  -1  -9   3 1718.83   92.99
   0  -9   3   91.59   10.70
   0  -9   3   89.29    7.60
   0  -9  -3   91.09    9.80
  -1  -9  -3  602.14   36.50
   1  -9   3  613.14   34.80
   1  -9   3  597.34   37.10
  -2  -9  -3   15.50    4.20
   2  -9   3   21.00    4.00
   2  -9   3   15.70    4.70
   3  -9   3   32.80    5.10
   3  -9   3   18.80    5.10
  -3  -9  -3   22.30    4.90
   3   9   3   24.60    3.60
   4  -9   3   76.09    8.40
  -4  -9  -3   61.69    8.50
   4  -9   3   87.49   10.70
   4   9   3   76.09    7.50
   5  -9   3  187.08   15.00
   5  -9   3  157.08   12.70
  -5  -9  -3  134.89   14.30
   5   9   3  166.88   12.10
   6  -9   3   71.69    9.60
   6  -9   3   85.99   11.50
  -6  -9  -3   88.39   10.70
   6   9   3   64.79    8.20
   7  -9   3  294.37   22.90
  -7  -9  -3  307.17   22.40
   7  -9   3  288.17   21.40
   7   9   3  307.07   20.90
  -8  -9  -3  317.37   24.20
  -8  -9  -3  301.17   31.90
   8  -9   3  337.47   23.70
   8  -9   3  351.26   25.50
   8   9   3  314.17   22.90
   9  -9   3   58.09   10.80
   9  -9   3   82.99   11.90
  -9  -9  -3   76.49   11.50
  -9  -9  -3   64.49   14.90
   9   9   3   81.39   11.10
 -10  -9  -3   12.60    8.60
  10  -9   3    4.10    4.10
  10  -9   3   15.10    6.80
  10   9   3   26.50    6.80
  11  -9   3   -0.10    5.40
  11  -9   3    3.60    5.40
 -11  -9  -3    9.80    8.60
  11   9   3   -0.80    3.60
  12  -9   3   28.90    8.60
 -12  -9  -3   29.90   11.80
  12   9   3   43.80    9.70
  12 -10  -3   62.99   12.50
  12 -10  -3   54.79   13.20
 -12 -10   3   42.30   15.80
  11 -10  -3    8.10    6.90
  11 -10  -3    2.20    4.90
 -11 -10   3   -4.10    8.30
  10 -10  -3    7.00    5.30
 -10 -10   3    8.80   10.20
  10 -10  -3   24.20    8.90
   9 -10  -3   14.30    6.90
   9 -10  -3    7.00    5.20
  -9 -10   3   17.20    9.70
   8 -10  -3   19.40    6.30
   8 -10  -3   14.20    6.50
  -8 -10   3   14.30   10.20
  -7 -10   3  330.17   26.20
   7 -10  -3  352.16   23.60
   7 -10  -3  333.87   25.90
  -7 -10   3  279.77   32.80
  -6 -10   3   23.20    9.40
  -6 -10   3   18.20    6.70
   6 -10  -3   20.20    6.10
   6 -10  -3   33.50    6.20
  -5 -10   3  103.89   14.80
   5 -10  -3  124.09   11.90
  -5 -10   3  108.39   13.90
   5 -10  -3  116.29   14.10
   4 -10  -3   18.40    5.80
  -4 -10   3   15.10    5.70
   4 -10  -3   14.10    3.80
  -4 -10   3    6.30    4.10
   3 -10  -3   11.40    4.70
  -3 -10   3   14.20    4.70
  -3 -10   3   21.90    5.60
   3 -10  -3   15.90    3.70
  -2 -10   3  705.53   40.30
  -2 -10   3  706.63   42.10
   2 -10  -3  657.13   41.40
  -2  10   3  646.64   37.50
  -1 -10   3   58.79    8.50
  -1 -10   3   65.79    7.10
   1 -10  -3   54.29    8.40
   0 -10   3   18.90    3.70
   0 -10   3   18.10    5.10
   0 -10  -3   12.20    4.20
   1 -10   3  142.39   10.00
   1 -10   3  135.49   13.50
  -1 -10  -3  118.39   12.30
   2 -10   3 1367.56   78.79
   2 -10   3 1381.06   75.89
  -2 -10  -3 1389.86   78.09
  -3 -10  -3   42.70    6.90
   3 -10   3   38.00    7.40
   3 -10   3   32.00    5.30
   3  10   3   37.00    4.70
   4 -10   3  339.77   21.90
   4 -10   3  325.47   24.20
  -4 -10  -3  337.27   23.40
   4  10   3  347.47   21.30
   5 -10   3   92.49   10.50
  -5 -10  -3  113.69   12.40
   5 -10   3   87.49   11.90
   5  10   3   95.99    9.80
   6 -10   3  410.86   25.50
   6 -10   3  351.56   26.80
  -6 -10  -3  355.36   25.80
   6  10   3  368.76   24.30
   7 -10   3   33.20    7.10
   7 -10   3   46.10    9.10
  -7 -10  -3   40.40    8.00
   7  10   3   54.79    8.20
  -8 -10  -3  200.08   20.60
  -8 -10  -3  257.87   27.70
   8 -10   3  211.88   18.30
   8 -10   3  246.58   20.70
   8  10   3  250.57   18.50
   9 -10   3   25.90    7.80
  -9 -10  -3   41.70   12.00
  -9 -10  -3   28.80    8.00
   9 -10   3   38.20    8.50
   9  10   3   32.20    7.20
  10 -10   3    0.70    5.10
 -10 -10  -3    6.30    7.90
  10 -10   3    2.50    5.00
  10  10   3    2.90    4.10
  11 -10   3   55.39   11.40
 -11 -10  -3   36.90   12.70
 -12 -11   3    7.50   12.00
 -12 -11   3    8.70    8.20
  12 -11  -3    0.40    7.00
  12 -11  -3   13.80    7.70
 -11 -11   3   23.10    9.10
 -11 -11   3   49.90   16.80
  11 -11  -3   42.50   12.20
  11 -11  -3   46.10   10.50
  10 -11  -3  107.69   17.80
  10 -11  -3  137.59   16.50
 -10 -11   3  114.89   18.30
 -10 -11   3   63.39   18.50
  -9 -11   3  108.09   17.30
   9 -11  -3   97.19   15.30
   9 -11  -3   78.69   12.10
  -9 -11   3   63.69   18.10
   8 -11  -3   42.40   10.30
  -8 -11   3   52.49   11.30
  -8 -11   3   12.80    9.90
   8 -11  -3   55.59    9.30
  -7 -11   3   15.20    9.20
   7 -11  -3   20.70    7.30
   7 -11  -3   19.50    5.70
  -7 -11   3   28.10    7.60
  -6 -11   3   36.50    9.10
  -6 -11   3   17.90    8.00
   6 -11  -3   21.90    5.70
   6 -11  -3   19.90    6.90
  -5 -11   3   48.70    9.40
   5 -11  -3   30.30    7.20
   5 -11  -3   38.90    6.60
  -5 -11   3   41.80    9.20
   4 -11  -3  163.18   13.50
  -4 -11   3  207.68   17.30
  -4 -11   3  200.88   16.80
   4 -11  -3  209.28   17.10
   3 -11  -3   20.30    5.70
  -3 -11   3   35.60    6.60
  -3 -11   3   33.50    7.50
  -2 -11   3   51.89    8.50
   2 -11  -3   34.30    7.10
  -2 -11   3   46.70    6.50
  -1 -11   3   10.00    2.80
   1 -11  -3    6.10    3.90
  -1 -11   3    1.40    3.00
   0 -11   3  108.09    8.40
   0 -11   3   97.49   12.00
   0 -11  -3  113.49   12.00
   1 -11   3 1386.56   75.79
   1 -11   3 1324.67   79.29
  -1 -11  -3 1440.56   78.99
   2 -11   3  479.85   27.40
  -2 -11  -3  464.15   29.70
   2 -11   3  402.36   29.80
  -3 -11  -3    6.20    3.70
   3 -11   3    9.60    4.90
   3 -11   3   10.90    3.50
   4 -11   3  111.89   11.20
  -4 -11  -3  111.59   12.90
   4 -11   3  119.49   14.30
   5 -11   3  919.61   53.09
  -5 -11  -3  865.01   54.59
   5 -11   3  970.30   56.79
   6 -11   3   10.20    5.70
   6 -11   3   15.80    5.30
  -6 -11  -3   18.70    6.10
   7 -11   3    9.50    4.60
  -7 -11  -3   18.90    6.20
   7 -11   3    4.90    4.90
   8 -11   3   10.40    6.30
  -8 -11  -3    4.10    4.30
  -8 -11  -3   18.90    8.90
   8 -11   3   10.50    5.20
  -9 -11  -3   24.90   10.30
  -9 -11  -3   34.00    8.40
   9 -11   3   36.30    9.90
   9 -11   3   44.10    9.00
  10 -11   3   78.69   14.60
  10 -11   3   70.09   12.00
 -10 -11  -3   65.89   15.40
  11 -11   3   15.00    8.20
  11 -11   3   15.30    7.00
 -11 -11  -3   20.00   11.20
 -11 -12   3    9.70    7.60
  11 -12  -3   33.70   12.00
  11 -12  -3    9.10    7.50
  10 -12  -3   88.39   16.70
 -10 -12   3  106.49   17.90
  10 -12  -3   97.49   14.80
   9 -12  -3  513.25   35.20
  -9 -12   3  543.95   38.90
   9 -12  -3  479.45   38.30
   8 -12  -3   19.00    8.00
  -8 -12   3    7.10    9.50
   8 -12  -3    5.70    4.60
  -8 -12   3   12.20    6.40
   7 -12  -3   49.10    8.50
   7 -12  -3   72.59   12.50
  -7 -12   3   37.90   11.90
  -7 -12   3   56.99   11.40
  -6 -12   3    6.30    5.60
   6 -12  -3    2.60    5.10
  -6 -12   3    6.60    7.10
   6 -12  -3   14.30    5.10
   5 -12  -3  268.87   19.50
  -5 -12   3  279.67   23.00
  -5 -12   3  305.67   23.30
   5 -12  -3  272.67   22.60
  -4 -12   3  156.88   15.40
  -4 -12   3  138.99   16.20
   4 -12  -3  151.98   16.30
   4 -12  -3  137.29   12.20
  -3 -12   3   36.30    6.90
  -3 -12   3   31.80    7.40
   3 -12  -3   37.50    7.60
   2 -12  -3   20.30    6.20
  -2 -12   3   35.90    7.40
  -2 -12   3   35.80    5.20
   1 -12  -3  305.77   22.30
  -1 -12   3  294.67   18.60
  -1 -12   3  299.17   22.50
   0 -12  -3   30.30    6.80
   0 -12   3   29.00    6.50
   0 -12   3   38.70    5.10
   1 -12   3  103.09    8.20
   1 -12   3   96.89   12.40
  -1 -12  -3   87.89   11.60
  -2 -12  -3  345.77   23.90
   2 -12   3  341.27   20.90
   2 -12   3  305.97   23.90
   3 -12   3   39.00    7.90
   3 -12   3   33.80    5.40
  -3 -12  -3   46.20    8.00
   4 -12   3  140.99   16.60
  -4 -12  -3  144.69   15.60
   4 -12   3  165.68   12.50
   5 -12   3  176.98   14.50
   5 -12   3  218.88   21.70
  -5 -12  -3  189.28   18.50
   6 -12   3  101.89   11.70
   6 -12   3  110.69   15.20
  -6 -12  -3   90.09   12.70
   7 -12   3  119.39   16.30
  -7 -12  -3  105.59   13.70
   7 -12   3   98.89   12.40
  -8 -12  -3   15.30    6.60
   8 -12   3    5.10    4.40
   8 -12   3    2.90    5.30
  -9 -12  -3   13.50    8.40
  -9 -12  -3   13.20    9.30
   9 -12   3   10.70    6.20
   9 -12   3   17.90    7.90
  10 -12   3    9.50    6.40
  10 -12   3    6.50    6.90
 -10 -12  -3   11.00    9.70
  11 -12   3    9.80    6.40
  11 -13  -3   22.00   10.30
  11 -13  -3    8.70    7.60
 -11 -13   3   -1.50    6.20
  10 -13  -3   84.09   14.10
 -10 -13   3  131.19   19.40
  10 -13  -3  118.49   19.80
   9 -13  -3   -0.70    7.00
   9 -13  -3   18.80   10.30
  -9 -13   3   15.60    8.50
   8 -13  -3   16.30    8.80
   8 -13  -3   14.50    7.80
  -7 -13   3   67.29   12.60
   7 -13  -3   46.80   10.60
   6 -13  -3   97.19   14.90
  -6 -13   3  123.69   16.00
   5 -13  -3  133.69   16.50
  -5 -13   3  109.69   15.30
  -4 -13   3   85.09   12.20
   4 -13  -3   57.99   10.60
  -3 -13   3   82.19   12.20
   3 -13  -3   67.09   11.00
   2 -13  -3    6.20    4.50
  -2 -13   3    4.30    4.40
   1 -13  -3   14.80    5.60
  -1 -13   3   23.00    6.30
   0 -13  -3  120.19   14.50
   0 -13   3  127.59   15.10
   1 -13   3  135.29   10.30
  -1 -13  -3  153.98   15.70
   1 -13   3  131.79   15.10
   2 -13   3    5.90    3.00
  -2 -13  -3    1.10    3.60
   2 -13   3    0.90    3.50
   3 -13   3   10.80    3.60
  -3 -13  -3    7.30    4.80
   3 -13   3    5.10    4.50
  -4 -13  -3   65.99   10.40
   4 -13   3   69.49   11.80
   4 -13   3   58.19    8.00
   5 -13   3   92.19   13.70
  -5 -13  -3   49.50    9.40
   6 -13   3   -1.80    4.20
   6 -13   3    6.00    4.00
  -6 -13  -3   10.00    5.50
   7 -13   3   30.30    9.30
  -7 -13  -3   25.70    7.40
   7 -13   3   28.20    7.20
   8 -13   3    0.10    3.80
   8 -13   3   -1.90    5.30
  -8 -13  -3   -2.20    4.30
   9 -13   3   17.70    6.60
  -9 -13  -3   -1.90    8.40
   9 -13   3    2.90    6.20
 -10 -13  -3   16.50   11.00
  10 -13   3   23.80    8.40
  10 -13   3   57.19   14.00
 -10 -14   3   10.80    8.00
  10 -14  -3    8.50    7.70
   9 -14  -3   95.69   16.50
  -9 -14   3   60.09   14.10
   8 -14  -3   46.70   12.30
  -8 -14   3   31.90   10.70
   7 -14  -3  110.39   17.30
  -7 -14   3  114.09   17.70
   6 -14  -3   80.09   13.50
  -6 -14   3   68.09   12.40
  -5 -14   3   37.70    9.40
   5 -14  -3   30.10    8.80
  -4 -14   3    2.10    4.90
   4 -14  -3   -1.20    4.40
  -3 -14   3   15.10    6.30
   3 -14  -3    8.50    6.00
  -2 -14   3  135.59   16.20
   2 -14  -3  149.88   16.90
  -1 -14   3    5.00    4.20
   1 -14  -3   -0.60    3.80
   0 -14   3  164.88   18.70
   0 -14  -3  223.78   18.10
   1 -14   3   90.19   12.80
  -1 -14  -3   78.89   11.50
   2 -14   3  150.38   16.70
  -2 -14  -3  117.09   14.40
  -3 -14  -3  151.58   16.60
   3 -14   3  176.58   19.60
   4 -14   3   56.89   11.00
  -4 -14  -3   58.89   10.10
   5 -14   3    9.20    5.20
   5 -14   3   12.90    6.50
  -5 -14  -3   16.70    6.30
  -6 -14  -3  203.38   20.80
   6 -14   3  238.28   24.40
   6 -14   3  199.78   16.80
  -7 -14  -3   19.70    6.90
   7 -14   3   10.30    5.30
   7 -14   3    9.40    6.60
   8 -14   3   17.30    8.50
   8 -14   3    9.20    5.80
  -8 -14  -3    9.80    6.10
  -9 -14  -3   62.89   17.10
   9 -14   3  112.99   18.60
   9 -14   3   78.29   12.90
  -9 -15   3   -1.00    6.10
   9 -15  -3    8.40    9.20
  -8 -15   3   21.90    9.00
   8 -15  -3   21.30    9.40
   7 -15  -3    2.80    7.20
  -7 -15   3    1.40    5.00
  -6 -15   3   77.29   14.20
   6 -15  -3   93.19   15.20
  -5 -15   3   27.40    8.40
   5 -15  -3   25.80    8.50
  -4 -15   3   98.69   14.60
   4 -15  -3   85.59   14.10
  -3 -15   3  200.28   21.00
   3 -15  -3  168.78   20.10
   2 -15  -3  178.78   19.40
  -2 -15   3  175.68   19.00
  -1 -15   3  175.78   19.20
   1 -15  -3  164.08   18.40
   0 -15   3   70.99   11.40
   0 -15  -3   69.09   11.70
  -1 -15  -3  228.48   19.40
   1 -15   3  200.08   21.50
   2 -15   3    4.80    5.20
  -2 -15  -3    0.20    4.00
  -3 -15  -3   -4.70    3.50
   3 -15   3    2.40    5.00
  -4 -15  -3   -1.40    4.40
   4 -15   3   -3.10    4.40
   5 -15   3  144.19   19.30
  -5 -15  -3  120.69   16.00
  -6 -15  -3    0.70    4.60
   6 -15   3    6.50    6.20
  -7 -15  -3   30.10    8.50
   7 -15   3   44.20   12.30
  -8 -15  -3   76.19   13.50
   8 -15   3   77.89   16.00
   8 -16  -3   13.00    8.90
  -8 -16   3   24.90    9.40
  -7 -16   3    1.40    6.00
   7 -16  -3   -6.60    6.20
  -6 -16   3  114.69   17.60
   6 -16  -3  110.59   17.20
   5 -16  -3   90.19   15.50
  -5 -16   3   96.59   14.80
   4 -16  -3    1.20    5.30
  -4 -16   3    1.10    4.80
   3 -16  -3    2.70    5.50
  -3 -16   3   25.00    7.40
  -2 -16   3  119.79   16.30
   2 -16  -3  116.89   15.80
  -1 -16   3   50.49   10.30
   1 -16  -3   55.09   11.10
   0 -16  -3  106.99   14.90
   0 -16   3  124.39   16.20
   1 -16   3   28.00    8.00
  -1 -16  -3   33.00    8.20
  -2 -16  -3   16.80    6.90
   2 -16   3   21.40    7.60
  -3 -16  -3   24.30    7.80
   3 -16   3   21.40    7.60
   4 -16   3   13.80    7.90
  -4 -16  -3   11.20    6.50
   5 -16   3    9.50    7.30
  -5 -16  -3    1.80    4.70
  -6 -16  -3   43.40   10.20
   6 -16   3   78.29   14.90
   7 -16   3   49.90   12.70
  -7 -16  -3   39.60    9.90
  -7 -17   3   74.99   14.20
   7 -17  -3   75.29   16.00
  -6 -17   3   14.80    8.30
   6 -17  -3   21.50    9.60
  -5 -17   3    3.50    6.50
   5 -17  -3    1.40    6.10
   4 -17  -3  185.68   21.90
  -4 -17   3  149.49   19.60
  -3 -17   3    6.30    5.50
   3 -17  -3    3.10    5.70
  -2 -17   3   33.10    9.30
   2 -17  -3   36.40    9.90
  -1 -17   3  424.26   32.60
   1 -17  -3  430.56   32.40
   0 -17  -3   11.60    7.40
   0 -17   3   27.20    8.50
  -1 -17  -3   13.20    7.20
   1 -17   3   10.20    6.20
   2 -17   3    4.20    5.90
  -2 -17  -3    7.50    5.90
  -3 -17  -3    2.50    5.40
   3 -17   3   25.70    9.30
  -4 -17  -3   22.90    8.30
   4 -17   3   -0.60    6.60
  -5 -17  -3   44.20   10.40
   5 -17   3   55.29   12.80
  -6 -17  -3    8.00    7.20
   6 -17   3   19.60    9.50
  -6 -18   3   41.90   12.00
   6 -18  -3   45.30   12.60
   5 -18  -3   -0.80    6.50
  -5 -18   3    5.60    7.10
  -4 -18   3   14.50    8.40
   4 -18  -3   12.50    7.80
   3 -18  -3   59.49   12.70
  -3 -18   3  106.19   16.10
   2 -18  -3    0.80    6.00
  -2 -18   3   -2.40    4.80
  -1 -18   3   13.90    7.10
   1 -18  -3   14.60    6.90
   0 -18  -3   44.60   10.60
   0 -18   3   49.10   11.60
  -1 -18  -3    1.40    5.00
   1 -18   3   -0.60    5.00
  -2 -18  -3   44.40   10.40
   2 -18   3   29.30    9.50
  -3 -18  -3   45.20   10.80
   3 -18   3   27.80    9.40
  -4 -18  -3   19.10    7.60
   4 -18   3   10.50    8.20
   5 -18   3   22.20   10.30
  -5 -18  -3   23.10    8.90
   4 -19  -3   39.20   11.50
  -4 -19   3   24.20   10.10
  -3 -19   3   58.69   13.70
   3 -19  -3   33.90   10.60
   2 -19  -3    8.50    7.40
  -2 -19   3   -3.30    5.50
  -1 -19   3  106.79   16.80
   1 -19  -3   77.19   14.50
   0 -19  -3   54.49   12.50
   0 -19   3   43.00   11.90
  -1 -19  -3   88.19   14.90
   1 -19   3   98.19   15.50
   2 -19   3    5.70    7.00
  -2 -19  -3   13.00    7.50
  -3 -19  -3    5.90    6.30
   3 -19   3    2.70    7.20
  14   0  -4    2.10    6.00
  13   0  -4   15.50    7.40
  12   0  -4  164.38   19.10
  11   0  -4    2.40    4.60
  10   0  -4   28.00    7.60
   9   0  -4   13.70    5.50
   9   0  -4    2.90    3.60
   8   0  -4  175.78   15.10
   8   0  -4  177.78   15.40
   7   0  -4    2.90    2.70
   7   0  -4   10.00    3.90
   6   0  -4  285.77   20.80
   6   0  -4  297.27   20.30
   5   0  -4    3.90    2.80
   5   0  -4    1.50    2.30
   4   0  -4   39.00    5.90
  -4   0   4   38.00    7.20
   3   0  -4   -0.20    1.70
  -3   0   4    2.10    2.80
  -2   0   4 1436.86   83.89
   2   0  -4 1575.24   82.29
   1   0  -4    5.10    1.80
  -1   0   4    3.20    2.90
   1   0  -4    0.80    1.90
   0   0  -4 1692.63   88.69
   0   0   4 1579.24   90.49
   1   0   4    0.80    1.80
  -1   0  -4    8.60    2.90
   2   0   4  950.90   51.09
  -2   0  -4  880.41   50.89
   3   0   4    8.20    2.30
  -3   0  -4    4.70    2.70
  -4   0  -4 1966.00  107.59
   4   0   4 1980.20  107.29
   5   0   4   85.19    9.50
  -5   0  -4   90.69    9.90
   6   0   4  352.86   23.40
  -6   0  -4  372.36   24.00
  -7   0  -4   12.00    4.70
   7   0   4    7.00    3.90
   8   0   4   80.09    9.90
  -8   0  -4   74.69   10.90
   9   0   4    9.30    4.10
  -9   0  -4    9.10    5.70
  10   0   4  124.79   14.10
 -10   0  -4  109.09   14.50
  11   0   4    0.60    3.60
  12   0   4   93.39   14.10
  13   0   4    0.80    3.90
  14  -1  -4   71.99   14.10
  14   1  -4   64.89   13.70
  13  -1  -4   82.99   14.20
  13   1  -4   56.09   11.70
  12  -1  -4  101.49   14.90
  12   1  -4   92.19   13.90
  11  -1  -4  427.36   32.70
  11  -1  -4  522.25   33.90
  11   1  -4  445.26   33.30
  10  -1  -4   53.39    9.90
  10  -1  -4   54.69   10.30
  10   1  -4   57.49   10.30
   9  -1  -4   87.69   12.00
   9  -1  -4  102.99   13.30
   9   1  -4   88.29   12.40
   8  -1  -4  350.86   24.50
   8  -1  -4  336.97   24.10
   8   1  -4  324.17   24.20
   7  -1  -4   12.10    4.10
   7  -1  -4   16.60    5.20
   7   1  -4   16.10    5.20
   6  -1  -4  161.48   13.90
   6  -1  -4  176.38   14.30
   6   1  -4  180.78   14.80
   5  -1  -4    8.10    3.30
   5  -1  -4    3.10    2.70
   5   1  -4   12.20    4.30
   4  -1  -4 1003.50   57.69
   4  -1  -4  999.60   57.89
  -4  -1   4 1040.60   60.09
  -3  -1   4  561.54   36.00
   3  -1  -4  622.84   34.30
  -3   1   4  539.85   35.20
   2  -1  -4   27.80    4.10
   2  -1  -4   22.20    3.50
  -2  -1   4   29.00    5.70
  -2   1   4   22.90    5.00
   1  -1  -4  596.14   34.40
   1  -1  -4  651.43   34.80
  -1  -1   4  605.24   36.70
  -1   1   4  605.94   36.20
   0  -1   4   15.70    4.40
   0  -1  -4   17.10    2.50
   0  -1  -4   18.30    3.40
   0   1   4   15.40    4.20
   0   1  -4   23.20    4.00
   1  -1   4  348.07   18.90
  -1  -1  -4  326.47   20.50
   1  -1   4  302.67   20.70
  -1  -1  -4  377.16   18.70
   1   1   4  321.47   20.40
  -1   1  -4  315.07   20.30
   2  -1   4   52.29    3.80
  -2  -1  -4   62.49    7.40
   2  -1   4   67.09    6.90
   2   1   4   72.29    6.70
  -2   1  -4   63.69    6.80
   3  -1   4 2509.35  133.19
  -3  -1  -4 2514.25  135.89
   3  -1   4 2575.44  135.49
   3   1   4 2419.66  134.99
  -3   1  -4 2549.04  135.29
   4  -1   4   36.90    5.50
   4  -1   4   26.80    3.40
  -4  -1  -4   27.60    5.40
   4   1   4   18.10    3.70
  -4   1  -4   31.80    5.40
   5  -1   4  134.89   12.00
   5  -1   4  178.48   11.20
  -5  -1  -4  181.18   13.60
  -5   1  -4  182.58   12.90
   5   1   4  153.98   12.20
   6  -1   4    7.40    2.50
   6  -1   4    9.20    3.50
  -6  -1  -4    8.10    4.00
  -6   1  -4    0.50    2.80
   6   1   4    4.00    2.50
  -7  -1  -4  309.27   21.90
   7  -1   4  307.07   20.90
   7  -1   4  299.07   19.10
  -7   1  -4  273.27   20.10
   7   1   4  301.97   20.80
   8  -1   4   43.60    6.50
   8  -1   4   52.49    8.10
  -8  -1  -4   58.59   10.10
  -8   1  -4   35.30    7.20
   8   1   4   53.99    8.20
   9  -1   4   56.79    9.20
  -9  -1  -4   86.49   13.00
  -9   1  -4   79.19   10.50
   9   1   4   60.29    9.10
  10  -1   4    6.80    4.00
 -10  -1  -4    6.60    6.60
  10   1   4    9.70    4.80
  11  -1   4   38.40    8.90
  11   1   4   41.40    8.70
  12  -1   4    7.70    5.20
  12   1   4   -1.00    3.80
  13  -1   4   36.50    9.90
  13   1   4   32.90    9.00
  14  -2  -4   -1.30    5.70
  14   2  -4    1.40    5.60
  13  -2  -4    0.60    4.90
  13   2  -4    8.50    6.60
  12  -2  -4    9.20    5.80
  12  -2  -4    3.80    5.30
  12   2  -4    5.70    5.90
  11  -2  -4  168.88   18.70
  11  -2  -4  148.39   18.00
  11   2  -4  141.09   18.10
  10  -2  -4    7.20    4.70
  10  -2  -4   11.50    5.40
  10   2  -4   12.50    5.70
   9  -2  -4   46.50    9.00
   9  -2  -4   43.00    8.60
   9   2  -4   42.70    9.10
   8  -2  -4   44.20    8.40
   8  -2  -4   54.79    9.70
   8   2  -4   33.40    7.70
   7  -2  -4  406.96   27.10
   7  -2  -4  356.16   27.00
   7   2  -4  449.06   28.40
   6  -2  -4  254.17   18.70
   6  -2  -4  240.58   18.10
   6   2  -4  252.57   19.00
  -5  -2   4  158.18   16.50
   5  -2  -4  149.19   12.70
   5  -2  -4  161.38   13.00
   4  -2  -4 1489.75   84.59
   4  -2  -4 1488.45   84.49
  -4  -2   4 1608.34   87.79
   3  -2  -4 3690.03  183.58
  -3  -2   4 3186.88  187.68
   3  -2  -4 3508.65  185.78
  -3   2   4 3393.56  186.78
   2  -2  -4  233.38   15.70
  -2  -2   4  228.78   17.30
   2  -2  -4  252.97   14.70
  -2   2   4  249.18   16.80
  -1  -2   4 1401.96   82.59
   1  -2  -4 1617.24   80.59
   1  -2  -4 1420.66   80.09
   0  -2  -4   30.00    4.50
   0  -2  -4   43.20    4.20
   0  -2   4   42.50    6.50
   1  -2   4  173.78   12.30
  -1  -2  -4  175.88   10.20
   1  -2   4  165.98   10.70
  -1  -2  -4  176.58   12.20
  -1   2  -4  162.58   12.00
  -2  -2  -4  657.53   37.60
   2  -2   4  658.23   37.20
   2  -2   4  661.03   35.40
  -2  -2  -4  604.54   34.60
   2   2   4  664.83   36.50
  -2   2  -4  648.14   37.10
   3  -2   4    3.60    1.90
  -3  -2  -4    1.80    2.50
  -3  -2  -4    3.60    1.10
   3  -2   4    5.00    1.50
   3   2   4    4.70    2.00
  -3   2  -4    0.20    2.70
  -4  -2  -4  190.88   13.90
   4  -2   4  174.88   11.00
   4  -2   4  180.98   12.60
   4   2   4  156.58   11.80
  -4   2  -4  159.08   12.40
   5  -2   4   23.00    4.50
   5  -2   4    8.60    2.60
  -5  -2  -4   18.90    5.60
  -5   2  -4   20.20    4.70
   5   2   4   20.80    4.20
   6  -2   4    3.80    2.20
  -6  -2  -4    4.20    3.60
   6  -2   4    6.00    2.90
   6   2   4    4.40    2.40
  -6   2  -4    6.50    3.70
   7  -2   4    2.90    2.70
   7  -2   4    7.90    3.10
  -7  -2  -4    9.90    5.10
  -7   2  -4    8.40    4.00
   7   2   4    6.20    3.10
   8  -2   4  131.09   12.90
  -8  -2  -4  134.69   16.80
   8  -2   4  163.28   16.10
   8   2   4  136.79   14.10
  -8   2  -4  131.49   13.60
  -9  -2  -4   86.79   13.60
   9  -2   4   82.79    9.80
   9  -2   4   89.49   11.90
  -9   2  -4   66.49   10.10
   9   2   4   70.89   10.20
  10  -2   4  206.68   18.00
 -10  -2  -4  226.88   24.00
  10   2   4  206.68   17.80
  11  -2   4  175.58   19.50
  11   2   4  225.38   21.70
  12  -2   4   41.50    9.30
  12   2   4   33.80    8.60
  13  -2   4  155.68   19.50
  13   2   4  164.88   19.90
  14  -3  -4   19.90    9.10
  14  -3  -4   15.00    8.20
  14   3  -4   17.70    9.00
  13  -3  -4  251.67   25.50
  13  -3  -4  214.48   24.50
  13   3  -4  188.68   22.50
  12  -3  -4   26.00    8.60
  12  -3  -4   41.80   10.00
  12   3  -4   29.70    8.50
  11  -3  -4  284.87   23.60
  11  -3  -4  276.27   23.90
  11   3  -4  307.87   24.80
  10  -3  -4  342.17   26.70
  10  -3  -4  346.27   25.90
  10   3  -4  346.57   26.70
   9  -3  -4   70.39   10.70
   9  -3  -4   78.99   12.30
   9   3  -4   79.09   11.70
   8  -3  -4  131.19   15.00
   8  -3  -4   87.79   11.40
   8   3  -4   79.49   11.40
   7  -3  -4  237.28   19.10
   7  -3  -4  240.38   18.50
   7   3  -4  270.07   20.10
   6  -3  -4   55.09    7.90
   6  -3  -4   57.39    8.50
   6   3  -4   64.69   10.00
  -5  -3   4  286.67   23.20
   5  -3  -4  315.87   20.70
   5  -3  -4  286.87   20.60
   4  -3  -4  779.62   45.10
   4  -3  -4  751.02   44.80
  -4  -3   4  699.93   47.50
   4  -3  -4  803.72   41.80
  -3  -3   4 1075.09   62.29
   3  -3  -4 1140.89   57.49
   3  -3  -4 1041.70   59.59
  -3   3   4  949.51   59.99
  -2  -3   4  364.66   24.50
   2  -3  -4  378.36   22.70
   2  -3  -4  367.86   21.50
  -1  -3   4 1025.20   60.39
   1  -3  -4 1081.19   57.89
   1  -3  -4 1072.69   57.89
  -1   3   4 1027.30   58.59
   0  -3  -4  288.37   18.40
   0  -3  -4  318.47   17.70
   0  -3   4  311.97   20.20
   0   3   4  275.57   18.80
  -1  -3  -4  232.68   13.90
  -1  -3  -4  224.38   15.50
   1  -3   4  234.58   15.70
   1  -3   4  236.78   14.60
   1   3   4  252.27   14.70
  -2  -3  -4    3.40    1.20
   2  -3   4    4.30    1.70
   2  -3   4    6.60    2.40
  -2  -3  -4   13.00    3.60
   2   3   4    2.00    1.30
  -3  -3  -4  127.09    8.10
   3  -3   4  116.49    8.60
   3  -3   4  124.59    9.80
  -3  -3  -4  133.59   10.80
   3   3   4  138.09    9.30
   4  -3   4  309.17   19.60
  -4  -3  -4  290.77   17.60
   4  -3   4  298.27   18.10
  -4  -3  -4  286.77   20.40
  -4   3  -4  317.27   19.70
   4   3   4  298.77   18.80
   5  -3   4  339.07   21.40
   5  -3   4  362.36   22.90
  -5  -3  -4  357.46   24.20
   5   3   4  349.96   22.30
  -5   3  -4  368.46   22.70
  -6  -3  -4   73.19   11.30
   6  -3   4   47.50    7.30
   6  -3   4   70.59    7.80
   6   3   4   66.69    8.10
  -6   3  -4   55.19    7.60
   7  -3   4   14.70    4.50
   7  -3   4   14.80    4.10
  -7  -3  -4   11.20    5.30
  -7   3  -4   19.20    4.90
   7   3   4   16.70    4.30
  -8  -3  -4   11.40    6.00
   8  -3   4   12.50    4.00
   8  -3   4    4.70    3.40
   8   3   4    6.70    3.50
  -8   3  -4    5.70    4.40
  -9  -3  -4   13.00    7.20
   9  -3   4   13.40    5.40
   9  -3   4   10.20    4.30
  -9   3  -4    5.50    5.00
   9   3   4   13.60    4.50
 -10  -3  -4   56.09   12.10
  10  -3   4   54.79    9.50
  10   3   4   71.79   11.10
  11  -3   4  226.78   19.90
 -11  -3  -4  222.98   25.10
  11   3   4  215.18   19.10
  12  -3   4   22.20    7.40
  12   3   4   16.40    6.40
  13  -3   4   75.09   13.20
  13   3   4   61.69   11.90
  14  -4  -4   12.60    7.90
  14  -4  -4   13.60    7.40
  14   4  -4    2.30    6.50
  13  -4  -4   15.10    7.90
  13  -4  -4   13.20    7.40
  13   4  -4   12.40    7.40
  12  -4  -4    0.20    4.80
  12  -4  -4    0.00    4.70
  12   4  -4    8.90    5.80
  11  -4  -4  185.68   21.00
  11  -4  -4  215.28   23.00
  11   4  -4  203.08   21.60
  10  -4  -4  267.57   26.00
  10  -4  -4  245.58   20.80
  10   4  -4  241.88   24.20
   9  -4  -4  242.28   21.20
   9  -4  -4  264.77   20.40
   9   4  -4  250.37   21.20
   8  -4  -4  116.89   13.10
   8  -4  -4   89.09   13.00
   8   4  -4  114.29   14.20
   7  -4  -4   -1.80    2.40
   7  -4  -4    5.50    3.50
   7   4  -4   10.70    5.30
   6  -4  -4  434.16   28.80
   6  -4  -4  443.16   29.80
  -6  -4   4  491.65   33.60
  -5  -4   4  205.68   21.10
   5  -4  -4  203.88   14.80
   5  -4  -4  166.88   14.40
   4  -4  -4  115.89    7.80
   4  -4  -4  115.79   10.30
  -4  -4   4  140.79   16.90
   4  -4  -4  125.19   10.70
   3  -4  -4   64.49    7.50
   3  -4  -4   52.79    5.30
  -3  -4   4   58.39    9.60
  -3   4   4   42.20    6.40
   2  -4  -4   60.59    6.90
  -2  -4   4   54.59    8.10
   2  -4  -4   71.09    5.80
  -2   4   4   67.69    7.70
   1  -4  -4 2068.29  105.29
  -1  -4   4 1855.61  107.49
   1  -4  -4 1935.71  105.09
  -1   4   4 1918.31  105.39
   0  -4  -4  616.84   36.50
   0  -4  -4  615.24   35.70
   0  -4   4  665.83   36.40
   0  -4   4  648.64   37.90
  -1  -4  -4    2.20    1.30
  -1  -4  -4    3.00    2.50
   1  -4   4    0.00    0.60
   1  -4   4    0.90    1.80
   1   4   4    3.80    1.50
  -2  -4  -4 1354.46   72.79
   2  -4   4 1410.16   73.79
   2  -4   4 1295.27   74.29
  -2  -4  -4 1337.27   75.09
   2   4   4 1351.46   73.09
   3  -4   4  428.66   26.90
  -3  -4  -4  438.66   28.10
   3  -4   4  444.76   26.20
  -3  -4  -4  466.95   25.60
   3   4   4  452.95   26.10
   4  -4   4  193.98   13.20
   4  -4   4  193.98   14.10
  -4  -4  -4  206.48   12.80
  -4  -4  -4  200.58   15.50
   5  -4   4   21.40    4.00
   5  -4   4   16.30    4.00
  -5  -4  -4   14.00    4.90
  -5  -4  -4   23.40    4.10
   5   4   4   18.40    3.80
   6  -4   4  256.57   17.90
   6  -4   4  275.17   19.10
  -6  -4  -4  276.57   20.80
   6   4   4  277.47   18.50
   7  -4   4  183.88   14.20
   7  -4   4  172.98   14.80
  -7  -4  -4  198.58   17.30
   7   4   4  203.38   14.90
   8  -4   4  482.65   30.60
   8  -4   4  464.15   31.30
  -8  -4  -4  496.85   34.10
   8   4   4  479.75   30.80
   9  -4   4   -1.20    2.90
  -9  -4  -4    3.00    6.00
   9  -4   4    3.60    3.50
   9   4   4   -2.00    2.20
 -10  -4  -4  109.59   17.40
  10  -4   4  106.29   13.70
  10   4   4  109.99   13.60
  11  -4   4  409.96   29.00
 -11  -4  -4  355.46   31.20
  11   4   4  379.36   28.10
  12  -4   4    4.60    5.20
  12   4   4    0.30    4.30
  13  -4   4  110.09   16.50
  13   4   4   89.69   14.20
  14  -5  -4    6.40    6.90
  14  -5  -4   17.90    9.00
  14   5  -4   12.50    7.40
  13  -5  -4   82.89   15.20
  13  -5  -4   83.49   15.00
  13   5  -4   55.59   12.00
  12  -5  -4    7.60    6.40
  12  -5  -4    5.70    5.40
  12   5  -4    7.80    6.50
  11  -5  -4  150.28   19.70
  11  -5  -4  154.68   17.90
  11   5  -4  179.58   20.30
  10  -5  -4  301.77   24.70
  10  -5  -4  334.57   26.60
  10   5  -4  337.87   26.30
   9  -5  -4  190.58   20.20
   9  -5  -4  172.48   17.80
   9   5  -4  193.08   19.70
   8  -5  -4  356.96   25.30
   8  -5  -4  345.27   26.20
   8   5  -4  369.06   27.10
   7  -5  -4  249.97   18.50
  -7  -5   4  249.38   26.60
   7  -5  -4  232.68   19.30
   6  -5  -4   58.99    9.60
   6  -5  -4   78.19    9.70
  -6  -5   4   91.39   14.30
   5  -5  -4  466.65   28.10
   5  -5  -4  447.76   24.30
  -5  -5   4  385.66   31.30
   5  -5  -4  413.36   28.40
   4  -5  -4  136.19   11.20
  -4  -5   4  116.39   14.70
   4  -5  -4  105.89   11.20
   4  -5  -4  126.59    8.40
   3  -5  -4  245.18   16.40
  -3  -5   4  223.38   18.20
   3  -5  -4  227.18   14.40
   2  -5  -4   56.99    6.90
  -2  -5   4   68.59    9.20
   2  -5  -4   62.19    6.70
  -2   5   4   66.39    7.30
  -1  -5   4   21.20    4.30
  -1  -5   4   34.30    6.70
   1  -5  -4   28.50    4.40
   1  -5  -4   32.80    4.90
  -1   5   4   28.40    4.30
   0  -5   4   15.40    4.00
   0  -5  -4    6.00    2.20
   0  -5   4    7.70    2.50
   0  -5  -4    3.90    2.50
   0   5   4   10.90    2.30
   1  -5   4   12.80    3.30
   1  -5   4   14.40    3.20
  -1  -5  -4   11.40    3.90
  -1  -5  -4   13.40    2.80
   1   5   4   14.60    2.30
   2  -5   4   10.20    3.20
  -2  -5  -4   12.50    3.90
  -2  -5  -4   13.70    2.70
   2   5   4    9.90    2.10
  -3  -5  -4  170.78   11.40
   3  -5   4  153.08   11.80
  -3  -5  -4  187.68   14.00
   3  -5   4  174.58   12.50
   3   5   4  175.38   11.30
  -4  -5  -4 1137.09   61.19
   4  -5   4 1092.59   61.89
  -4  -5  -4 1097.19   63.99
   4  -5   4 1090.09   62.39
   4   5   4 1122.89   61.29
  -5  -5  -4 1865.91   99.39
   5  -5   4 1915.21  100.99
  -5  -5  -4 1806.72  102.59
   5  -5   4 1725.03   99.79
   6  -5   4 1095.19   64.79
   6  -5   4 1214.58   65.99
  -6  -5  -4 1108.29   64.39
  -6  -5  -4 1219.58   68.19
   6   5   4 1139.49   64.79
   7  -5   4    1.90    2.60
  -7  -5  -4    7.30    5.10
   7  -5   4    2.40    2.70
  -7  -5  -4    5.90    3.60
   7   5   4    1.50    2.30
   8  -5   4   12.60    4.90
   8  -5   4    4.60    3.20
  -8  -5  -4   13.60    6.30
   8   5   4   11.30    3.90
  -9  -5  -4  152.88   20.70
   9  -5   4  187.08   16.20
   9  -5   4  206.28   16.20
   9   5   4  172.18   15.30
 -10  -5  -4   22.80    9.20
  10  -5   4   19.40    6.30
  10   5   4   33.80    7.50
 -11  -5  -4   21.50    9.90
  11  -5   4   16.50    6.50
  11   5   4   13.40    5.30
  12  -5   4   18.60    7.30
  12   5   4   17.00    6.30
  13  -5   4    6.30    6.10
  13   5   4    5.80    6.10
  14  -6  -4    2.70    7.50
  14  -6  -4    9.10    7.80
  14   6  -4    1.00    7.00
  13  -6  -4    7.70    6.50
  13  -6  -4   27.40   10.30
  13   6  -4   10.60    7.80
  12  -6  -4   70.09   14.20
  12  -6  -4   41.60   11.10
  12   6  -4   53.59   11.60
  11  -6  -4    2.50    4.80
  11  -6  -4    1.40    5.30
  11   6  -4    4.40    5.80
  10  -6  -4  140.59   18.70
  10  -6  -4  105.49   14.40
  10   6  -4  139.19   17.50
   9  -6  -4  698.23   44.50
   9  -6  -4  661.13   45.90
  -9  -6   4  787.22   52.19
   9   6  -4  702.73   46.30
   8  -6  -4  240.08   20.90
   8  -6  -4  241.98   19.60
  -8  -6   4  314.47   32.80
  -7  -6   4   18.90    8.60
   7  -6  -4   23.30    6.10
   7  -6  -4    8.80    5.10
  -6  -6   4    6.60    6.00
   6  -6  -4   13.00    5.10
   6  -6  -4   12.50    4.60
  -5  -6   4   47.40   10.50
   5  -6  -4   43.70    6.60
   5  -6  -4   36.30    6.60
   5  -6  -4   43.10    4.50
   4  -6  -4  270.97   19.50
  -4  -6   4  285.07   22.70
   4  -6  -4  264.17   18.70
   4  -6  -4  292.47   17.00
  -3  -6   4  354.56   23.90
   3  -6  -4  322.57   21.60
   3  -6  -4  318.07   19.70
   2  -6  -4   13.20    3.20
  -2  -6   4   15.90    4.10
  -2  -6   4   13.60    4.80
   2  -6  -4    8.70    2.90
  -2   6   4   15.10    3.40
  -1  -6   4   23.40    4.60
   1  -6  -4   24.50    4.40
  -1  -6   4   33.80    6.80
  -1   6   4   26.60    4.00
   0  -6   4   81.69    8.70
   0  -6  -4   60.89    6.80
   0  -6   4   62.49    7.40
   0   6   4   67.59    5.10
   1  -6   4   10.80    3.20
  -1  -6  -4   15.80    3.10
   1  -6   4   15.50    3.60
   1   6   4   10.90    1.90
  -2  -6  -4  400.86   25.70
   2  -6   4  406.36   24.60
   2  -6   4  389.46   24.70
  -2  -6  -4  396.16   23.80
   2   6   4  401.86   22.70
  -3  -6  -4  818.82   48.80
  -3  -6  -4  820.72   46.50
   3  -6   4  828.72   47.30
   3   6   4  837.72   45.80
   4  -6   4 1031.30   60.89
  -4  -6  -4 1039.00   62.49
  -4  -6  -4 1095.79   60.19
   4  -6   4 1073.89   60.99
   4   6   4 1145.29   59.89
  -5  -6  -4   38.70    8.60
   5  -6   4   36.60    6.10
   5  -6   4   30.40    5.70
  -5  -6  -4   33.30    5.10
   5   6   4   35.70    5.20
   6  -6   4  597.94   37.00
   6  -6   4  609.74   36.70
  -6  -6  -4  601.14   39.50
  -6  -6  -4  610.24   36.00
  -7  -6  -4  369.96   27.20
   7  -6   4  363.06   24.50
   7  -6   4  338.07   23.90
  -7  -6  -4  365.06   23.60
   7   6   4  349.47   23.50
  -8  -6  -4  247.08   22.00
   8  -6   4  251.47   19.20
   8  -6   4  233.38   18.70
  -8  -6  -4  247.98   18.40
   8   6   4  255.57   18.60
   9  -6   4    3.70    4.10
  -9  -6  -4   -4.80    4.80
   9  -6   4   -0.30    3.30
   9   6   4    1.70    3.10
 -10  -6  -4   77.19   15.60
  10  -6   4   65.99   10.90
  10  -6   4   99.79   14.50
  10   6   4   56.79    9.40
  11  -6   4   22.90    7.80
 -11  -6  -4   16.10    9.60
  11   6   4   33.90    8.00
  12  -6   4   19.00    7.60
 -12  -6  -4   12.90   11.30
  12   6   4    4.70    5.00
  14  -7  -4   26.40   10.30
  14   7  -4   31.20   10.30
  13  -7  -4   27.20   10.00
 -13  -7   4   44.30   16.70
  13  -7  -4   30.00   10.10
  13   7  -4   36.30   10.40
  12  -7  -4   -3.00    5.00
 -12  -7   4    3.50    8.70
  12  -7  -4   -1.70    4.90
  12   7  -4   -2.40    5.40
 -11  -7   4  135.39   23.20
  11  -7  -4  110.39   15.50
  11  -7  -4  116.89   17.60
  11   7  -4  134.29   17.60
 -10  -7   4  129.79   22.20
  10  -7  -4  117.99   15.40
  10  -7  -4  107.79   16.20
   9  -7  -4  239.48   25.20
  -9  -7   4  288.17   32.40
   9  -7  -4  275.47   21.70
  -8  -7   4 1243.58   77.19
   8  -7  -4 1205.18   69.79
   8  -7  -4 1142.89   71.29
   7  -7  -4  111.79   12.70
  -7  -7   4   98.79   17.60
   7  -7  -4  118.89   14.60
  -6  -7   4 1048.50   64.89
   6  -7  -4 1014.90   59.69
   6  -7  -4  940.01   53.89
   6  -7  -4 1048.00   58.29
   5  -7  -4   41.10    4.80
  -5  -7   4   28.10    8.80
   5  -7  -4   30.60    6.30
   5  -7  -4   32.50    6.10
   4  -7  -4   22.70    4.70
   4  -7  -4   25.80    4.10
   4  -7  -4   23.80    5.30
  -4  -7   4   19.30    6.70
   3  -7  -4  210.58   16.10
  -3  -7   4  217.38   17.80
  -3  -7   4  248.98   17.40
  -2  -7   4   47.50    7.20
   2  -7  -4   50.09    7.00
  -2  -7   4   73.79    9.60
  -2   7   4   54.69    6.30
  -1  -7   4  128.99   10.70
  -1  -7   4  139.69   13.30
   1  -7  -4  113.49   10.00
  -1   7   4  119.29    8.70
   0  -7   4   55.19    7.10
   0  -7  -4   52.19    6.70
   0  -7   4   68.39    7.60
   1  -7   4  224.98   15.30
   1  -7   4  231.78   16.00
  -1  -7  -4  214.88   15.00
   1   7   4  224.38   12.80
   2  -7   4  254.37   18.10
   2  -7   4  256.77   17.50
  -2  -7  -4  273.17   17.40
   2   7   4  274.47   15.60
  -3  -7  -4   46.10    6.00
   3  -7   4   50.89    6.80
   3  -7   4   66.49    8.10
   3   7   4   54.19    5.40
   4  -7   4  385.16   25.10
  -4  -7  -4  368.06   26.30
  -4  -7  -4  386.16   24.10
   4  -7   4  395.36   24.60
   4   7   4  388.96   23.10
  -5  -7  -4  155.58   16.50
   5  -7   4  121.49   10.90
  -5  -7  -4  135.19   12.50
   5   7   4  130.19   10.10
   6  -7   4  613.94   38.70
   6  -7   4  641.34   39.00
  -6  -7  -4  630.14   38.10
  -6  -7  -4  614.54   41.10
   6   7   4  674.33   37.90
  -7  -7  -4   32.10    8.70
   7  -7   4   23.50    6.00
  -7  -7  -4   36.30    6.30
   7  -7   4   30.80    6.40
   7   7   4   28.10    5.50
   8  -7   4  145.79   15.40
  -8  -7  -4  162.88   14.90
   8  -7   4  123.79   14.60
  -8  -7  -4  141.19   19.50
  -9  -7  -4    6.30    7.90
   9  -7   4    9.80    5.00
   9  -7   4   19.60    6.50
   9   7   4   21.60    5.70
 -10  -7  -4    8.60    7.20
  10  -7   4   22.50    7.00
  10  -7   4   16.10    6.30
  10   7   4   15.40    5.20
 -11  -7  -4    7.20    7.70
  11  -7   4    9.00    5.80
  11   7   4    4.50    4.70
  12  -7   4   40.40   10.20
 -12  -7  -4   43.80   15.40
  12   7   4   40.00    9.60
  13  -8  -4   50.29   11.80
  13  -8  -4   83.09   16.80
 -13  -8   4   56.69   19.60
  12  -8  -4    2.10    5.40
  12  -8  -4   -5.90    4.80
 -12  -8   4    2.60   10.70
  11  -8  -4   24.40    8.30
  11  -8  -4   10.70    6.80
 -11  -8   4    3.90    9.80
  10  -8  -4   80.49   13.80
 -10  -8   4   78.29   18.20
  10  -8  -4   69.99   12.00
  -9  -8   4  278.57   33.30
   9  -8  -4  270.27   22.60
   9  -8  -4  347.07   26.20
  -8  -8   4   92.69   18.70
   8  -8  -4   90.39   13.40
   8  -8  -4   87.29   12.00
   7  -8  -4  337.17   25.20
  -7  -8   4  293.07   32.90
   7  -8  -4  329.27   23.30
   6  -8  -4    5.10    2.50
   6  -8  -4    0.40    3.60
   6  -8  -4    4.70    4.00
  -6  -8   4   -1.10    6.00
  -5  -8   4   69.29   13.00
   5  -8  -4   56.49    9.20
   5  -8  -4   76.69    7.20
   5  -8  -4   56.49    8.30
  -4  -8   4   12.40    5.00
  -4  -8   4   11.00    5.50
   4  -8  -4   11.20    3.50
   4  -8  -4    8.60    3.80
  -3  -8   4   50.79    7.90
  -3  -8   4   62.99    9.30
   3  -8  -4   37.10    6.50
  -3   8   4   40.90    6.00
  -2  -8   4 2036.60  111.99
   2  -8  -4 1951.00  111.29
  -2  -8   4 2132.69  112.49
  -2   8   4 1983.10  108.99
  -1  -8   4  521.05   32.80
   1  -8  -4  523.15   32.30
  -1  -8   4  538.45   32.60
   0  -8   4  211.48   15.40
   0  -8  -4  195.48   14.50
   0  -8   4  196.98   14.20
   1  -8   4   94.79   10.50
   1  -8   4   92.29    8.40
  -1  -8  -4  107.59    9.00
   2  -8   4   90.49    8.90
  -2  -8  -4   68.99    8.00
   2  -8   4   92.59   10.10
   2   8   4   83.49    5.80
  -3  -8  -4    4.80    2.40
   3  -8   4    5.20    3.50
   3  -8   4   11.40    3.60
   3   8   4    9.70    2.20
   4  -8   4  209.68   16.10
  -4  -8  -4  212.58   15.20
   4  -8   4  225.68   15.40
   4   8   4  192.28   13.50
  -5  -8  -4   55.29   10.40
  -5  -8  -4   52.99    7.20
   5  -8   4   45.00    7.00
   5  -8   4   42.10    7.40
   5   8   4   40.80    5.80
  -6  -8  -4   72.39   12.80
  -6  -8  -4   73.19    9.10
   6  -8   4   69.29    9.40
   6   8   4   58.89    7.60
   7  -8   4  133.59   14.50
   7  -8   4  135.39   14.40
  -7  -8  -4  144.99   18.50
  -7  -8  -4  150.98   14.30
   7   8   4  124.59   11.20
  -8  -8  -4   13.10    8.30
   8  -8   4   14.20    5.30
   8  -8   4   18.10    5.80
  -8  -8  -4    3.50    4.00
   8   8   4   13.50    4.30
  -9  -8  -4   54.09   13.20
   9  -8   4   69.99   11.40
   9  -8   4   70.39   10.80
  10  -8   4    9.00    5.50
  10  -8   4   17.00    6.50
 -10  -8  -4    7.80    7.70
  10   8   4   15.90    5.60
  11  -8   4    4.70    5.20
 -11  -8  -4   12.50   10.20
  11   8   4    9.00    5.40
 -12  -8  -4  194.08   27.70
  12  -8   4  279.17   27.40
  12   8   4  262.77   22.50
  13  -9  -4  176.98   22.60
  13  -9  -4  205.08   26.90
 -13  -9   4  145.49   28.20
 -12  -9   4    9.80   12.40
  12  -9  -4   13.20    8.50
  12  -9  -4   17.80    8.00
  11  -9  -4   51.09   11.20
  11  -9  -4   55.59   12.90
 -11  -9   4   33.30   14.20
 -10  -9   4   11.80   11.40
  10  -9  -4   15.80    8.20
  10  -9  -4   33.50    8.70
   9  -9  -4   11.00    5.80
   9  -9  -4    8.60    5.50
  -9  -9   4    8.40    9.60
  -8  -9   4   39.20   13.50
   8  -9  -4   22.00    7.30
   8  -9  -4   45.90    8.50
   7  -9  -4  104.89   12.50
  -7  -9   4  100.49   18.00
   7  -9  -4   98.59   13.80
   6  -9  -4  679.83   39.10
   6  -9  -4  597.04   35.40
   6  -9  -4  634.04   40.90
  -6  -9   4  605.14   45.00
  -5  -9   4  159.38   20.10
  -5  -9   4  178.88   18.40
   5  -9  -4  179.88   17.50
   5  -9  -4  174.58   14.10
   4  -9  -4   10.60    3.60
   4  -9  -4    1.80    3.10
  -4  -9   4   13.80    5.90
  -4  -9   4    5.70    4.00
  -3  -9   4  561.84   36.70
   3  -9  -4  557.84   36.00
  -3  -9   4  612.44   37.00
   2  -9  -4 1167.18   65.99
  -2  -9   4 1196.78   66.59
  -2  -9   4 1091.69   65.79
  -2   9   4 1137.39   62.69
  -1  -9   4   49.00    7.30
   1  -9  -4   50.59    7.40
  -1  -9   4   62.49    8.80
   0  -9   4   27.10    5.70
   0  -9   4   17.90    4.10
   0  -9  -4   26.70    5.30
   1  -9   4  117.49    9.60
  -1  -9  -4  144.29   11.10
   1  -9   4   97.99   11.30
   2  -9   4   30.50    5.00
  -2  -9  -4   25.10    5.10
   2  -9   4   28.10    6.00
   2   9   4   29.00    3.00
  -3  -9  -4   49.90    7.10
   3  -9   4   54.69    8.40
   3  -9   4   46.20    6.70
   3   9   4   53.89    5.20
   4  -9   4    3.20    3.30
  -4  -9  -4    6.90    2.90
   4  -9   4    3.30    2.90
   4   9   4    4.90    2.20
   5  -9   4   87.59   11.20
  -5  -9  -4   80.89    9.60
   5  -9   4   80.99    9.80
   5   9   4   68.39    7.80
   6  -9   4   38.00    7.00
  -6  -9  -4   32.40    9.60
   6  -9   4   32.30    7.40
  -6  -9  -4   37.10    6.60
   6   9   4   31.00    5.50
  -7  -9  -4    6.30    5.70
  -7  -9  -4   15.40    5.00
   7  -9   4   14.60    5.60
   7  -9   4    6.90    4.40
   7   9   4    7.00    3.20
  -8  -9  -4  177.98   17.30
  -8  -9  -4  163.68   22.20
   8  -9   4  190.68   16.10
   8   9   4  162.88   14.50
  -9  -9  -4   51.59   14.10
   9  -9   4   66.69   10.90
   9  -9   4   62.09   10.90
   9   9   4   57.79    9.70
 -10  -9  -4    7.00    8.10
  10  -9   4    9.40    5.80
  10  -9   4    5.40    5.80
  10   9   4   13.00    4.90
  11  -9   4    3.30    5.80
 -11  -9  -4   13.70    9.00
  11   9   4    2.40    3.70
  12  -9   4   -0.50    5.80
  12   9   4    3.00    5.60
  12 -10  -4  153.38   21.80
 -12 -10   4  149.69   27.90
  12 -10  -4  203.68   22.40
 -11 -10   4   13.00   11.00
  11 -10  -4    2.60    6.80
  11 -10  -4   -1.40    5.30
  10 -10  -4   -0.80    5.40
  10 -10  -4   -4.80    4.50
 -10 -10   4    6.40   10.40
  -9 -10   4   14.10   11.30
   9 -10  -4   16.40    6.80
   9 -10  -4   26.70    8.90
   8 -10  -4   52.09    9.10
   8 -10  -4   46.90   10.20
  -8 -10   4   47.50   14.40
   7 -10  -4   -3.00    3.30
  -7 -10   4   14.20    9.20
  -7 -10   4    6.30    5.50
   7 -10  -4    8.50    5.00
   6 -10  -4    9.50    4.80
  -6 -10   4   10.70    8.00
  -6 -10   4   12.60    5.90
   6 -10  -4   14.60    3.90
   5 -10  -4   18.90    6.00
  -5 -10   4   33.30    7.60
   5 -10  -4   29.00    5.80
  -5 -10   4   38.70    9.70
  -4 -10   4  527.95   33.80
  -4 -10   4  569.64   34.50
   4 -10  -4  482.75   32.70
   4 -10  -4  444.26   29.90
  -3 -10   4   44.30    7.80
  -3 -10   4   30.10    7.10
   3 -10  -4   38.90    7.60
  -3  10   4   34.90    5.50
  -2 -10   4  129.69   13.70
  -2 -10   4  123.99   12.60
   2 -10  -4   96.79   12.00
  -1 -10   4  496.55   29.50
  -1 -10   4  486.15   31.60
   1 -10  -4  468.95   30.90
   0 -10  -4   21.00    5.00
   0 -10   4   19.40    4.20
   0 -10   4   17.50    4.90
   1 -10   4  660.13   41.00
   1 -10   4  671.83   38.70
  -1 -10  -4  662.93   40.30
   2 -10   4  578.84   37.90
   2 -10   4  596.24   35.60
  -2 -10  -4  642.74   37.30
  -3 -10  -4   24.50    5.50
   3 -10   4   35.60    7.20
   3 -10   4   21.10    4.60
   3  10   4   29.40    3.80
  -4 -10  -4    3.60    3.00
   4 -10   4    6.80    4.00
   4 -10   4    7.10    3.30
   4  10   4    9.90    2.70
  -5 -10  -4   25.90    5.80
   5 -10   4   16.30    5.90
   5 -10   4   17.90    4.60
   5  10   4   31.80    5.10
  -6 -10  -4   31.00    9.20
   6 -10   4   28.30    7.60
   6 -10   4   40.30    7.30
  -6 -10  -4   24.50    6.40
   6  10   4   24.30    5.10
   7 -10   4    3.00    4.30
  -7 -10  -4    5.20    6.30
   7 -10   4   13.20    4.70
  -7 -10  -4    2.10    3.70
   7  10   4    4.90    3.10
  -8 -10  -4  100.99   12.80
  -8 -10  -4   88.49   15.50
   8 -10   4  113.19   14.80
   8 -10   4   80.79   11.80
   8  10   4   92.89   11.30
   9 -10   4   76.69   12.00
  -9 -10  -4   71.39   14.70
   9  10   4   67.09   10.40
 -10 -10  -4   46.40   13.70
  10 -10   4   39.20   10.20
  10 -10   4   40.80    9.20
  11 -10   4   70.39   12.70
 -11 -10  -4   76.19   17.30
  12 -11  -4   26.50   11.50
  12 -11  -4   15.10    7.80
 -12 -11   4   20.40   14.50
 -11 -11   4    2.90   10.30
  11 -11  -4    7.00    7.70
  11 -11  -4    3.20    5.90
  10 -11  -4    8.00    7.70
  10 -11  -4    0.60    6.40
 -10 -11   4   -1.60    9.80
   9 -11  -4   45.80    9.60
  -9 -11   4   16.10   11.40
  -9 -11   4   36.60   10.40
   9 -11  -4   48.10   11.60
  -8 -11   4   79.49   13.40
   8 -11  -4   63.09   10.50
  -8 -11   4   27.40   12.10
   8 -11  -4   78.19   13.90
   7 -11  -4   16.20    6.70
  -7 -11   4   21.60   10.50
   7 -11  -4   18.60    6.20
  -7 -11   4    8.30    5.70
  -6 -11   4   33.30    8.50
  -6 -11   4   31.20    9.80
   6 -11  -4   19.90    6.60
   6 -11  -4   22.60    6.40
  -5 -11   4   75.59   12.60
   5 -11  -4   70.39   11.40
  -5 -11   4   72.59   11.10
   5 -11  -4   86.89   10.20
  -4 -11   4   30.20    7.80
  -4 -11   4   27.20    7.20
   4 -11  -4   30.40    7.30
  -3 -11   4  239.68   18.90
  -3 -11   4  211.28   17.60
   3 -11  -4  216.08   18.10
  -3  11   4  224.78   15.30
   2 -11  -4  362.06   25.90
  -2 -11   4  370.16   24.30
  -2 -11   4  386.36   26.60
  -1 -11   4  369.36   23.30
   1 -11  -4  370.96   25.60
  -1 -11   4  371.46   26.00
   0 -11   4  464.75   29.00
   0 -11  -4  490.15   31.40
   0 -11   4  514.05   32.20
   1 -11   4  449.06   29.50
  -1 -11  -4  436.36   28.70
   1 -11   4  426.76   26.50
   2 -11   4  690.33   38.50
   2 -11   4  583.54   40.60
  -2 -11  -4  676.03   40.40
   3 -11   4   12.80    3.80
  -3 -11  -4   10.20    4.20
   3 -11   4   12.40    4.90
  -4 -11  -4   92.59   11.20
   4 -11   4   83.59    9.90
   4 -11   4  114.99   13.90
  -5 -11  -4  157.98   15.70
   5 -11   4  153.68   13.10
   5 -11   4  134.89   16.30
  -6 -11  -4   48.40    8.50
   6 -11   4   30.70    6.70
   6 -11   4   35.60    8.60
   7 -11   4   50.79    8.90
  -7 -11  -4   17.00    9.30
   7 -11   4   46.60   10.10
  -7 -11  -4   40.20    8.30
  -8 -11  -4  201.18   25.20
   8 -11   4  200.58   18.00
  -8 -11  -4  205.88   20.20
   8 -11   4  260.17   24.30
   9 -11   4   32.60    8.80
   9 -11   4   43.20   10.40
  -9 -11  -4   49.00   13.40
  10 -11   4   -1.60    3.50
  10 -11   4   20.90    7.40
 -10 -11  -4   19.50    9.70
  11 -11   4   27.70    8.70
 -11 -11  -4    6.80    9.80
 -11 -12   4   22.60   10.30
  11 -12  -4   29.80    9.60
  11 -12  -4   25.60   10.60
  10 -12  -4    7.50    7.90
  10 -12  -4    2.20    6.60
 -10 -12   4   14.40    8.10
 -10 -12   4    1.80   11.80
  -9 -12   4   29.20   10.40
   9 -12  -4   30.50    9.10
   9 -12  -4   56.09   13.10
  -9 -12   4    8.60   11.20
  -8 -12   4    3.10   10.00
  -8 -12   4    3.30    5.70
   8 -12  -4    9.10    6.10
   8 -12  -4   12.50    6.80
   7 -12  -4  125.09   14.80
   7 -12  -4  142.69   18.70
  -7 -12   4  127.39   17.30
  -7 -12   4  122.59   19.50
   6 -12  -4 1002.20   63.49
  -6 -12   4 1102.59   65.79
   6 -12  -4  974.30   59.99
  -6 -12   4 1047.40   64.19
  -5 -12   4   33.90    9.20
   5 -12  -4   24.30    6.90
   5 -12  -4   33.10    6.20
  -5 -12   4   29.60    8.10
  -4 -12   4   13.20    5.80
  -4 -12   4   15.70    5.70
   4 -12  -4    7.10    4.90
  -3 -12   4   80.79   10.30
   3 -12  -4   56.09    9.60
  -3 -12   4   57.29    9.60
  -2 -12   4  198.48   17.20
   2 -12  -4  200.18   19.40
  -2 -12   4  195.88   14.50
  -1 -12   4    0.70    3.10
  -1 -12   4    3.60    2.80
   1 -12  -4    5.80    3.70
   0 -12   4   57.49    9.40
   0 -12  -4   44.30    8.00
   0 -12   4   44.60    6.10
   1 -12   4   58.89    7.30
   1 -12   4   74.69   10.20
  -1 -12  -4   66.89    9.40
   2 -12   4   50.69    6.70
   2 -12   4   44.10    8.30
  -2 -12  -4   49.10    8.10
  -3 -12  -4   22.20    5.70
   3 -12   4   21.50    6.20
   3 -12   4   23.00    4.90
  -4 -12  -4    9.20    4.90
   4 -12   4   14.90    4.40
   4 -12   4    6.70    4.80
   5 -12   4   35.90    9.00
   5 -12   4   34.10    6.60
  -5 -12  -4   31.10    6.90
   6 -12   4   26.90    7.00
   6 -12   4   20.50    5.70
  -6 -12  -4   16.00    5.30
  -7 -12  -4  119.69   15.20
   7 -12   4  145.29   15.60
  -7 -12  -4  106.29   17.80
   7 -12   4  152.48   18.50
  -8 -12  -4   36.80   12.00
   8 -12   4   36.10    8.40
   8 -12   4   33.40    9.60
  -8 -12  -4   45.70    9.30
   9 -12   4   36.10    8.70
  -9 -12  -4   19.30   10.20
   9 -12   4   22.30    9.50
 -10 -12  -4   10.90    9.30
  10 -12   4    5.30    5.50
  10 -12   4    7.80    6.90
  11 -13  -4   87.09   17.80
 -11 -13   4  110.59   18.80
  11 -13  -4   80.39   14.90
  10 -13  -4   31.70   12.00
  10 -13  -4   17.50    8.90
 -10 -13   4   46.90   12.50
   9 -13  -4   15.30    8.70
  -9 -13   4    4.20    6.80
   8 -13  -4   21.70    8.10
  -8 -13   4   25.30    8.70
   7 -13  -4    0.90    4.90
  -7 -13   4    6.00    6.20
   6 -13  -4  109.09   16.30
  -6 -13   4   94.99   14.90
  -5 -13   4  816.72   50.99
   5 -13  -4  735.63   49.70
   4 -13  -4  208.28   21.60
  -4 -13   4  225.38   22.30
   3 -13  -4    6.60    5.00
  -3 -13   4   24.50    6.60
  -2 -13   4    9.20    4.70
   2 -13  -4   17.40    6.00
   1 -13  -4   61.39    9.70
  -1 -13   4   62.89    7.30
  -1 -13   4   61.39   10.20
   0 -13   4  203.58   14.20
   0 -13   4  181.48   19.20
   0 -13  -4  218.48   17.60
   1 -13   4  133.39   10.40
   1 -13   4  112.19   14.00
  -1 -13  -4  130.19   14.40
   2 -13   4   53.59    9.60
  -2 -13  -4   41.30    8.00
   2 -13   4   46.40    6.70
   3 -13   4  241.38   20.90
   3 -13   4  259.47   17.60
  -3 -13  -4  245.58   19.70
   4 -13   4    7.30    3.60
   4 -13   4    8.40    5.00
  -4 -13  -4   15.00    5.50
   5 -13   4   12.30    6.10
   5 -13   4    6.90    3.90
  -5 -13  -4   12.50    5.30
   6 -13   4   41.00    8.00
  -6 -13  -4   54.29    9.80
   6 -13   4   55.39   11.20
   7 -13   4  124.99   17.90
   7 -13   4  121.59   14.40
  -7 -13  -4  104.49   17.90
  -7 -13  -4  105.49   14.10
   8 -13   4   -3.30    4.00
   8 -13   4    0.00    5.60
  -8 -13  -4   -8.10    6.30
   9 -13   4  121.39   15.50
  -9 -13  -4   99.89   19.40
   9 -13   4  163.58   21.30
  10 -13   4   47.90   10.20
 -10 -14   4    8.30    8.10
  10 -14  -4   10.00    8.90
  -9 -14   4    6.60    7.00
   9 -14  -4    1.60    7.10
  -8 -14   4   56.79   11.90
   8 -14  -4   73.69   14.30
   7 -14  -4    0.90    6.40
  -7 -14   4   16.70    7.90
  -6 -14   4  105.19   16.10
   6 -14  -4  109.29   15.90
  -5 -14   4  233.18   23.80
   5 -14  -4  181.18   21.00
   4 -14  -4    2.70    5.30
  -4 -14   4    8.70    5.90
  -3 -14   4   10.20    6.00
   3 -14  -4    0.40    3.70
   2 -14  -4    7.50    4.60
  -2 -14   4    2.10    4.30
  -1 -14   4   83.79   12.40
   1 -14  -4   67.59   11.40
   0 -14   4   48.40    9.50
   0 -14  -4   51.89    9.70
   1 -14   4 1019.10   64.89
  -1 -14  -4 1135.69   64.99
   2 -14   4   28.90    7.70
  -2 -14  -4   25.00    6.90
  -3 -14  -4   50.49    9.50
   3 -14   4   64.29   11.40
  -4 -14  -4   80.89   11.70
   4 -14   4   91.29   14.00
   4 -14   4   81.89   10.00
   5 -14   4   31.20    6.90
  -5 -14  -4   27.20    7.70
   5 -14   4   44.10   10.70
   6 -14   4  110.69   13.10
   6 -14   4  107.89   16.50
  -6 -14  -4   92.09   13.20
   7 -14   4    4.00    5.00
  -7 -14  -4   16.10    6.40
   7 -14   4   11.10    7.30
   8 -14   4  121.29   18.40
  -8 -14  -4   45.30   14.80
   8 -14   4  100.09   13.50
   9 -14   4  228.18   23.10
  -9 -14  -4  195.68   27.50
   9 -14   4  315.77   31.20
   9 -15  -4    1.60    7.40
  -9 -15   4    7.50    7.40
  -8 -15   4   -0.40    6.80
   8 -15  -4    2.80    7.00
   7 -15  -4  104.89   16.80
  -7 -15   4   79.59   14.80
  -6 -15   4    6.20    6.10
   6 -15  -4    6.90    6.40
   5 -15  -4   45.70   10.50
  -5 -15   4   50.99   10.70
  -4 -15   4   13.20    6.20
   4 -15  -4    5.00    5.80
   3 -15  -4   25.40    7.90
  -3 -15   4   29.30    8.20
  -2 -15   4    2.20    4.00
   2 -15  -4    3.40    5.60
   1 -15  -4   27.10    7.60
  -1 -15   4   36.00    9.60
   0 -15   4  167.78   18.70
   0 -15  -4  160.78   17.90
   1 -15   4  234.88   23.80
  -1 -15  -4  249.08   20.90
  -2 -15  -4    0.60    4.40
   2 -15   4    9.80    6.20
   3 -15   4    4.40    5.20
  -3 -15  -4   -3.70    4.10
   4 -15   4   22.40    8.10
  -4 -15  -4   14.00    5.90
  -5 -15  -4    3.20    5.20
   5 -15   4   17.50    7.50
   6 -15   4    2.80    6.00
  -6 -15  -4   18.00    7.10
   7 -15   4    6.40    6.10
  -7 -15  -4   -1.00    4.80
  -8 -15  -4   11.80    9.70
   8 -15   4   18.00    9.40
  -8 -16   4    0.30    6.00
   8 -16  -4    1.30    8.00
  -7 -16   4  108.69   17.40
   7 -16  -4  147.69   20.60
   6 -16  -4   42.00   11.80
  -6 -16   4   38.20   10.50
   5 -16  -4    5.10    6.50
  -5 -16   4   10.70    7.20
  -4 -16   4  119.79   17.10
   4 -16  -4   94.19   14.80
  -3 -16   4   20.10    7.30
   3 -16  -4   10.10    6.30
   2 -16  -4   13.70    7.20
  -2 -16   4   20.50    7.20
  -1 -16   4  128.49   17.10
   1 -16  -4  147.59   18.10
   0 -16  -4    6.40    5.60
   0 -16   4   16.00    6.80
  -1 -16  -4   -2.90    4.20
   1 -16   4   -1.80    3.80
   2 -16   4   96.09   14.60
  -2 -16  -4   79.39   12.30
   3 -16   4  331.67   27.20
  -3 -16  -4  332.77   26.30
  -4 -16  -4    3.20    5.10
   4 -16   4    7.90    6.80
   5 -16   4   22.30    9.30
  -5 -16  -4   20.60    7.30
  -6 -16  -4    6.70    5.90
   6 -16   4   15.00    7.70
  -7 -16  -4  225.58   24.60
   7 -16   4  368.06   35.00
  -7 -17   4  115.99   18.50
   7 -17  -4  139.09   20.40
   6 -17  -4  129.59   19.20
  -6 -17   4  141.19   19.60
   5 -17  -4   27.40    8.50
  -5 -17   4    9.80    7.10
  -4 -17   4   12.20    6.80
   4 -17  -4    1.90    7.20
  -3 -17   4   11.20    6.30
   3 -17  -4   16.60    7.50
   2 -17  -4   30.00    9.10
  -2 -17   4   36.50    9.70
   1 -17  -4    8.40    6.20
  -1 -17   4    4.90    5.60
   0 -17   4   38.90    9.70
   0 -17  -4   24.30    7.70
   1 -17   4    6.10    5.80
  -1 -17  -4    3.00    5.60
  -2 -17  -4  314.77   25.70
   2 -17   4  298.67   25.90
  -3 -17  -4    4.80    5.70
   3 -17   4    5.50    6.70
  -4 -17  -4   25.90    8.50
   4 -17   4   27.60    9.80
   5 -17   4    5.00    7.40
  -5 -17  -4    3.50    6.40
  -6 -17  -4   46.00   11.10
   6 -17   4   29.60   10.80
   6 -18  -4   92.69   16.90
  -6 -18   4   64.69   14.20
  -5 -18   4   -2.80    6.70
   5 -18  -4    4.30    8.00
  -4 -18   4   11.70    7.30
   4 -18  -4    6.60    7.50
   3 -18  -4   19.30    8.50
  -3 -18   4   11.20    6.90
  -2 -18   4    4.90    6.40
   2 -18  -4   -0.30    5.80
   1 -18  -4   14.00    7.60
  -1 -18   4    9.40    7.30
   0 -18  -4   40.80   10.60
   0 -18   4   49.50   11.20
  -1 -18  -4    4.80    6.10
   1 -18   4   -3.40    5.50
  -2 -18  -4   -5.30    4.90
   2 -18   4    5.50    6.50
  -3 -18  -4    5.70    6.20
   3 -18   4   -2.00    6.40
  -4 -18  -4   17.90    8.00
   4 -18   4   15.90    8.50
  -4 -19   4   46.30   12.10
   4 -19  -4   64.49   14.40
  -3 -19   4    5.60    6.90
   3 -19  -4   13.90    7.90
  -2 -19   4   53.99   12.10
   2 -19  -4   39.20   11.70
  -1 -19   4   24.30    9.50
   1 -19  -4   12.40    8.40
   0 -19  -4   88.19   15.50
   0 -19   4  108.79   16.90
  -1 -19  -4    8.10    7.10
   1 -19   4   11.00    7.30
  -2 -19  -4    9.90    6.80
   2 -19   4    2.00    7.20
  14   0  -5   27.00    9.40
  13   0  -5   23.60    9.10
  12   0  -5   10.50    6.40
  11   0  -5   18.70    7.70
  10   0  -5   -0.80    3.80
   9   0  -5    8.20    4.50
   9   0  -5    8.90    4.80
   8   0  -5    0.50    3.50
   8   0  -5   -4.10    3.20
   7   0  -5  402.36   26.90
   7   0  -5  391.26   27.60
   6   0  -5   -1.60    2.60
   6   0  -5    2.20    3.40
  -5   0   5  123.69   15.30
   5   0  -5  137.99   11.50
   4   0  -5    5.20    2.80
  -4   0   5    7.80    4.30
   3   0  -5  199.38   14.60
  -3   0   5  240.48   17.40
  -2   0   5   -1.60    2.10
   2   0  -5    2.80    2.00
   2   0  -5   -1.30    2.20
   1   0  -5  360.76   19.80
  -1   0   5  293.07   22.00
   1   0  -5  318.87   20.10
   0   0  -5    0.50    2.00
   0   0   5   -5.30    2.10
   1   0   5  122.89   11.20
  -1   0  -5  106.39   10.40
  -2   0  -5   -2.30    1.80
   2   0   5    3.20    2.20
   3   0   5   76.39    8.40
  -3   0  -5   75.99    8.80
   4   0   5   45.30    6.40
  -4   0  -5   31.40    5.90
  -5   0  -5  212.28   15.50
   5   0   5  188.78   14.50
   6   0   5    0.60    2.00
  -6   0  -5    1.00    3.70
  -7   0  -5 3156.38  167.18
   7   0   5 2959.70  166.38
  -8   0  -5   -0.90    3.90
   8   0   5    2.20    2.90
  -9   0  -5  607.64   38.60
   9   0   5  574.14   37.80
 -10   0  -5    2.60    5.70
  10   0   5   -0.50    3.10
  11   0   5  265.87   22.10
  12   0   5    3.70    4.90
  13   0   5   22.10    7.40
  14  -1  -5   32.90   10.60
  14   1  -5   43.70   11.60
  13  -1  -5   10.50    6.20
  13   1  -5    5.60    6.60
  12  -1  -5   23.30    8.10
  12   1  -5   24.20    8.70
  11  -1  -5   -1.10    4.90
  11  -1  -5    3.10    4.90
  11   1  -5   -0.60    5.30
  10  -1  -5   10.50    5.10
  10  -1  -5   26.10    7.60
  10   1  -5    6.10    4.90
   9  -1  -5  316.47   23.90
   9  -1  -5  303.37   23.30
   9   1  -5  298.17   23.70
   8  -1  -5  925.61   56.19
   8  -1  -5  953.60   55.99
   8   1  -5  896.41   56.19
   7  -1  -5  809.62   51.09
   7  -1  -5  851.61   51.79
   7   1  -5  898.71   52.49
   6  -1  -5  806.92   48.10
  -6  -1   5  825.02   50.89
   6  -1  -5  752.42   47.40
  -5  -1   5  148.79   16.40
   5  -1  -5  130.89   13.40
  -5   1   5  149.29   16.00
  -4  -1   5   61.29   10.20
   4  -1  -5   67.99    8.40
  -4   1   5   74.69   10.70
   3  -1  -5  299.27   18.40
  -3  -1   5  301.17   22.10
   3  -1  -5  315.17   20.10
  -3   1   5  296.07   21.40
  -2  -1   5  164.78   14.40
   2  -1  -5  207.28   13.40
  -2   1   5  179.18   14.30
   1  -1  -5   23.10    4.00
   1  -1  -5   22.20    3.80
  -1  -1   5   23.10    5.70
  -1   1   5   33.00    6.10
   0  -1   5  277.17   20.70
   0  -1  -5  296.97   18.70
   0  -1  -5  357.26   18.10
   0   1   5  253.67   20.10
   0   1  -5  288.17   18.90
   1  -1   5  460.45   28.20
  -1  -1  -5  475.25   25.20
  -1  -1  -5  435.36   27.30
   1   1   5  444.16   27.70
  -1   1  -5  468.75   27.50
  -2  -1  -5   12.50    3.70
   2  -1   5   10.00    1.40
   2  -1   5    6.30    2.60
  -2   1  -5    8.10    3.30
   2   1   5    6.40    2.30
  -3  -1  -5    7.20    3.40
   3  -1   5   10.90    1.60
   3  -1   5   15.00    3.70
  -3   1  -5   14.80    4.30
   3   1   5   12.40    3.00
  -4  -1  -5   74.89    9.90
   4  -1   5   80.19    5.60
   4  -1   5   78.39    8.90
  -4   1  -5   88.69    9.50
   4   1   5   83.99    8.70
   5  -1   5   43.00    4.70
  -5  -1  -5   43.80    7.70
   5  -1   5   47.90    7.10
  -5   1  -5   50.29    7.60
   5   1   5   48.50    6.80
   6  -1   5 1222.38   69.89
  -6  -1  -5 1288.97   71.19
   6  -1   5 1183.38   67.19
  -6   1  -5 1243.48   69.89
   6   1   5 1241.68   69.79
  -7  -1  -5   10.30    5.30
   7  -1   5   23.80    4.20
   7  -1   5   18.20    4.80
   7   1   5   19.90    5.10
  -7   1  -5   20.20    7.40
   8  -1   5    2.40    2.90
  -8  -1  -5   10.70    5.70
  -8   1  -5    7.30    4.90
   8   1   5    1.10    2.60
   9  -1   5    5.20    3.70
  -9  -1  -5    8.10    6.30
   9   1   5   -1.40    2.80
  -9   1  -5   -0.60    5.30
  10  -1   5   79.59   11.80
 -10  -1  -5   61.49   12.70
  10   1   5   70.39   10.80
  11  -1   5   26.80    7.50
  11   1   5   30.30    8.30
  12  -1   5   64.59   11.70
  12   1   5   40.30    9.40
  13  -1   5   68.79   13.20
  13   1   5   82.09   14.30
  14  -2  -5   82.99   15.30
  14   2  -5   76.29   14.50
  13  -2  -5   96.29   16.20
  13   2  -5  121.59   17.50
  12  -2  -5   15.60    7.20
  12  -2  -5   22.50    8.30
  12   2  -5   25.90    8.30
  11  -2  -5   43.50    9.40
  11  -2  -5   50.69   10.20
  11   2  -5   30.20    8.80
  10  -2  -5   67.99   11.30
  10  -2  -5   71.99   12.10
  10   2  -5   72.79   12.10
   9  -2  -5   58.29    9.80
   9  -2  -5   82.69   12.20
   9   2  -5   57.39   10.70
   8  -2  -5 1390.76   82.89
   8  -2  -5 1431.66   83.39
   8   2  -5 1490.75   83.99
   7  -2  -5   46.10    8.20
   7  -2  -5   61.69    9.90
   7   2  -5   62.39   10.20
   6  -2  -5   70.89    9.90
   6  -2  -5   65.89    9.50
  -6  -2   5   94.79   13.90
  -5  -2   5   72.29   12.00
   5  -2  -5   23.30    5.30
  -5   2   5   32.50    7.20
   4  -2  -5 1443.26   81.29
  -4  -2   5 1443.76   84.29
  -4   2   5 1465.75   82.89
   3  -2  -5   60.59    6.20
   3  -2  -5   50.59    6.90
  -3  -2   5   55.69    9.60
  -3   2   5   58.19    8.40
   2  -2  -5   50.69    6.50
  -2  -2   5   49.70    8.00
  -2   2   5   45.70    7.00
   1  -2  -5 1760.82   90.09
   1  -2  -5 1686.73   89.89
  -1  -2   5 1543.05   92.69
  -1   2   5 1601.64   91.69
   0  -2   5  208.48   15.60
   0  -2  -5  190.28   13.20
   0  -2  -5  189.78   12.10
   0   2   5  177.88   14.30
   1  -2   5    6.80    1.80
   1  -2   5    6.10    3.00
  -1  -2  -5    9.20    1.80
  -1  -2  -5    4.70    2.70
   1   2   5    5.70    2.50
  -1   2  -5    6.60    3.30
   2  -2   5    1.50    1.10
   2  -2   5    2.50    2.00
  -2  -2  -5    2.90    0.90
  -2  -2  -5    7.00    3.00
   2   2   5    5.90    2.30
  -2   2  -5    3.70    2.90
  -3  -2  -5  469.25   30.20
   3  -2   5  507.85   29.80
   3  -2   5  487.95   27.20
   3   2   5  495.15   29.00
  -3   2  -5  482.45   29.50
  -4  -2  -5    4.20    1.10
  -4  -2  -5   -2.20    2.50
   4  -2   5    1.40    1.20
   4  -2   5    8.70    3.00
   4   2   5    3.20    1.90
  -4   2  -5    6.80    3.70
   5  -2   5  450.65   26.80
   5  -2   5  465.35   29.10
  -5  -2  -5  489.35   30.60
   5   2   5  477.55   28.60
  -5   2  -5  456.15   28.90
   6  -2   5   45.80    7.00
  -6  -2  -5   63.29   10.40
   6  -2   5   63.79    6.70
   6   2   5   47.40    7.30
  -6   2  -5   49.99    8.40
  -7  -2  -5  228.68   18.70
   7  -2   5  216.28   16.70
   7  -2   5  210.88   14.90
   7   2   5  204.88   16.30
  -7   2  -5  224.98   16.80
   8  -2   5   59.09    9.10
   8  -2   5   48.10    6.90
  -8  -2  -5   46.10   10.00
  -8   2  -5   71.79   10.10
   8   2   5   43.10    7.60
  -9  -2  -5   98.29   15.10
   9  -2   5  117.79   13.60
  -9   2  -5   98.69   13.10
   9   2   5   95.29   12.00
 -10  -2  -5  120.19   17.20
  10  -2   5  130.89   15.40
  10   2   5  137.29   15.80
  11  -2   5    4.50    4.60
  11   2   5    6.40    4.90
  12  -2   5   40.60    9.70
  12   2   5   31.20    8.50
  13  -2   5  187.88   22.20
  13   2   5  186.98   21.60
  14  -3  -5   14.80    7.30
  14  -3  -5    7.90    7.80
  14   3  -5   12.30    7.60
  13  -3  -5    9.80    7.20
  13  -3  -5   19.50    8.50
  13   3  -5    1.90    5.90
  12  -3  -5   42.00   10.30
  12  -3  -5   36.10    9.10
  12   3  -5   36.50    9.50
  11  -3  -5  134.39   17.20
  11  -3  -5  184.48   20.40
  11   3  -5  151.58   18.10
  10  -3  -5   61.19   10.50
  10  -3  -5   78.39   12.60
  10   3  -5   58.59   11.00
   9  -3  -5    9.30    5.40
   9  -3  -5   12.60    5.80
   9   3  -5   17.50    6.40
   8  -3  -5    8.90    5.00
   8  -3  -5   24.00    6.80
   8   3  -5   11.90    5.70
   7  -3  -5  113.89   14.30
   7  -3  -5  137.69   14.90
  -7  -3   5  165.38   19.70
   6  -3  -5  535.95   33.70
   6  -3  -5  490.25   33.60
  -6  -3   5  551.54   37.60
   5  -3  -5  690.53   42.90
  -5  -3   5  727.73   46.90
   5  -3  -5  722.13   43.20
   4  -3  -5  228.78   13.70
  -4  -3   5  227.08   19.10
   4  -3  -5  194.38   15.90
  -4   3   5  226.98   17.40
  -3  -3   5  150.38   15.90
   3  -3  -5  177.48   11.00
   3  -3  -5  151.18   12.30
  -3   3   5  155.58   13.40
   2  -3  -5  312.87   18.90
   1  -3  -5 2952.60  144.19
   1  -3  -5 2714.83  143.89
  -1  -3   5 2522.75  146.79
  -1   3   5 2496.65  145.09
   0  -3  -5  916.21   52.19
   0  -3   5  956.00   54.29
   0  -3  -5 1022.40   51.19
   0   3   5  806.42   52.49
  -1  -3  -5    4.10    1.50
   1  -3   5   10.00    3.20
   1  -3   5    7.90    2.20
  -1  -3  -5    5.20    3.10
   1   3   5    5.10    2.20
  -2  -3  -5  664.03   36.70
   2  -3   5  683.83   37.60
   2  -3   5  666.63   39.40
  -2  -3  -5  681.43   39.90
   3  -3   5   17.90    3.00
  -3  -3  -5   22.30    2.50
   3  -3   5   22.90    4.50
  -3  -3  -5   26.90    5.90
   3   3   5   31.80    4.50
  -3   3  -5   21.90    5.00
  -4  -3  -5  266.17   19.70
  -4  -3  -5  263.57   15.50
   4  -3   5  262.67   16.30
   4  -3   5  266.77   18.30
   4   3   5  273.47   17.60
  -4   3  -5  296.47   18.80
  -5  -3  -5    1.20    1.30
   5  -3   5   -0.20    1.40
  -5  -3  -5   10.50    4.30
   5  -3   5   -1.00    1.90
   5   3   5    4.30    2.00
  -5   3  -5    0.80    3.20
   6  -3   5  100.89    9.70
  -6  -3  -5   97.69   14.20
   6  -3   5   85.19   10.30
  -6   3  -5   97.99   11.20
   6   3   5   96.49   10.20
   7  -3   5    5.80    2.80
  -7  -3  -5    7.20    5.20
   7  -3   5   -1.50    1.90
   7   3   5    3.00    2.70
  -7   3  -5   -1.50    3.50
   8  -3   5  133.09   13.20
  -8  -3  -5  161.58   19.90
   8  -3   5  160.48   16.10
   8   3   5  125.49   13.70
  -8   3  -5  138.09   14.90
  -9  -3  -5   12.20    7.60
   9  -3   5   15.70    5.30
  -9   3  -5    9.70    5.80
   9   3   5    9.10    4.20
 -10  -3  -5  126.29   18.90
  10  -3   5  139.79   16.20
  10   3   5  165.58   17.40
  11  -3   5  243.08   23.30
 -11  -3  -5  157.78   21.20
  11   3   5  210.28   21.20
  12  -3   5   21.10    7.40
  12   3   5   17.70    6.90
  13  -3   5  123.59   17.60
  13   3   5  119.69   16.50
  14  -4  -5   28.40   10.50
  14  -4  -5   30.20   10.40
  14   4  -5   31.90   10.50
  13  -4  -5  125.29   17.50
  13  -4  -5  124.09   17.50
  13   4  -5  111.89   16.90
  12  -4  -5    1.70    5.10
  12  -4  -5    2.20    5.00
  12   4  -5    3.30    5.50
  11  -4  -5  416.26   31.30
  11  -4  -5  432.76   32.70
  11   4  -5  408.46   32.10
  10  -4  -5  901.01   56.89
  10  -4  -5  869.51   55.09
  10   4  -5  875.31   56.29
   9  -4  -5    3.60    4.10
  -9  -4   5   10.30    7.10
   9  -4  -5   -0.30    3.70
   9   4  -5    4.40    4.60
   8  -4  -5   28.90    7.00
  -8  -4   5   40.40   11.30
   8  -4  -5   30.90    7.70
  -7  -4   5   88.69   14.50
   7  -4  -5   35.90    7.30
   7  -4  -5   50.49    8.90
   6  -4  -5  153.38   16.00
   6  -4  -5  177.48   14.80
  -6  -4   5  174.88   20.70
  -5  -4   5  132.49   17.20
   5  -4  -5   77.79   10.50
   5  -4  -5   95.89    6.90
   5  -4  -5   95.19   11.10
   4  -4  -5   68.59    9.00
  -4  -4   5   49.80   10.30
   4  -4  -5   69.79    5.60
  -4   4   5   53.59    8.50
   3  -4  -5   67.49    8.40
  -3  -4   5   59.39    9.70
   3  -4  -5   74.39    6.20
   2  -4  -5  955.70   51.19
  -2  -4   5  846.62   53.19
  -2   4   5  884.41   51.29
   1  -4  -5 1625.94   84.99
   1  -4  -5 1534.65   84.99
  -1  -4   5 1548.95   88.19
  -1   4   5 1506.15   85.79
   0  -4   5  130.39   12.30
   0  -4   5  101.09    8.10
   0  -4  -5   96.39    8.60
   0  -4  -5  100.89    7.70
   0   4   5   98.69    8.60
  -1  -4  -5  242.18   13.90
  -1  -4  -5  216.48   15.50
   1  -4   5  219.68   15.70
   1  -4   5  211.68   14.40
   1   4   5  216.78   14.20
   2  -4   5   12.70    3.70
   2  -4   5   11.70    2.90
  -2  -4  -5   15.50    4.60
  -2  -4  -5   13.50    2.30
   2   4   5   17.80    3.20
   3  -4   5   42.40    5.10
  -3  -4  -5   53.29    4.50
  -3  -4  -5   42.70    7.00
   3  -4   5   48.50    6.60
   3   4   5   23.00    4.20
   4  -4   5  833.02   48.60
   4  -4   5  807.32   46.90
  -4  -4  -5  833.32   49.90
  -4  -4  -5  864.71   46.10
   4   4   5  851.41   47.50
  -5  -4  -5  262.17   16.40
   5  -4   5  261.37   17.20
   5  -4   5  291.77   19.20
  -5  -4  -5  258.37   20.50
   5   4   5  282.47   18.10
   6  -4   5  249.08   18.30
  -6  -4  -5  254.67   20.80
  -6  -4  -5  257.17   16.30
   6  -4   5  252.17   17.00
   6   4   5  259.17   17.80
  -7  -4  -5   48.50    6.30
  -7  -4  -5   53.29   11.10
   7  -4   5   38.10    6.80
   7  -4   5   36.90    6.50
   7   4   5   52.39    7.70
   8  -4   5    5.60    3.90
   8  -4   5    7.90    3.50
  -8  -4  -5    9.00    6.40
   8   4   5    5.00    3.50
   9  -4   5   -1.10    2.80
  -9  -4  -5    5.90    6.90
   9   4   5    3.70    3.40
  10  -4   5   87.69   13.10
 -10  -4  -5   90.39   16.10
  10   4   5   85.89   12.20
 -11  -4  -5   12.10    9.70
  11  -4   5    1.00    3.80
  11   4   5    8.50    4.90
  12  -4   5   21.30    7.40
  12   4   5   19.10    7.30
  13  -4   5   44.60   10.70
  13   4   5   48.00   10.70
  14  -5  -5   11.90    7.90
  14  -5  -5   -3.80    6.40
 -14  -5   5   20.40   12.60
  14   5  -5    8.90    7.90
  13  -5  -5    4.60    7.00
  13  -5  -5    2.90    6.10
  13   5  -5   -3.80    5.40
  12  -5  -5   20.60    8.40
  12  -5  -5   10.10    7.00
  12   5  -5   24.30    8.10
 -11  -5   5  353.16   37.90
  11  -5  -5  315.67   30.70
  11  -5  -5  284.87   24.40
  11   5  -5  288.27   25.50
 -10  -5   5  497.05   38.20
  10  -5  -5  399.36   31.60
  10  -5  -5  393.76   30.00
   9  -5  -5   13.60    5.70
   9  -5  -5   12.50    6.30
  -9  -5   5   22.50    9.70
   8  -5  -5   41.10    8.70
  -8  -5   5   44.60   11.60
   8  -5  -5   28.00    6.90
  -7  -5   5   49.50   12.10
   7  -5  -5   54.09    8.80
   7  -5  -5   56.89    9.80
   6  -5  -5  150.08   15.60
   6  -5  -5  155.28   15.50
  -6  -5   5  155.38   20.70
   5  -5  -5  212.18   16.10
   5  -5  -5  197.18   16.10
   5  -5  -5  201.38   12.50
  -5  -5   5  204.28   22.80
   4  -5  -5  256.97   15.80
   4  -5  -5  261.17   18.70
  -4  -5   5  251.27   21.50
   3  -5  -5  186.88   12.10
   3  -5  -5  162.58   13.30
  -3  -5   5  178.68   15.70
  -3   5   5  160.88   13.50
   2  -5  -5    0.70    1.40
   2  -5  -5   22.60    4.30
  -2  -5   5    6.60    4.20
  -2   5   5    2.80    2.30
   1  -5  -5 1266.07   67.89
  -1  -5   5 1269.67   68.39
   1  -5  -5 1178.28   67.59
  -1  -5   5 1210.08   70.79
  -1   5   5 1193.28   68.19
   0  -5  -5   62.39    6.70
   0  -5   5   71.99    7.40
   0  -5  -5   64.49    8.20
   0  -5   5   77.79    9.40
   0   5   5   65.49    6.90
   1  -5   5   67.59    8.50
  -1  -5  -5   71.59    6.70
  -1  -5  -5   55.39    7.80
   1   5   5   66.49    6.30
   2  -5   5  375.76   23.70
  -2  -5  -5  373.56   24.20
  -2  -5  -5  355.66   21.70
   2  -5   5  398.86   23.10
   2   5   5  361.36   21.80
  -3  -5  -5 1007.40   55.39
   3  -5   5 1006.70   56.69
  -3  -5  -5 1024.50   58.79
   3  -5   5 1004.10   57.49
   3   5   5 1018.10   55.99
  -4  -5  -5 2003.80  109.39
   4  -5   5 1950.70  107.69
  -4  -5  -5 1950.70  105.39
   4  -5   5 1943.81  106.69
   4   5   5 1953.90  106.39
   5  -5   5   14.50    4.10
  -5  -5  -5   17.10    6.30
   5  -5   5   14.00    3.60
  -5  -5  -5   13.30    3.00
  -6  -5  -5  299.57   19.40
  -6  -5  -5  320.87   24.00
   6  -5   5  309.97   20.50
   6  -5   5  317.57   21.70
   6   5   5  312.07   20.70
   7  -5   5   36.90    7.00
  -7  -5  -5   34.90    5.60
   7  -5   5   38.70    6.60
  -7  -5  -5   36.20    9.50
   7   5   5   40.00    6.80
  -8  -5  -5   86.69   15.10
   8  -5   5   60.39    9.60
   8  -5   5   70.79    9.50
   8   5   5   94.19   11.00
   9  -5   5   58.09   10.20
  -9  -5  -5   67.59   14.50
   9   5   5   56.89    9.60
  10  -5   5   11.60    5.90
 -10  -5  -5   15.40    9.10
  10   5   5   14.80    6.00
  11  -5   5   31.60    8.30
 -11  -5  -5   30.80   12.40
  11   5   5   41.60    8.90
  12  -5   5   63.59   12.30
  12   5   5   73.09   12.20
  14  -6  -5    5.80    7.70
 -14  -6   5   14.40   13.10
  14  -6  -5    3.70    7.20
  13  -6  -5   85.09   15.50
  13  -6  -5   72.19   14.60
 -13  -6   5  108.49   23.50
  12  -6  -5    5.70    6.60
 -12  -6   5   -3.40    7.90
  12  -6  -5    7.60    6.80
  11  -6  -5   18.10    7.40
 -11  -6   5   -0.70    7.70
  11  -6  -5    9.20    6.30
 -10  -6   5   23.80   11.80
  10  -6  -5   10.50    6.00
  10  -6  -5    6.40    5.50
   9  -6  -5  256.07   24.90
   9  -6  -5  229.58   20.30
  -9  -6   5  270.87   31.30
   8  -6  -5  302.67   24.60
  -8  -6   5  355.06   35.70
   8  -6  -5  307.87   23.40
   7  -6  -5   19.10    5.90
  -7  -6   5   12.60    7.20
   7  -6  -5   15.00    5.90
   6  -6  -5   22.70    5.80
   6  -6  -5   31.50    6.90
   6  -6  -5   30.10    3.70
  -6  -6   5   29.20    9.00
   5  -6  -5   23.70    5.70
  -5  -6   5   26.70    8.50
   5  -6  -5   26.20    3.90
   5  -6  -5   23.40    5.60
   4  -6  -5   46.30    7.70
   4  -6  -5   46.50    5.50
  -4  -6   5   36.50    8.50
  -4   6   5   50.59    7.60
   3  -6  -5    9.30    2.60
  -3  -6   5    7.40    4.50
   3  -6  -5    3.40    2.70
  -3   6   5    5.10    3.20
  -2  -6   5  471.85   31.20
   2  -6  -5  473.25   28.80
  -2   6   5  459.15   28.10
  -1  -6   5   55.39    7.50
   1  -6  -5   68.09    7.60
  -1  -6   5   62.69    9.70
   1  -6  -5   59.79    7.50
  -1   6   5   73.89    7.80
   0  -6   5    7.10    2.90
   0  -6   5    6.30    3.70
   0  -6  -5    5.80    2.30
   0  -6  -5    6.90    3.20
   0   6   5   11.50    2.60
  -1  -6  -5  576.84   35.00
   1  -6   5  550.04   34.40
  -1  -6  -5  606.44   33.50
   1  -6   5  557.44   34.20
   1   6   5  582.44   32.20
  -2  -6  -5  120.39   12.90
   2  -6   5  137.19   10.60
  -2  -6  -5  121.29    9.10
   2   6   5  117.09    8.40
  -3  -6  -5   85.19    7.20
   3  -6   5   90.99    9.70
   3  -6   5  103.99    9.90
  -3  -6  -5   83.59   11.40
   3   6   5   85.59    6.90
  -4  -6  -5 1081.09   59.69
  -4  -6  -5 1046.80   63.19
   4  -6   5 1089.29   61.59
   4  -6   5 1054.69   60.99
   4   6   5 1113.89   59.99
  -5  -6  -5 1167.48   62.39
   5  -6   5 1114.89   64.19
   5  -6   5 1074.09   63.29
  -5  -6  -5 1148.79   66.39
   5   6   5 1106.49   62.79
   6  -6   5  550.74   35.40
  -6  -6  -5  555.94   37.70
  -6  -6  -5  602.34   33.70
   6  -6   5  553.94   34.60
  -7  -6  -5   15.10    4.10
   7  -6   5   12.80    4.70
  -7  -6  -5   11.50    6.70
   7  -6   5    5.90    3.60
   7   6   5   15.10    4.40
  -8  -6  -5    9.20    7.30
   8  -6   5    3.50    3.70
   8  -6   5   17.20    5.50
   8   6   5    9.30    4.10
  -9  -6  -5   32.90   10.90
   9  -6   5   28.30    7.50
   9  -6   5   53.39    9.20
   9   6   5   47.20    8.40
  10  -6   5   91.29   13.10
 -10  -6  -5   56.89   13.40
  10   6   5   55.69    9.80
 -11  -6  -5   29.30   11.90
  11  -6   5   56.39   11.10
  11   6   5   46.20    9.20
  12  -6   5   13.00    7.40
 -12  -6  -5   11.30   12.30
  12   6   5   12.30    6.60
 -13  -7   5   15.50   13.10
  13  -7  -5   21.10    9.00
  13  -7  -5   14.30    9.00
  12  -7  -5  214.78   24.70
  12  -7  -5  298.57   29.60
 -12  -7   5  193.48   31.20
  11  -7  -5   13.50    7.60
  11  -7  -5   12.50    6.80
 -11  -7   5   16.20   11.70
  10  -7  -5    4.70    4.80
  10  -7  -5   11.90    6.70
 -10  -7   5   12.60    9.70
   9  -7  -5  575.04   38.90
   9  -7  -5  552.94   40.40
  -9  -7   5  659.23   47.60
   8  -7  -5   69.19   11.90
  -8  -7   5  108.49   19.40
   8  -7  -5   82.89   11.80
   7  -7  -5    6.80    4.40
  -7  -7   5    5.40    7.30
   7  -7  -5    9.20    4.70
   6  -7  -5   19.10    3.60
   6  -7  -5   21.30    6.00
   6  -7  -5   28.20    6.80
  -6  -7   5   29.20   10.20
   5  -7  -5  278.37   16.90
   5  -7  -5  276.67   19.80
  -5  -7   5  236.58   25.90
   5  -7  -5  270.47   20.50
  -4  -7   5  296.17   22.70
   4  -7  -5  248.68   19.20
   4  -7  -5  263.97   16.90
   3  -7  -5 2032.40  112.89
  -3  -7   5 2096.99  115.09
   3  -7  -5 2077.09  110.79
  -3   7   5 1970.00  111.89
  -2  -7   5  556.14   32.20
   2  -7  -5  506.85   31.20
  -2  -7   5  468.35   32.90
  -2   7   5  496.15   29.90
   1  -7  -5    4.40    2.60
  -1  -7   5   11.60    3.50
  -1  -7   5   11.60    4.80
   1  -7  -5    7.90    3.30
  -1   7   5   10.10    3.10
   0  -7  -5  772.72   46.40
   0  -7  -5  801.02   46.00
   0  -7   5  832.52   46.80
   0  -7   5  804.12   46.70
   0   7   5  793.52   43.80
   1  -7   5  178.78   14.00
  -1  -7  -5  205.38   13.70
  -1  -7  -5  179.98   14.60
   1  -7   5  185.98   14.20
   1   7   5  197.88   11.70
  -2  -7  -5   88.99    8.60
   2  -7   5   91.59    9.80
   2  -7   5   80.79    9.10
  -2  -7  -5   92.09   11.10
   2   7   5   83.19    6.30
  -3  -7  -5  118.09    9.20
   3  -7   5  105.09   10.90
  -3  -7  -5  127.89   13.90
   3  -7   5   94.29   10.70
   3   7   5  113.69    8.20
  -4  -7  -5  106.49   14.00
   4  -7   5  110.89   11.20
  -4  -7  -5  111.99    8.80
   4  -7   5   77.79    9.90
   4   7   5   99.89    8.20
   5  -7   5   19.30    4.70
   5  -7   5   20.90    5.10
  -5  -7  -5   16.30    3.80
  -5  -7  -5   19.40    6.60
   5   7   5   19.20    4.00
  -6  -7  -5    4.50    2.80
   6  -7   5    4.30    2.90
  -6  -7  -5   10.80    6.00
   6  -7   5    5.20    3.10
   6   7   5    2.70    2.60
  -7  -7  -5   47.00   11.00
   7  -7   5   34.60    6.90
   7  -7   5   52.59    8.20
  -7  -7  -5   44.30    6.70
   7   7   5   35.00    6.30
   8  -7   5   28.60    7.10
  -8  -7  -5   19.90    9.40
   8  -7   5   39.00    7.40
   8   7   5   17.70    5.10
   9  -7   5  123.19   14.60
   9  -7   5  103.79   13.20
  -9  -7  -5   87.09   17.00
   9   7   5   85.59   11.50
 -10  -7  -5    5.60    8.30
  10  -7   5    6.40    5.20
  10   7   5    5.00    3.90
 -11  -7  -5    6.80    9.90
  11  -7   5   20.80    7.00
  11   7   5   23.80    7.00
  12  -7   5   78.59   13.50
 -12  -7  -5   45.10   15.20
  12   7   5  104.29   15.00
  13  -8  -5   -0.70    6.50
 -13  -8   5   25.00   13.60
  13  -8  -5   14.60    8.60
  12  -8  -5   14.70    8.70
  12  -8  -5   14.50    7.80
 -12  -8   5   18.20   12.30
 -11  -8   5  151.48   26.80
  11  -8  -5  199.58   23.80
  11  -8  -5  199.88   21.90
  10  -8  -5   11.90    6.40
  10  -8  -5    7.20    5.60
 -10  -8   5   -4.30    6.90
   9  -8  -5  159.18   19.40
  -9  -8   5  135.19   23.00
   9  -8  -5  126.09   15.70
   8  -8  -5   98.09   14.30
   8  -8  -5   81.49   12.10
  -8  -8   5   86.99   17.60
  -7  -8   5   60.29   14.30
   7  -8  -5   69.79   11.30
   7  -8  -5   72.39   10.40
   6  -8  -5   10.10    5.00
  -6  -8   5   19.80    9.60
   6  -8  -5   16.70    3.70
   6  -8  -5   12.10    4.90
  -5  -8   5    1.90    5.10
   5  -8  -5   -1.50    3.20
   5  -8  -5    0.20    3.00
   5  -8  -5    7.80    2.90
   4  -8  -5   90.59   11.50
  -4  -8   5   93.99   13.10
   4  -8  -5   94.39    8.40
  -4   8   5  102.59   10.90
  -3  -8   5 1261.47   76.59
   3  -8  -5 1281.27   75.09
  -3  -8   5 1423.46   76.29
   3  -8  -5 1353.26   73.19
  -3   8   5 1288.57   73.79
  -2  -8   5  405.76   26.10
   2  -8  -5  397.26   25.50
   2  -8  -5  370.76   24.20
  -2  -8   5  386.96   26.90
  -2   8   5  382.56   23.40
   1  -8  -5   12.40    4.10
  -1  -8   5   15.70    5.10
  -1  -8   5    8.40    3.50
   1  -8  -5    6.80    3.10
  -1   8   5   10.60    2.80
   0  -8  -5   40.90    6.30
   0  -8   5   58.39    7.50
   0  -8  -5   50.29    7.80
   0  -8   5   56.09    7.90
   0   8   5   49.90    3.90
   1  -8   5   29.80    5.90
   1  -8   5   29.00    5.30
  -1  -8  -5   26.80    6.00
  -1  -8  -5   38.80    5.60
   1   8   5   26.20    3.00
   2  -8   5 1102.69   64.39
   2  -8   5 1118.99   63.49
  -2  -8  -5 1128.59   65.09
  -2  -8  -5 1109.09   62.99
   2   8   5 1151.48   60.89
   3  -8   5  180.28   13.50
   3  -8   5  169.18   14.00
  -3  -8  -5  194.48   15.50
  -3  -8  -5  163.18   12.60
   3   8   5  170.98   11.40
   4  -8   5  218.48   16.30
   4  -8   5  222.88   16.90
  -4  -8  -5  199.28   17.80
  -4  -8  -5  223.58   15.60
   4   8   5  232.48   14.60
  -5  -8  -5  127.19   16.40
  -5  -8  -5  129.29   10.80
   5  -8   5  136.29   11.80
   5   8   5  127.19   10.10
  -6  -8  -5   20.80    7.60
   6  -8   5   11.80    4.50
  -6  -8  -5   16.80    4.50
   6  -8   5   15.10    5.00
   6   8   5   16.00    4.10
   7  -8   5   66.59    9.90
  -7  -8  -5   61.89    8.50
  -7  -8  -5   95.29   15.70
   7  -8   5   65.59    9.70
   7   8   5   59.39    8.40
   8  -8   5   22.50    6.50
  -8  -8  -5    2.50    6.50
   8  -8   5   23.70    6.70
   8   8   5   21.60    5.60
   9  -8   5   22.00    6.80
  -9  -8  -5   11.50    8.50
   9  -8   5   21.70    6.90
  10  -8   5    7.40    5.50
 -10  -8  -5    1.30    7.40
  10   8   5    6.20    4.10
 -11  -8  -5   76.79   17.10
  11  -8   5   92.59   14.90
  11   8   5  103.99   14.40
  12  -8   5   59.59   12.60
  12   8   5   46.70   10.50
  13  -9  -5   -2.80    7.50
 -13  -9   5    5.50   14.90
  13  -9  -5    3.40    8.60
  12  -9  -5   21.80    8.80
  12  -9  -5   32.50   10.80
 -12  -9   5   25.70   13.20
  11  -9  -5   66.89   12.30
  11  -9  -5   57.29   13.80
 -11  -9   5   47.90   16.70
  10  -9  -5    0.50    5.50
  10  -9  -5    4.00    5.10
 -10  -9   5    4.50    9.60
   9  -9  -5   56.59   10.40
  -9  -9   5   38.30   14.00
   9  -9  -5   57.99   11.50
   8  -9  -5   14.40    6.70
   8  -9  -5   20.00    6.70
  -8  -9   5   26.30   11.40
   7  -9  -5   10.60    5.50
   7  -9  -5    9.70    5.10
  -7  -9   5   16.70    8.80
   6  -9  -5  195.48   13.80
   6  -9  -5  210.68   18.20
  -6  -9   5  219.88   25.40
   6  -9  -5  229.38   17.50
  -5  -9   5    0.10    4.20
   5  -9  -5    1.60    3.00
   5  -9  -5    0.70    3.20
  -4  -9   5   43.70    9.20
  -4  -9   5   28.00    6.90
   4  -9  -5   53.49    7.00
   4  -9  -5   30.50    6.80
  -4   9   5   50.79    7.40
   3  -9  -5  175.58   14.80
   3  -9  -5  170.88   13.10
  -3  -9   5  196.88   19.00
  -3  -9   5  195.78   15.60
  -3   9   5  162.08   12.90
  -2  -9   5  611.04   36.90
   2  -9  -5  571.54   36.10
  -2  -9   5  614.04   37.60
  -2   9   5  557.54   33.40
  -1  -9   5  278.27   20.40
  -1  -9   5  286.77   20.00
   1  -9  -5  290.97   20.20
   0  -9  -5   19.90    4.60
   0  -9   5   27.20    5.20
   0  -9   5   15.20    4.50
   1  -9   5  155.68   13.60
  -1  -9  -5  182.98   13.30
   1  -9   5  160.08   12.70
   2  -9   5  413.76   26.50
  -2  -9  -5  392.56   25.00
   2  -9   5  387.86   25.00
   2   9   5  384.46   22.10
  -3  -9  -5  206.88   14.60
   3  -9   5  211.58   16.00
  -3  -9  -5  177.58   16.20
   3  -9   5  187.48   14.50
   3   9   5  184.58   12.20
   4  -9   5  182.78   15.30
   4  -9   5  163.68   13.70
  -4  -9  -5  185.38   13.90
  -4  -9  -5  177.68   18.90
   4   9   5  179.88   12.20
   5  -9   5  133.49   14.80
  -5  -9  -5  135.49   17.50
  -5  -9  -5  130.09   11.60
   5  -9   5  149.29   14.50
   5   9   5  149.49   11.00
  -6  -9  -5   71.29   13.10
  -6  -9  -5   97.69   10.80
   6  -9   5   79.09   10.60
   6   9   5   96.79    9.90
   7  -9   5   95.09   12.00
  -7  -9  -5   89.49   10.80
   7  -9   5  114.89   13.80
  -7  -9  -5   81.79   14.50
   7   9   5   82.09    9.90
   8  -9   5    5.40    4.50
  -8  -9  -5    9.10    8.00
   8  -9   5   13.30    5.90
   8   9   5   12.90    4.40
   9  -9   5   99.89   13.40
   9  -9   5  104.39   14.10
  -9  -9  -5   72.29   15.60
   9   9   5   71.69   10.40
  10  -9   5    8.80    5.80
 -10  -9  -5    7.20    8.00
  10   9   5   12.20    5.40
 -11  -9  -5   86.49   18.20
  11  -9   5  136.39   17.70
  12 -10  -5   39.10   10.90
 -12 -10   5   21.40   14.80
  12 -10  -5   45.60   13.80
  11 -10  -5    2.20    5.50
  11 -10  -5    1.60    7.10
 -11 -10   5    6.80   11.10
  10 -10  -5  205.48   22.00
  10 -10  -5  207.38   24.00
 -10 -10   5  191.38   29.70
   9 -10  -5  100.29   16.10
  -9 -10   5   91.79   20.60
   9 -10  -5   81.99   13.00
   8 -10  -5   22.30    7.00
  -8 -10   5    8.20    9.50
   8 -10  -5   14.60    6.50
   7 -10  -5   19.00    7.10
   7 -10  -5   11.50    5.40
  -7 -10   5   15.70    9.40
   6 -10  -5    2.70    4.30
   6 -10  -5    9.40    3.70
  -6 -10   5    8.30    5.10
   6 -10  -5    6.40    4.80
  -6 -10   5    7.60    6.70
  -5 -10   5  143.19   16.50
   5 -10  -5  138.39   15.80
   5 -10  -5  136.19   11.30
  -5 -10   5  157.88   18.70
  -4 -10   5   34.30    7.90
   4 -10  -5   38.60    6.80
   4 -10  -5   20.10    6.20
  -4 -10   5   26.30    7.60
  -4  10   5   33.00    6.40
  -3 -10   5  146.69   14.80
   3 -10  -5   98.59   12.30
  -3 -10   5  130.09   15.00
  -3  10   5  104.39   10.30
  -2 -10   5  226.38   17.40
   2 -10  -5  194.48   16.60
  -2 -10   5  224.88   17.60
  -1 -10   5  120.79   13.60
   1 -10  -5  144.99   14.10
  -1 -10   5  153.48   12.20
   0 -10   5   61.59    7.70
   0 -10  -5   48.40    7.70
   0 -10   5   59.99    9.00
   1 -10   5  614.54   39.30
  -1 -10  -5  691.33   39.00
   1 -10   5  607.84   37.50
   2 -10   5  206.08   16.60
  -2 -10  -5  219.18   15.80
   2 -10   5  189.88   14.70
   3 -10   5   10.30    3.80
   3 -10   5    1.80    3.20
  -3 -10  -5   14.60    4.10
   3  10   5    7.60    2.00
  -4 -10  -5  187.38   15.30
  -4 -10  -5  211.18   22.40
   4 -10   5  195.28   15.40
   4 -10   5  212.98   17.50
   4  10   5  215.08   13.60
  -5 -10  -5   84.09   14.00
   5 -10   5   62.09   10.20
   5 -10   5   63.29    9.10
  -5 -10  -5   58.49    8.30
   5  10   5   75.59    7.90
  -6 -10  -5  134.59   17.60
  -6 -10  -5  107.69   12.00
   6 -10   5  116.59   14.40
   6 -10   5  103.09   12.70
   6  10   5  122.69   10.30
   7 -10   5   -0.20    2.30
  -7 -10  -5    9.40    6.50
  -7 -10  -5   -1.40    3.10
   7 -10   5    3.30    4.30
   7  10   5    2.50    2.70
   8 -10   5  374.56   25.80
  -8 -10  -5  321.27   28.80
   8 -10   5  411.46   27.40
   8  10   5  255.17   25.30
   9 -10   5    3.90    5.10
  -9 -10  -5   19.00    9.80
   9 -10   5    7.70    6.20
 -10 -10  -5    2.90    7.70
  10 -10   5    2.50    5.30
  11 -10   5    0.40    4.80
 -11 -10  -5    3.20    9.50
  12 -11  -5    7.90    8.70
 -12 -11   5   24.50   14.60
  12 -11  -5   31.00   10.80
  11 -11  -5    0.70    6.50
  11 -11  -5    1.70    6.10
 -11 -11   5   -2.10    9.60
  10 -11  -5    5.40    6.60
 -10 -11   5   12.00   10.50
  10 -11  -5    4.70    6.50
  -9 -11   5   33.40   14.10
   9 -11  -5   42.80   10.30
   9 -11  -5   45.60   11.30
  -8 -11   5   25.10    9.10
   8 -11  -5   17.90    7.40
  -8 -11   5    7.40    9.90
   8 -11  -5   22.00    7.10
  -7 -11   5  231.68   24.80
  -7 -11   5  243.18   29.40
   7 -11  -5  282.37   21.70
   7 -11  -5  301.57   24.20
  -6 -11   5  492.55   35.40
   6 -11  -5  464.45   34.60
   6 -11  -5  520.65   32.90
  -6 -11   5  504.65   38.10
   5 -11  -5    2.30    3.00
   5 -11  -5    4.40    4.40
  -5 -11   5   -1.50    3.40
  -5 -11   5    0.70    5.80
  -5  11   5   -2.10    2.80
  -4 -11   5  524.35   34.20
  -4 -11   5  498.25   33.70
   4 -11  -5  450.05   32.50
  -4  11   5  481.15   30.70
   3 -11  -5   26.40    6.60
  -3 -11   5   25.20    7.70
  -3 -11   5   28.90    6.70
  -3  11   5   38.70    5.50
   2 -11  -5   75.99   11.00
  -2 -11   5   96.09   12.60
  -2 -11   5  108.89   11.90
  -1 -11   5   10.50    4.00
   1 -11  -5    7.90    4.20
  -1 -11   5    4.10    3.30
   0 -11  -5   65.59    9.20
   0 -11   5   63.79    8.10
   0 -11   5   67.49   10.20
   1 -11   5  269.77   21.30
   1 -11   5  302.77   19.70
  -1 -11  -5  300.17   21.10
   2 -11   5   72.49    8.50
  -2 -11  -5   72.79    9.30
   2 -11   5   69.29   10.20
   3 -11   5  119.29   12.20
  -3 -11  -5  111.19   12.10
   3 -11   5  133.29   15.20
   4 -11   5   30.90    7.90
   4 -11   5   32.10    6.40
  -4 -11  -5   24.40    8.40
  -4 -11  -5   33.20    6.60
   5 -11   5  169.98   14.30
  -5 -11  -5  210.88   23.60
   5 -11   5  164.88   18.40
  -5 -11  -5  162.48   16.00
  -6 -11  -5   10.60    4.60
  -6 -11  -5    0.80    5.80
   6 -11   5   17.50    6.30
   6 -11   5    9.60    4.80
  -7 -11  -5  201.78   16.80
  -7 -11  -5  192.28   23.90
   7 -11   5  199.68   19.50
   7 -11   5  214.08   21.80
   8 -11   5  122.79   15.50
  -8 -11  -5  106.19   18.50
  -9 -11  -5  285.67   33.20
   9 -11   5  363.46   27.10
   9 -11   5  284.87   24.10
 -10 -11  -5   35.70   12.60
  10 -11   5   48.10   10.50
 -11 -12   5  106.59   18.80
 -11 -12   5   80.99   21.20
  11 -12  -5  115.99   20.40
  11 -12  -5  117.69   16.80
 -10 -12   5    7.30    7.30
  10 -12  -5    4.80    6.60
 -10 -12   5    5.10   11.50
  10 -12  -5    2.90    7.50
  -9 -12   5   30.80   13.30
   9 -12  -5   43.20   10.30
   9 -12  -5   41.10   11.40
  -9 -12   5   33.20   10.50
  -8 -12   5   31.50   12.80
  -8 -12   5   77.39   14.00
   8 -12  -5   63.99   11.10
   8 -12  -5   74.79   13.80
   7 -12  -5  204.98   22.50
  -7 -12   5  177.48   20.50
   7 -12  -5  196.58   19.00
  -7 -12   5  155.48   22.40
   6 -12  -5   74.09   13.00
  -6 -12   5  108.09   15.30
  -6 -12   5  114.89   16.60
   5 -12  -5  663.83   45.00
  -5 -12   5  762.82   46.70
  -5 -12   5  703.33   45.70
   5 -12  -5  655.23   40.80
  -4 -12   5   25.80    7.10
  -4 -12   5   28.50    8.30
   4 -12  -5   38.60    8.50
   3 -12  -5   23.30    6.60
  -3 -12   5   33.20    7.30
  -3 -12   5   31.20    7.60
  -2 -12   5    8.80    4.30
   2 -12  -5   11.80    5.30
  -2 -12   5    8.30    3.90
  -1 -12   5   66.69   10.00
  -1 -12   5   69.39    8.30
   1 -12  -5   60.39    9.40
   0 -12   5   51.79    7.20
   0 -12  -5   44.00    8.00
   0 -12   5   65.89    9.90
   1 -12   5   48.50    8.80
   1 -12   5   60.29    7.60
  -1 -12  -5   51.09    8.20
   2 -12   5    7.60    3.60
   2 -12   5    6.60    4.50
  -2 -12  -5   11.00    4.30
  -3 -12  -5  204.58   15.90
   3 -12   5  185.78   19.30
   3 -12   5  167.08   14.00
   4 -12   5  129.69   15.80
   4 -12   5  102.69   11.50
  -4 -12  -5   97.19   11.80
   5 -12   5   67.29    9.50
   5 -12   5   68.49   12.00
  -5 -12  -5   65.49   13.70
  -5 -12  -5   56.59    9.20
   6 -12   5    6.20    4.30
  -6 -12  -5    9.80    6.90
   6 -12   5    1.60    4.40
  -6 -12  -5    4.70    4.40
   7 -12   5   18.60    7.60
   7 -12   5   22.50    6.70
  -7 -12  -5   15.20    8.60
  -7 -12  -5   31.00    7.10
   8 -12   5  320.67   26.20
  -8 -12  -5  260.97   31.40
   8 -12   5  287.87   23.00
   9 -12   5   64.99   11.70
  -9 -12  -5   60.59   15.60
 -10 -12  -5    1.60    8.40
  10 -12   5   10.90    6.60
  11 -13  -5   21.20   10.80
 -11 -13   5   10.00    9.40
  10 -13  -5   91.89   17.20
 -10 -13   5   70.79   14.80
  -9 -13   5   19.10    8.40
   9 -13  -5   24.50   10.70
  -8 -13   5  135.59   18.80
  -7 -13   5   69.79   13.40
   7 -13  -5   76.79   14.20
   6 -13  -5 1098.39   72.69
  -6 -13   5 1296.37   74.29
  -5 -13   5  251.47   27.70
   5 -13  -5  245.38   24.40
  -5 -13   5  207.98   22.00
  -4 -13   5    5.80    4.60
   4 -13  -5    5.10    4.70
  -4 -13   5   -4.50    5.40
  -3 -13   5  105.09   12.40
  -3 -13   5  115.39   15.00
   3 -13  -5  102.19   13.50
  -2 -13   5   16.40    4.50
   2 -13  -5    8.70    5.00
  -2 -13   5   23.40    6.70
  -1 -13   5   18.80    6.50
  -1 -13   5   19.20    4.60
   1 -13  -5   10.10    5.20
   0 -13   5   10.60    5.00
   0 -13  -5    2.60    3.90
   0 -13   5    3.90    3.00
   1 -13   5  295.77   23.60
   1 -13   5  311.77   20.60
  -1 -13  -5  320.37   23.30
  -2 -13  -5   25.60    6.40
   2 -13   5   45.80    9.30
   2 -13   5   34.80    6.00
   3 -13   5   -0.30    3.00
   3 -13   5    2.80    4.30
  -3 -13  -5    3.00    3.80
   4 -13   5   12.20    4.70
  -4 -13  -5   15.40    5.40
   4 -13   5    6.30    5.50
  -5 -13  -5   21.40    6.10
  -5 -13  -5    7.00    7.50
   5 -13   5   16.00    6.80
   5 -13   5   17.10    5.30
  -6 -13  -5   57.09   13.30
   6 -13   5   78.49   13.40
   6 -13   5   78.19   10.90
  -6 -13  -5   70.59   10.60
   7 -13   5    6.10    6.40
  -7 -13  -5    4.80    4.80
   7 -13   5    3.10    4.40
  -7 -13  -5    1.00    6.40
   8 -13   5   80.79   14.50
  -8 -13  -5   30.70   11.70
   8 -13   5   64.19   11.00
   9 -13   5  111.49   15.60
  -9 -13  -5   91.89   19.40
   9 -13   5  132.79   19.60
  10 -14  -5   31.40   12.40
 -10 -14   5   18.90    9.10
  -9 -14   5   30.30   11.00
   9 -14  -5   27.30   10.30
  -8 -14   5    6.20    6.80
   8 -14  -5   -3.80    5.70
  -7 -14   5    9.90    6.40
   7 -14  -5   20.80    8.40
  -6 -14   5   40.10    9.80
   6 -14  -5   32.10    9.30
   5 -14  -5   66.79   12.40
  -5 -14   5   61.09   11.40
   4 -14  -5  105.89   14.80
  -4 -14   5  116.29   15.90
  -3 -14   5   20.00    7.30
   3 -14  -5   25.70    7.80
   2 -14  -5   56.49   10.00
  -2 -14   5   50.89    9.50
  -1 -14   5    2.40    4.10
   1 -14  -5   -1.80    4.00
   0 -14   5  649.64   42.20
   0 -14  -5  629.34   41.60
   1 -14   5  113.79   15.40
  -1 -14  -5  166.18   17.00
  -2 -14  -5   83.29   11.70
   2 -14   5   91.69   13.30
   2 -14   5  103.89   12.80
   3 -14   5   27.10    7.70
   3 -14   5   15.20    5.00
  -3 -14  -5   23.40    6.80
   4 -14   5    4.50    4.10
  -4 -14  -5    8.60    5.00
   4 -14   5    8.10    5.80
  -5 -14  -5    9.60    8.10
   5 -14   5   12.40    5.40
  -5 -14  -5    2.60    4.50
   5 -14   5    8.60    7.00
   6 -14   5    0.00    4.70
   6 -14   5    0.10    4.10
  -6 -14  -5    2.30    4.60
  -6 -14  -5    6.10    7.70
   7 -14   5   63.19   11.00
  -7 -14  -5   61.99   14.70
   7 -14   5   91.79   15.80
   8 -14   5   70.49   12.30
   8 -14   5   79.59   15.00
  -8 -14  -5   50.29   13.80
   9 -14   5   54.29   11.10
   9 -15  -5   -4.90    6.10
  -9 -15   5   -0.70    6.20
  -8 -15   5   78.49   15.60
   8 -15  -5  105.89   17.90
  -7 -15   5   23.10    9.00
   7 -15  -5   10.90    8.00
   6 -15  -5   14.60    7.80
  -6 -15   5   22.20    8.30
   5 -15  -5   63.19   12.50
  -5 -15   5   64.79   12.80
   4 -15  -5  161.08   19.30
  -4 -15   5  142.19   18.40
   3 -15  -5    3.80    5.40
  -3 -15   5    5.80    5.20
   2 -15  -5   15.70    6.40
  -2 -15   5    9.80    5.50
   1 -15  -5   36.40    8.60
  -1 -15   5   29.40    7.70
   0 -15  -5    8.50    5.90
   0 -15   5   20.80    7.40
  -1 -15  -5   94.09   13.10
   1 -15   5   88.79   13.60
   2 -15   5  149.29   17.90
  -2 -15  -5  154.38   16.80
   3 -15   5  217.98   22.90
  -3 -15  -5  185.78   19.50
  -4 -15  -5    0.40    4.10
   4 -15   5   -4.30    4.30
  -5 -15  -5   55.29   10.10
   5 -15   5   49.00   11.20
  -6 -15  -5   42.40    9.50
  -6 -15  -5   19.00   10.10
  -7 -15  -5   18.10    9.50
   7 -15   5   18.70    9.70
   8 -15   5   42.00   12.60
  -8 -15  -5   37.00   13.60
   8 -16  -5   -0.20    7.60
  -8 -16   5   -4.90    6.20
  -7 -16   5   25.90   10.10
   7 -16  -5   57.59   13.80
  -6 -16   5   35.10    9.80
   6 -16  -5   58.29   12.90
  -5 -16   5   47.40   10.80
   5 -16  -5   73.49   13.60
  -4 -16   5   26.50    8.90
   4 -16  -5   30.80    9.00
   3 -16  -5    1.40    5.50
  -3 -16   5    4.10    5.10
  -2 -16   5   22.00    7.60
   2 -16  -5   22.70    7.70
   1 -16  -5   91.29   14.10
  -1 -16   5   69.99   12.00
   0 -16   5   40.20    9.70
   0 -16  -5   21.50    7.80
   1 -16   5   45.10   10.00
  -1 -16  -5   29.20    8.20
   2 -16   5  355.26   27.70
  -2 -16  -5  328.07   26.50
  -3 -16  -5   44.20   10.00
   3 -16   5   71.49   12.80
   4 -16   5    6.00    6.50
  -4 -16  -5    4.40    5.30
   5 -16   5    4.50    6.20
  -5 -16  -5    1.80    5.20
  -6 -16  -5   30.40   12.20
  -6 -16  -5   35.80    9.40
   6 -16   5   44.90   12.00
  -7 -16  -5   13.20   10.30
   7 -16   5   -5.70    6.70
   7 -17  -5  119.29   19.60
  -7 -17   5  103.29   17.90
  -6 -17   5   16.50    8.40
   6 -17  -5   17.30    8.90
  -5 -17   5    8.90    7.10
   5 -17  -5    4.40    5.90
  -4 -17   5  114.89   17.20
   4 -17  -5   87.69   15.00
  -3 -17   5   39.30    9.90
   3 -17  -5   67.09   12.90
   2 -17  -5   11.80    7.40
  -2 -17   5    1.80    5.60
  -1 -17   5    9.30    6.50
   1 -17  -5    6.00    6.30
   0 -17   5  122.29   16.70
   0 -17  -5   82.89   13.80
  -1 -17  -5   74.59   12.50
   1 -17   5   86.99   14.30
   2 -17   5   40.50   10.30
  -2 -17  -5   20.90    7.50
  -3 -17  -5  165.18   19.10
   3 -17   5  212.88   23.50
  -4 -17  -5    9.00    6.60
   4 -17   5   -3.70    4.70
  -5 -17  -5    5.10    5.80
   5 -17   5   18.20    9.40
   5 -18  -5   86.29   16.20
  -5 -18   5  121.89   19.10
  -4 -18   5    6.40    7.00
   4 -18  -5    7.20    7.20
  -3 -18   5  162.48   21.20
   3 -18  -5  149.99   20.20
   2 -18  -5    0.50    5.90
  -2 -18   5    6.40    7.10
  -1 -18   5   78.59   14.10
   1 -18  -5   84.09   14.50
   0 -18  -5   10.80    7.00
   0 -18   5    2.20    5.70
  -1 -18  -5   49.30   10.80
   1 -18   5   34.90    9.90
  -2 -18  -5   31.90    8.90
   2 -18   5   25.40    9.70
  -3 -18  -5   -1.20    5.60
   3 -18   5    6.30    7.70
  -4 -18  -5   41.90   10.20
   4 -18   5   53.59   13.20
   3 -19  -5  -13.00    5.10
  -3 -19   5    7.50    7.90
  -2 -19   5    1.60    7.20
  -1 -19   5   -1.60    5.70
   1 -19  -5    5.70    7.30
   0 -19   5    9.10    7.10
   0 -19  -5    4.40    6.80
   1 -19   5   28.00    9.50
  -1 -19  -5   29.80    9.40
  14   0  -6  194.58   23.60
  13   0  -6   15.30    7.10
  12   0  -6  228.88   25.10
  11   0  -6    0.50    4.50
  10   0  -6   36.00    8.30
   9   0  -6    9.60    5.40
   9   0  -6    1.50    3.50
   8   0  -6 1922.71  107.79
   8   0  -6 1843.92  106.29
  -7   0   6    2.60    4.90
   7   0  -6   -2.10    2.20
   6   0  -6  410.56   27.40
  -6   0   6  411.36   30.60
  -5   0   6   12.70    5.60
   5   0  -6   -1.00    2.50
   4   0  -6   28.30    5.70
  -4   0   6   31.50    7.90
  -3   0   6   10.60    4.40
   3   0  -6    5.60    2.90
   2   0  -6 1255.17   67.89
   2   0  -6 1277.47   67.99
  -2   0   6 1118.29   69.89
  -1   0   6   12.30    4.90
   1   0  -6    0.10    2.30
   0   0  -6  382.86   23.10
   0   0   6  346.17   24.90
   1   0   6    2.90    2.80
  -1   0  -6    0.70    2.60
  -2   0  -6  115.79   10.20
   2   0   6  119.59   10.20
   3   0   6    0.80    2.00
  -3   0  -6    4.60    3.50
  -4   0  -6  652.93   38.40
   4   0   6  609.74   37.50
  -5   0  -6    6.60    4.10
   5   0   6    3.50    2.60
  -6   0  -6 4436.06  230.18
   6   0   6 4074.19  228.88
  -7   0  -6   -1.00    4.90
   7   0   6    4.90    3.20
   8   0   6   27.00    6.50
  -8   0  -6   21.90    7.40
  -9   0  -6   21.80    8.00
   9   0   6   19.60    6.60
  10   0   6  144.69   17.10
 -10   0  -6  125.09   16.90
  11   0   6   -1.00    4.20
  12   0   6  146.39   18.30
  13   0   6    7.00    5.90
  14  -1  -6  100.89   17.60
  14   1  -6  160.58   20.90
  13  -1  -6   20.20    8.30
  13   1  -6    9.10    7.00
  12  -1  -6    2.80    5.50
  12   1  -6   11.70    7.30
  11  -1  -6   96.69   14.80
  11  -1  -6  151.98   17.70
  11   1  -6  117.79   15.80
  10  -1  -6    1.20    4.50
  10  -1  -6    0.90    3.70
  10   1  -6   -1.60    4.30
   9  -1  -6   96.99   12.90
   9  -1  -6   79.99   11.60
   9   1  -6   82.29   12.90
   8  -1  -6 1036.00   62.79
   8  -1  -6 1038.30   62.09
   7  -1  -6  851.31   53.09
  -7  -1   6  924.41   57.39
  -6  -1   6   97.39   14.40
   6  -1  -6  106.79   12.60
  -6   1   6  112.69   15.80
   5  -1  -6  429.96   28.90
  -5  -1   6  455.45   32.40
  -5   1   6  460.65   31.80
  -4  -1   6   38.10    8.70
   4  -1  -6   20.30    5.20
  -4   1   6   23.70    6.40
   3  -1  -6  201.78   15.90
   3  -1  -6  264.17   17.80
  -3  -1   6  294.67   20.50
  -3   1   6  348.77   20.90
  -2  -1   6   44.50    7.80
   2  -1  -6   40.70    5.60
   2  -1  -6   30.00    5.10
  -2   1   6   40.70    7.40
   1  -1  -6  732.53   41.90
  -1  -1   6  671.03   44.90
   1  -1  -6  842.42   42.20
  -1   1   6  737.43   44.80
   1   1  -6  671.73   42.20
   0  -1   6 1096.39   64.59
   0  -1  -6 1053.39   61.79
   0  -1  -6 1251.67   60.89
   0   1   6 1079.09   64.09
   0   1  -6 1048.80   62.09
  -1  -1  -6   28.40    5.60
   1  -1   6   40.20    6.50
  -1   1  -6   42.90    6.50
   1   1   6   43.60    6.60
  -2  -1  -6   16.80    4.60
   2  -1   6   11.20    3.60
   2  -1   6   21.80    2.40
  -2   1  -6   27.80    5.40
   2   1   6   22.00    4.40
   3  -1   6  732.13   42.20
  -3  -1  -6  707.03   42.60
  -3   1  -6  700.53   42.10
   3   1   6  722.73   41.80
   4  -1   6   10.40    3.30
  -4  -1  -6   11.40    4.40
   4   1   6   12.50    3.50
  -4   1  -6    8.10    4.20
   5  -1   6   15.90    4.40
  -5  -1  -6   21.90    6.00
   5   1   6   19.60    4.80
  -5   1  -6   12.70    4.80
  -6  -1  -6   48.80    9.50
   6  -1   6   58.49    8.60
   6  -1   6   61.29    5.80
   6   1   6   49.50    7.70
  -6   1  -6   78.49   11.60
   7  -1   6 1192.48   71.69
  -7  -1  -6 1314.07   73.69
  -7   1  -6 1317.57   72.49
   7   1   6 1189.58   71.39
  -8  -1  -6   10.20    6.20
   8  -1   6   12.80    4.50
  -8   1  -6   10.30    5.60
   8   1   6   15.80    5.00
  -9  -1  -6  254.27   21.20
   9  -1   6  226.18   18.70
  -9   1  -6  229.38   19.60
   9   1   6  203.28   18.00
 -10  -1  -6    4.30    6.70
  10  -1   6    7.80    4.70
 -10   1  -6    7.60    8.60
  10   1   6    9.30    5.50
  11  -1   6   22.80    7.20
  11   1   6   28.10    7.70
  12  -1   6   33.50    9.10
  12   1   6   38.10    9.50
  13  -1   6   14.80    7.00
  13   1   6   18.00    7.30
  14  -2  -6   20.80    8.70
  14   2  -6   17.70    8.80
  13  -2  -6    1.00    6.10
  13   2  -6   19.30    7.80
  12  -2  -6  124.69   17.10
  12  -2  -6   80.89   14.10
  12   2  -6   81.89   13.70
  11  -2  -6  108.59   16.20
  11  -2  -6  106.69   15.20
  11   2  -6  135.09   17.50
  10  -2  -6   89.59   13.60
  10  -2  -6  100.59   14.20
  10   2  -6   84.69   13.00
   9  -2  -6  458.25   31.50
   9  -2  -6  405.16   30.50
   8  -2  -6  395.66   28.40
   8  -2  -6  357.96   27.80
  -8  -2   6  431.86   32.60
   7  -2  -6  326.17   24.20
  -7  -2   6  318.57   27.10
   7  -2  -6  330.77   24.40
   6  -2  -6   78.09   10.90
  -6  -2   6   94.79   14.50
  -6   2   6   68.69   11.60
   5  -2  -6  108.29   12.70
  -5  -2   6  159.68   18.00
  -5   2   6  136.19   16.30
   4  -2  -6   38.40    5.30
   4  -2  -6   36.10    6.30
  -4  -2   6   36.30    8.30
  -4   2   6   32.70    7.10
  -3  -2   6    4.10    3.80
   3  -2  -6    7.40    2.70
   3  -2  -6    5.50    2.80
  -3   2   6    6.50    3.70
   2  -2  -6   28.80    5.20
   2  -2  -6   26.90    4.60
  -2  -2   6   34.50    7.10
  -2   2   6   27.70    5.70
   1  -2  -6  264.07   16.00
  -1  -2   6  243.18   19.30
   1  -2  -6  227.28   15.90
  -1   2   6  228.08   18.10
   0  -2  -6 1442.56   83.39
   0  -2   6 1487.35   86.09
   0  -2  -6 1672.93   82.59
   0   2   6 1441.46   85.09
  -1  -2  -6  383.26   24.20
   1  -2   6  398.16   22.10
  -1  -2  -6  381.16   21.80
   1  -2   6  366.56   24.90
  -1   2  -6  393.66   24.30
   1   2   6  352.16   23.80
   2  -2   6   24.60    3.00
   2  -2   6   21.10    4.50
  -2  -2  -6   15.20    4.60
  -2   2  -6   16.70    4.60
   2   2   6   18.10    3.80
  -3  -2  -6  369.96   24.70
   3  -2   6  352.56   20.80
   3  -2   6  364.26   23.90
  -3   2  -6  395.86   24.10
   3   2   6  378.06   23.20
   4  -2   6 1204.58   68.09
   4  -2   6 1112.69   64.69
  -4  -2  -6 1267.27   69.49
   4   2   6 1178.68   67.29
  -4   2  -6 1295.97   68.39
  -5  -2  -6   23.90    6.70
   5  -2   6   19.70    3.10
   5  -2   6   16.70    4.50
   5   2   6   20.50    4.60
  -5   2  -6    7.80    4.70
   6  -2   6   74.49    9.40
  -6  -2  -6   56.29   10.60
  -6  -2  -6   56.69    4.60
   6  -2   6   51.09    6.00
   6   2   6   68.29    8.90
  -6   2  -6   79.79   10.80
  -7  -2  -6    8.60    6.00
   7  -2   6   14.00    3.60
   7  -2   6   12.30    4.00
  -7   2  -6    8.70    6.00
   7   2   6   14.70    4.50
   8  -2   6   71.99   10.70
  -8  -2  -6   82.69   13.90
  -8   2  -6   79.79   11.50
   8   2   6   81.89   11.00
   9  -2   6    0.50    3.10
  -9  -2  -6   -0.40    5.70
   9   2   6   -2.10    2.50
  -9   2  -6    2.00    6.30
  10  -2   6    9.60    5.00
 -10  -2  -6    7.90    7.90
  10   2   6    1.90    3.50
 -11  -2  -6    4.30    9.10
  11  -2   6    2.50    4.10
  11   2   6    1.80    4.40
  12  -2   6   16.30    7.00
  12   2   6   14.30    6.70
  14  -3  -6    4.30    6.40
 -14  -3   6    1.40    9.00
  14  -3  -6   -6.80    5.20
  14   3  -6    5.30    6.80
  13  -3  -6   58.99   13.20
  13  -3  -6   71.79   14.20
  13   3  -6   86.39   15.10
  12  -3  -6   34.00    9.60
  12  -3  -6   36.90    9.70
  12   3  -6   25.60    9.00
  11  -3  -6    3.60    5.30
 -11  -3   6    7.00    8.00
  11  -3  -6    9.70    6.60
  11   3  -6    5.60    6.80
  10  -3  -6  220.88   23.40
  10  -3  -6  209.08   22.20
 -10  -3   6  268.97   29.70
   9  -3  -6   33.60    8.70
   9  -3  -6   37.30    8.60
  -9  -3   6   42.90   11.90
   8  -3  -6  355.26   26.40
  -8  -3   6  364.36   30.50
   8  -3  -6  358.36   26.90
   7  -3  -6  182.58   18.30
  -7  -3   6  178.58   22.30
   7  -3  -6  143.49   15.80
   6  -3  -6  448.26   30.60
  -6  -3   6  448.46   34.40
  -6   3   6  470.55   32.60
  -5  -3   6  474.45   33.90
   5  -3  -6  454.05   30.20
  -5   3   6  447.66   31.40
   4  -3  -6  237.18   14.30
  -4  -3   6  226.18   19.60
   4  -3  -6  206.08   16.20
  -4   3   6  185.58   17.00
   3  -3  -6  109.89    8.80
   3  -3  -6  115.79   11.50
  -3  -3   6  109.79   14.00
  -3   3   6  131.49   13.60
   2  -3  -6  337.17   21.00
   2  -3  -6  304.97   19.90
  -2  -3   6  339.77   23.70
  -2   3   6  314.77   21.70
  -1  -3   6 3311.57  188.88
   1  -3  -6 3425.46  185.28
   1  -3  -6 3609.84  185.28
   0  -3   6  426.66   29.60
   0  -3  -6  438.06   27.70
   0  -3  -6  481.15   26.70
   1  -3   6    8.50    3.60
   1  -3   6    9.00    2.20
  -1  -3  -6    8.70    2.00
  -1  -3  -6    7.50    3.50
   1   3   6    0.60    1.50
  -2  -3  -6  278.57   16.90
   2  -3   6  311.67   20.40
  -2  -3  -6  306.77   20.70
   2  -3   6  302.47   17.90
   2   3   6  300.57   19.00
  -3  -3  -6   16.90    5.10
  -3  -3  -6   18.60    2.20
   3  -3   6   18.70    3.00
   3  -3   6   17.00    4.30
   3   3   6   18.90    4.00
  -3   3  -6   25.40    5.80
   4  -3   6   22.50    3.40
  -4  -3  -6   25.60    2.40
  -4  -3  -6   21.00    6.60
   4  -3   6   24.80    5.20
   4   3   6   29.60    5.00
  -4   3  -6   28.70    6.30
  -5  -3  -6  485.55   25.80
   5  -3   6  461.75   29.80
  -5  -3  -6  463.65   31.60
   5  -3   6  414.86   26.90
   5   3   6  495.65   29.20
  -5   3  -6  500.95   30.20
   6  -3   6   45.60    6.00
   6  -3   6   55.29    8.30
  -6  -3  -6   45.30    4.50
  -6  -3  -6   40.30    9.50
   6   3   6   44.10    6.90
  -6   3  -6   53.99    9.30
   7  -3   6   62.39    7.50
   7  -3   6   59.49    8.90
  -7  -3  -6   44.40   10.60
  -7   3  -6   50.29    9.30
   7   3   6   58.49    8.60
  -8  -3  -6   62.19   11.90
   8  -3   6   22.40    6.10
   8   3   6   47.50    8.20
  -8   3  -6   47.90    9.00
   9  -3   6   -5.50    2.20
  -9  -3  -6    9.10    7.20
  -9   3  -6    5.70    6.10
   9   3   6   -1.00    2.60
 -10  -3  -6   29.50   10.30
  10  -3   6   35.10    8.20
  10   3   6   35.90    7.90
 -11  -3  -6   11.20   10.00
  11  -3   6    0.60    3.70
  11   3   6   -0.40    3.40
  12  -3   6   45.30   10.40
  12   3   6   45.80   10.50
  14  -4  -6   33.60   11.10
  14  -4  -6   36.20   11.00
 -14  -4   6   40.80   16.00
  13  -4  -6   61.99   13.40
 -13  -4   6   40.60   15.90
  13  -4  -6   46.30   11.50
  12  -4  -6   51.89   11.30
  12  -4  -6   58.59   12.20
 -12  -4   6   41.80   14.80
 -11  -4   6   94.09   19.00
  11  -4  -6  104.39   15.30
  11  -4  -6   67.69   13.50
 -10  -4   6   19.80   10.70
  10  -4  -6   16.30    7.60
  10  -4  -6    6.70    6.20
   9  -4  -6   19.10    6.70
   9  -4  -6   40.60    8.80
  -9  -4   6   49.60   13.50
   8  -4  -6   26.80    7.00
   8  -4  -6   28.80    8.00
  -8  -4   6   46.60   11.70
  -7  -4   6  797.82   55.59
   7  -4  -6  822.62   51.69
   7  -4  -6  860.31   51.29
  -6  -4   6   32.20    9.20
   6  -4  -6   17.40    5.50
  -6   4   6    7.90    4.80
   5  -4  -6   79.09    6.50
  -5  -4   6   63.09   12.10
   5  -4  -6   61.99    9.40
  -5   4   6   80.69   11.60
   4  -4  -6  304.87   21.80
   4  -4  -6  338.17   19.30
  -4  -4   6  291.27   24.40
  -4   4   6  299.37   22.60
  -3  -4   6   36.10    7.60
   3  -4  -6   33.60    6.20
   3  -4  -6   40.70    5.60
   2  -4  -6   22.40    4.30
   2  -4  -6   26.30    5.00
  -2  -4   6   49.60    8.50
  -2   4   6   42.30    6.60
   1  -4  -6 1034.20   56.89
   1  -4  -6 1025.60   56.49
  -1  -4   6  984.70   60.19
  -1   4   6  968.30   58.09
   0  -4   6  224.28   17.60
   0  -4  -6  227.88   16.20
   0  -4  -6  225.58   14.70
   0   4   6  235.18   16.30
  -1  -4  -6   19.50    3.10
   1  -4   6   11.30    2.90
  -1  -4  -6   23.10    5.60
   1  -4   6   16.30    4.70
   1   4   6   12.80    3.30
  -2  -4  -6   36.70    3.90
   2  -4   6   36.30    6.40
  -2  -4  -6   32.60    6.60
   2  -4   6   33.30    4.70
   2   4   6   29.90    4.70
  -3  -4  -6   62.89    9.70
   3  -4   6   50.09    5.90
  -3  -4  -6   51.39    4.30
   3  -4   6   64.09    8.40
   4  -4   6   31.40    5.90
   4  -4   6   45.00    5.50
  -4  -4  -6   46.50    4.20
  -4  -4  -6   43.40    8.70
   4   4   6   38.90    5.80
  -5  -4  -6    9.70    2.00
  -5  -4  -6    5.90    4.70
   5  -4   6   10.30    2.90
   5  -4   6   19.30    4.70
   5   4   6   12.40    3.50
   6  -4   6   58.59    8.50
   6  -4   6   57.79    7.00
  -6  -4  -6   46.20   10.00
  -6  -4  -6   53.49    5.20
   6   4   6   46.10    7.10
   7  -4   6  254.77   19.40
  -7  -4  -6  245.58   22.00
   7  -4   6  245.18   17.30
   7   4   6  269.27   18.90
   8  -4   6   54.19    9.70
  -8  -4  -6   38.70   10.90
   8   4   6   34.20    6.80
  -9  -4  -6   57.89   13.00
   9  -4   6   68.99   10.70
   9   4   6   69.59   10.20
  10  -4   6    4.10    4.70
 -10  -4  -6   11.00    8.80
  10   4   6   14.80    5.60
  11  -4   6    3.70    4.30
 -11  -4  -6    4.70    8.90
  11   4   6   11.80    5.60
  12  -4   6   96.69   15.00
  12   4   6   65.99   11.90
  14  -5  -6    7.30    7.70
  14  -5  -6   14.30    9.10
 -14  -5   6    2.10   11.80
  13  -5  -6   15.70    8.90
  13  -5  -6    6.70    7.60
 -13  -5   6   21.60   13.40
 -12  -5   6  168.88   26.70
  12  -5  -6   74.49   14.90
  12  -5  -6   90.89   15.80
  11  -5  -6  171.78   22.10
  11  -5  -6  212.78   22.70
 -11  -5   6  180.78   28.20
  10  -5  -6  200.18   21.00
 -10  -5   6  234.38   30.10
  10  -5  -6  208.88   23.30
   9  -5  -6    4.10    4.80
  -9  -5   6    6.80    7.50
   9  -5  -6   12.20    6.10
   8  -5  -6   17.80    6.60
   8  -5  -6   24.00    6.90
  -8  -5   6   37.60   11.30
   7  -5  -6  123.99   14.30
  -7  -5   6  138.89   20.50
   7  -5  -6   93.19   13.30
  -6  -5   6    8.50    6.70
   6  -5  -6   10.70    3.00
   6  -5  -6   12.30    5.00
  -6   5   6    1.90    3.90
  -5  -5   6   74.39   13.10
   5  -5  -6   82.59    6.90
   5  -5  -6   80.19   10.60
  -5   5   6   84.19   11.70
   4  -5  -6   30.20    6.30
   4  -5  -6   16.50    3.50
  -4  -5   6   12.90    6.60
   3  -5  -6  315.77   19.60
  -3  -5   6  276.27   23.30
   3  -5  -6  324.37   21.40
  -3   5   6  311.17   21.40
  -2  -5   6  221.48   18.00
   2  -5  -6  171.78   13.90
   2  -5  -6  221.98   15.10
  -2   5   6  218.88   15.30
   1  -5  -6   18.70    4.00
  -1  -5   6   20.10    6.70
   1  -5  -6   22.50    4.80
  -1   5   6   35.30    6.50
   0  -5  -6   34.20    5.00
   0  -5   6   42.50    7.80
   0  -5  -6   40.80    6.60
   0  -5   6   41.80    5.90
   0   5   6   50.09    6.50
   1  -5   6  813.22   50.49
  -1  -5  -6  882.01   48.30
  -1  -5  -6  899.41   50.69
   1   5   6  868.21   48.60
   2  -5   6   23.40    5.20
  -2  -5  -6   31.90    6.70
   2  -5   6   32.40    5.00
  -2  -5  -6   27.10    3.90
   2   5   6   33.60    4.50
  -3  -5  -6  500.75   31.40
  -3  -5  -6  475.35   27.40
   3  -5   6  482.75   30.30
   3  -5   6  487.55   28.90
   3   5   6  472.05   28.40
  -4  -5  -6  547.75   34.10
   4  -5   6  552.24   30.80
  -4  -5  -6  553.64   29.20
   4  -5   6  523.65   32.10
   4   5   6  406.86   29.80
  -5  -5  -6  175.88   11.10
  -5  -5  -6  147.19   17.90
   5  -5   6  172.78   13.90
   5  -5   6  165.68   12.20
   5   5   6  157.48   12.40
  -6  -5  -6   13.00    7.30
   6  -5   6   35.80    6.40
  -6  -5  -6   26.00    3.70
   6  -5   6   27.90    5.10
   6   5   6   10.30    3.70
   7  -5   6   30.90    5.90
  -7  -5  -6   42.10   10.20
   7  -5   6   43.90    8.00
   7   5   6   47.80    7.50
   8  -5   6   37.70    7.80
   8  -5   6   35.50   11.00
  -8  -5  -6   38.20   11.60
   8   5   6   26.20    6.10
   9  -5   6  167.88   18.20
  -9  -5  -6  174.88   23.90
   9   5   6  182.98   18.10
  10  -5   6  117.69   15.40
 -10  -5  -6  106.99   19.20
  10   5   6  161.38   16.80
  11  -5   6   89.59   14.10
 -11  -5  -6   50.19   13.90
  11   5   6   82.99   12.50
  12  -5   6   -5.00    4.10
  12   5   6    0.80    4.40
  14  -6  -6   23.10   10.20
 -14  -6   6   30.90   15.30
  14  -6  -6    4.70    8.40
  13  -6  -6   18.80    9.20
 -13  -6   6   38.30   15.80
  13  -6  -6   27.00   10.00
  12  -6  -6    6.00    7.10
 -12  -6   6   25.80   12.80
  12  -6  -6    6.20    6.80
  11  -6  -6    9.00    6.90
  11  -6  -6    4.10    6.00
 -11  -6   6   27.20   11.40
  10  -6  -6   22.80    8.00
 -10  -6   6   19.00   10.10
  10  -6  -6   27.20    8.10
   9  -6  -6   92.99   14.10
  -9  -6   6   88.59   18.00
   9  -6  -6  105.19   14.50
   8  -6  -6    9.00    5.20
  -8  -6   6    0.90    7.10
   8  -6  -6   -1.00    4.20
   7  -6  -6    9.10    5.10
   7  -6  -6    4.40    4.30
  -7  -6   6   -0.50    3.90
  -6  -6   6  102.49   16.90
   6  -6  -6   90.99    7.10
   6  -6  -6   64.29   10.60
  -6   6   6   83.09   11.60
  -5  -6   6 1461.95   85.39
   5  -6  -6 1388.56   80.79
   5  -6  -6 1383.06   76.29
   4  -6  -6  157.88   15.50
   4  -6  -6  150.28   11.20
  -4  -6   6  170.68   19.20
  -4   6   6  138.39   15.10
   3  -6  -6 1071.19   65.49
   3  -6  -6 1199.48   64.09
  -3  -6   6 1148.89   68.49
  -3   6   6 1164.38   65.59
   2  -6  -6   86.79    9.50
   2  -6  -6   95.49   10.30
  -2  -6   6  114.19   14.30
  -2   6   6  106.59   10.60
  -1  -6   6   23.90    6.60
   1  -6  -6   11.60    3.80
  -1  -6   6   13.80    3.70
   1  -6  -6   11.30    3.30
  -1   6   6   40.20    6.50
   0  -6  -6  644.54   38.80
   0  -6   6  666.83   40.00
   0  -6   6  659.13   38.40
   0  -6  -6  673.83   37.90
   0   6   6  613.74   37.30
   1  -6   6  101.09   11.00
  -1  -6  -6  101.19    8.20
   1  -6   6   99.39    9.90
  -1  -6  -6   99.59   11.20
   1   6   6   95.69    7.60
  -2  -6  -6    8.10    4.20
  -2  -6  -6    8.60    2.50
   2  -6   6    9.90    3.40
   2  -6   6    7.80    2.90
   2   6   6    7.90    2.30
  -3  -6  -6  119.99    8.80
  -3  -6  -6  108.99   13.10
   3  -6   6  126.39   10.10
   3  -6   6  110.29   11.60
   3   6   6  110.79    8.70
   4  -6   6  149.19   12.70
   4  -6   6  163.38   12.20
  -4  -6  -6  157.18   10.80
  -4  -6  -6  177.28   15.00
   4   6   6  138.79   11.10
   5  -6   6   23.00    5.60
  -5  -6  -6   15.10    3.30
   5  -6   6   23.40    4.80
  -5  -6  -6   14.20    6.30
   5   6   6   22.10    4.30
   6  -6   6   86.29    9.50
  -6  -6  -6   49.99    6.20
  -6  -6  -6   63.39   11.30
   6  -6   6   65.79    9.40
   7  -6   6  245.88   17.70
  -7  -6  -6  270.87   27.30
   7  -6   6  234.88   18.80
   7   6   6  228.68   17.40
   8  -6   6  205.38   16.10
  -8  -6  -6  163.28   22.20
   8  -6   6  204.98   17.30
   8   6   6  202.08   16.10
  -9  -6  -6  515.45   38.30
   9  -6   6  472.65   33.30
   9   6   6  468.95   31.90
  10  -6   6   -0.70    4.30
 -10  -6  -6    7.10   10.50
  10   6   6    0.60    3.60
 -11  -6  -6   20.90   11.50
  11  -6   6    6.50    5.90
  11   6   6    3.10    4.40
  12  -6   6   59.29   11.80
 -12  -6  -6   58.19   18.20
  12   6   6   51.89   10.40
 -13  -7   6    2.90   11.00
  13  -7  -6   16.30    8.90
  13  -7  -6   17.30    9.50
  12  -7  -6   12.70    8.00
  12  -7  -6   19.80    8.70
 -12  -7   6   16.80   12.50
  11  -7  -6  106.79   17.30
  11  -7  -6   82.09   14.60
 -11  -7   6   94.79   20.50
  10  -7  -6   52.79   12.10
 -10  -7   6   62.99   16.50
  10  -7  -6   44.40   10.30
   9  -7  -6    0.00    4.80
   9  -7  -6    0.30    4.20
  -9  -7   6   -0.50    8.30
   8  -7  -6  109.59   14.00
  -8  -7   6   59.69   15.00
   8  -7  -6  120.29   15.00
   7  -7  -6   52.89    9.50
  -7  -7   6   50.29   13.10
   7  -7  -6   68.59   11.20
   6  -7  -6 1185.98   64.99
  -6  -7   6 1201.88   75.89
   6  -7  -6 1187.18   70.79
  -5  -7   6  191.28   22.60
   5  -7  -6  192.18   18.70
   5  -7  -6  175.48   12.50
  -5   7   6  171.88   17.80
  -4  -7   6  113.79   15.00
   4  -7  -6  102.19   12.50
   4  -7  -6  112.99    9.40
  -4   7   6  124.29   13.60
   3  -7  -6  630.24   35.90
  -3  -7   6  601.64   40.00
   3  -7  -6  598.14   37.40
  -3   7   6  596.84   36.70
  -2  -7   6 1484.85   78.19
   2  -7  -6 1373.96   77.39
  -2  -7   6 1329.97   79.89
   2  -7  -6 1391.96   76.49
  -2   7   6 1300.77   76.19
   1  -7  -6  116.39   10.20
   1  -7  -6  109.49   11.50
  -1  -7   6  158.58   15.90
  -1  -7   6  112.69   11.50
  -1   7   6  117.99   11.60
   0  -7  -6    2.20    3.20
   0  -7  -6    1.10    1.90
   0  -7   6    4.90    3.60
   0  -7   6    2.10    2.10
   0   7   6    2.20    1.80
  -1  -7  -6    6.70    2.60
  -1  -7  -6    6.30    4.00
   1  -7   6    6.00    3.40
   1  -7   6    7.40    3.10
   1   7   6    8.30    2.20
  -2  -7  -6  107.99   12.50
   2  -7   6  124.09   10.60
   2  -7   6  103.19   11.20
  -2  -7  -6  109.09    9.10
   2   7   6  111.19    8.20
   3  -7   6   32.70    5.90
  -3  -7  -6   30.70    4.60
   3  -7   6   23.50    5.10
  -3  -7  -6   22.90    6.60
   3   7   6   40.70    4.80
   4  -7   6  242.58   17.00
  -4  -7  -6  225.78   15.20
   4  -7   6  216.98   16.90
  -4  -7  -6  249.18   19.30
   4   7   6  220.68   15.20
   5  -7   6   14.70    4.30
  -5  -7  -6   24.40    7.60
  -5  -7  -6   26.30    4.50
   5  -7   6   16.30    4.70
   5   7   6   22.60    4.40
   6  -7   6   19.60    5.00
  -6  -7  -6   23.50    4.20
  -6  -7  -6   15.30    6.60
   6  -7   6   17.90    5.30
   6   7   6   22.30    4.70
  -7  -7  -6   21.60    8.70
   7  -7   6   17.50    5.20
   7  -7   6   29.80    6.40
   7   7   6    5.90    3.20
  -8  -7  -6    3.30    7.10
   8  -7   6    4.70    3.60
   8  -7   6    1.30    3.40
   8   7   6    6.30    3.40
   9  -7   6    5.10    4.90
  -9  -7  -6   12.20    9.10
   9   7   6    4.90    4.30
 -10  -7  -6   80.59   17.30
  10  -7   6   66.89   12.30
  10   7   6   68.59   10.90
 -11  -7  -6    4.30    9.50
  11  -7   6   -0.10    4.60
  11   7   6    2.00    4.00
  12  -7   6   13.90    7.30
  12   7   6   30.70    8.50
  13  -8  -6    2.00    7.80
  13  -8  -6    3.00    7.40
 -13  -8   6   12.80   11.20
 -12  -8   6   61.89   18.70
  12  -8  -6   43.60   12.20
  12  -8  -6   39.20   11.20
 -11  -8   6   70.99   19.10
  11  -8  -6   41.20   10.90
  11  -8  -6   34.60   10.80
  10  -8  -6   30.60    8.90
 -10  -8   6   45.00   15.30
  10  -8  -6   47.90   11.70
   9  -8  -6   18.70    6.80
   9  -8  -6    7.20    5.90
  -9  -8   6   13.10   10.20
  -8  -8   6   89.99   18.40
   8  -8  -6  127.69   15.40
   8  -8  -6  109.69   15.50
  -7  -8   6   -2.80    6.00
   7  -8  -6    8.00    5.00
   7  -8  -6    3.70    4.50
   6  -8  -6   43.00    5.70
   6  -8  -6   39.10    8.60
  -6  -8   6   33.10   10.90
  -6   8   6   24.70    6.60
  -5  -8   6  419.86   35.00
   5  -8  -6  491.15   28.70
   5  -8  -6  482.35   32.50
  -5   8   6  503.15   32.50
  -4  -8   6  495.05   34.30
   4  -8  -6  447.76   30.90
   4  -8  -6  460.85   28.40
  -4   8   6  489.45   30.70
  -3  -8   6 1839.82  106.49
   3  -8  -6 1878.41  106.19
   3  -8  -6 1885.11  104.09
  -3  -8   6 2042.00  109.19
  -3   8   6 1891.81  104.59
  -2  -8   6  158.48   17.20
  -2  -8   6  165.08   15.40
   2  -8  -6  128.49   13.40
   2  -8  -6  156.78   12.20
  -2   8   6  124.19   10.90
  -1  -8   6   72.49   10.20
  -1  -8   6   63.09    8.60
   1  -8  -6   56.99    8.30
   1  -8  -6   60.49    7.90
  -1   8   6   59.29    6.90
   0  -8  -6   43.60    6.40
   0  -8  -6   58.69    8.70
   0  -8   6   39.50    7.20
   0  -8   6   43.20    6.70
   0   8   6   39.30    4.40
   1  -8   6  576.54   35.20
  -1  -8  -6  579.84   35.90
   1  -8   6  549.25   34.80
  -1  -8  -6  576.14   34.20
   1   8   6  565.34   31.80
  -2  -8  -6  247.58   16.50
   2  -8   6  241.68   17.70
   2  -8   6  231.18   17.30
  -2  -8  -6  253.67   19.20
   2   8   6  236.78   14.80
   3  -8   6  273.27   19.60
  -3  -8  -6  272.37   18.10
  -3  -8  -6  270.27   21.10
   3  -8   6  283.97   19.60
   3   8   6  274.97   17.10
  -4  -8  -6  292.67   23.20
  -4  -8  -6  314.47   19.90
   4  -8   6  342.07   21.90
   4  -8   6  262.27   20.90
   4   8   6  314.97   19.40
  -5  -8  -6   45.30    6.30
   5  -8   6   52.39    8.20
   5  -8   6   38.30    7.20
  -5  -8  -6   52.39   10.60
   5   8   6   61.09    7.20
   6  -8   6   86.69   10.80
  -6  -8  -6   79.69    8.70
   6  -8   6   82.79   10.80
  -6  -8  -6   73.59   13.50
   6   8   6   79.39    9.10
   7  -8   6   81.59   11.40
  -7  -8  -6   88.59   14.80
   7  -8   6   94.89   11.80
   7   8   6   84.39   10.20
   8  -8   6    5.30    3.90
  -8  -8  -6   -2.90    5.30
   8  -8   6    5.00    4.20
   8   8   6    5.70    3.50
   9  -8   6  153.98   17.80
  -9  -8  -6  138.49   21.80
 -10  -8  -6    0.20    7.60
  10  -8   6    0.40    4.50
  10   8   6    0.50    3.10
 -11  -8  -6  139.99   24.30
  11  -8   6  224.38   24.10
  11   8   6  200.68   20.60
  13  -9  -6   83.19   17.50
 -13  -9   6   54.59   19.80
  13  -9  -6   74.09   15.10
  12  -9  -6  239.28   27.50
 -12  -9   6  149.99   28.00
  12  -9  -6  203.18   23.70
  11  -9  -6   25.80    9.00
 -11  -9   6    6.90   11.40
  11  -9  -6   24.00    9.80
 -10  -9   6  422.56   48.30
  10  -9  -6  597.44   42.00
  10  -9  -6  591.54   39.70
  -9  -9   6  254.27   33.50
   9  -9  -6  355.86   26.50
   9  -9  -6  333.77   27.80
   8  -9  -6   72.09   11.50
   8  -9  -6   78.89   13.80
  -8  -9   6   67.69   16.40
   7  -9  -6  183.48   20.40
  -7  -9   6  192.48   25.00
   7  -9  -6  201.38   17.50
   6  -9  -6   94.59    9.10
   6  -9  -6   84.69   12.80
  -6  -9   6   62.99   13.80
   5  -9  -6  168.18   12.60
  -5  -9   6  166.98   20.80
   5  -9  -6  158.38   17.50
  -5   9   6  186.08   15.90
  -4  -9   6  133.69   17.00
   4  -9  -6  141.19   11.90
  -4  -9   6  170.98   17.30
   4  -9  -6  139.99   15.90
  -4   9   6  170.48   13.60
   3  -9  -6   30.70    6.00
  -3  -9   6   33.50    7.10
  -3  -9   6   42.60    9.20
   3  -9  -6   34.80    6.90
  -3   9   6   42.30    6.40
   2  -9  -6  198.28   15.80
  -2  -9   6  218.38   20.50
  -2  -9   6  221.08   16.60
   2  -9  -6  195.98   15.30
  -2   9   6  180.58   13.70
  -1  -9   6  120.29   12.60
   1  -9  -6  121.19   12.30
   1  -9  -6  122.99   13.00
  -1  -9   6  140.59   13.90
  -1   9   6  112.29    8.60
   0  -9   6  166.88   13.90
   0  -9  -6  162.68   13.30
   0  -9   6  163.18   13.40
   0  -9  -6  172.78   14.30
   0   9   6  162.48   10.10
  -1  -9  -6 1124.19   61.39
   1  -9   6 1081.59   61.59
  -1  -9  -6 1026.80   62.39
   1  -9   6 1061.49   62.19
   1   9   6 1068.89   57.89
   2  -9   6 1292.67   74.19
  -2  -9  -6 1412.06   76.39
  -2  -9  -6 1333.47   73.69
   2  -9   6 1250.87   74.89
   2   9   6 1294.57   70.99
  -3  -9  -6   51.79    7.20
  -3  -9  -6   71.19   11.20
   3  -9   6   63.69    8.70
   3  -9   6   63.49    9.20
   3   9   6   65.99    5.70
   4  -9   6  321.47   23.60
   4  -9   6  343.17   23.10
  -4  -9  -6  340.27   21.90
  -4  -9  -6  306.87   25.10
   4   9   6  343.87   20.70
   5  -9   6   46.90    7.70
  -5  -9  -6   32.10    5.60
  -5  -9  -6   25.70    8.40
   5  -9   6   21.30    6.00
   5   9   6   38.90    5.70
   6  -9   6   81.69   11.00
   6  -9   6   79.99   11.40
  -6  -9  -6   87.89   14.30
  -6  -9  -6   76.79    9.20
   6   9   6   86.89    9.80
   7  -9   6   87.59   11.60
  -7  -9  -6   72.09   13.60
   7  -9   6   44.20    8.70
   7   9   6   66.79    8.90
   8  -9   6   42.00    8.70
  -8  -9  -6   26.10   10.30
   8  -9   6   35.90    8.30
   8   9   6   35.20    6.80
  -9  -9  -6   17.50    9.30
   9  -9   6   17.70    6.80
   9   9   6   14.50    5.00
 -10  -9  -6   48.50   14.40
  10  -9   6   48.10   10.30
  10   9   6   46.50    8.80
 -11  -9  -6   51.99   15.00
  11  -9   6   66.49   12.90
  12 -10  -6   21.70   11.30
  12 -10  -6   27.40   10.60
 -12 -10   6   21.30   14.20
 -11 -10   6   26.80   12.30
  11 -10  -6   43.80   12.90
  11 -10  -6   53.49   12.00
 -10 -10   6  111.19   22.80
  10 -10  -6  172.78   20.50
  10 -10  -6  207.98   24.80
   9 -10  -6  191.98   20.20
  -9 -10   6  138.89   24.40
   9 -10  -6  163.78   21.40
  -8 -10   6    5.80    9.10
   8 -10  -6   -7.20    3.80
   8 -10  -6    0.40    4.90
   7 -10  -6    4.20    4.80
  -7 -10   6    4.00    8.60
   6 -10  -6   18.60    6.70
   6 -10  -6   16.00    4.30
  -6 -10   6   18.50    8.00
  -6  10   6   15.70    5.60
  -5 -10   6   51.49   11.40
   5 -10  -6   45.70    7.10
   5 -10  -6   38.50    8.10
  -5 -10   6   57.39   10.40
  -5  10   6   70.99   10.20
   4 -10  -6  318.67   21.10
  -4 -10   6  347.17   24.50
   4 -10  -6  296.67   23.40
  -4 -10   6  281.87   24.90
  -4  10   6  314.27   21.80
  -3 -10   6   55.89    9.30
   3 -10  -6   41.90    8.10
  -3 -10   6   80.09   11.90
   3 -10  -6   53.29    8.00
  -3  10   6   47.70    6.60
   2 -10  -6   43.40    7.60
   2 -10  -6   34.20    7.00
  -2 -10   6   47.50    8.60
  -2 -10   6   47.30    9.20
  -1 -10   6    1.40    2.70
  -1 -10   6    2.60    2.90
   1 -10  -6    3.10    3.30
   1 -10  -6    0.60    3.40
   0 -10   6    5.90    3.50
   0 -10  -6    2.50    3.60
   0 -10   6    8.10    3.70
   0 -10  -6    1.90    3.30
  -1 -10  -6  259.57   19.60
   1 -10   6  238.78   18.50
  -1 -10  -6  233.38   17.70
   1 -10   6  239.78   17.40
  -2 -10  -6   71.69    9.00
   2 -10   6   82.69    9.80
  -2 -10  -6   70.89   10.80
   2 -10   6   82.89   10.60
   2  10   6   73.59    7.40
   3 -10   6   29.20    6.80
   3 -10   6   19.30    5.20
  -3 -10  -6   23.80    5.00
  -3 -10  -6   31.40    7.80
   3  10   6   16.20    3.30
   4 -10   6   41.80    8.10
  -4 -10  -6   33.70    8.90
   4 -10   6   30.50    6.50
  -4 -10  -6   40.00    6.40
   4  10   6   28.80    4.70
   5 -10   6  598.64   37.20
  -5 -10  -6  572.34   40.30
   5 -10   6  622.04   39.10
  -5 -10  -6  620.64   36.30
   5  10   6  545.25   35.50
   6 -10   6   42.00    8.00
  -6 -10  -6   49.50   11.20
  -6 -10  -6   43.80    7.30
   7 -10   6   14.20    5.90
  -7 -10  -6   10.90    7.50
   7 -10   6   26.80    6.80
   8 -10   6   29.70    7.90
   8 -10   6   34.80    8.10
  -8 -10  -6   26.20   10.80
  -9 -10  -6  210.18   28.50
   9 -10   6  249.68   20.90
 -10 -10  -6   32.00   12.50
  10 -10   6   40.10   10.40
  12 -11  -6  102.49   16.60
 -12 -11   6   43.20   18.00
  12 -11  -6  133.29   21.60
 -11 -11   6   30.10   16.40
  11 -11  -6   42.10   11.30
  11 -11  -6   80.09   17.10
  10 -11  -6  246.08   27.30
  10 -11  -6  244.58   24.10
 -10 -11   6  150.28   26.50
  -9 -11   6   32.00   13.70
   9 -11  -6   30.70    9.50
  -8 -11   6   -7.40    7.50
   8 -11  -6    4.40    5.50
   8 -11  -6    6.60    6.40
   7 -11  -6   49.00   11.10
  -7 -11   6   40.30   12.80
  -7 -11   6   64.29   12.60
   6 -11  -6  265.07   23.10
  -6 -11   6  298.97   29.90
  -6 -11   6  263.07   23.10
   5 -11  -6    1.60    3.50
  -5 -11   6   10.30    5.50
   5 -11  -6    9.60    5.40
  -5 -11   6    2.90    6.60
  -5  11   6    7.60    4.70
  -4 -11   6   31.50    8.80
   4 -11  -6   27.40    7.20
   4 -11  -6   27.20    5.90
  -4 -11   6   27.70    7.20
  -4  11   6   24.50    5.60
   3 -11  -6   43.50    7.90
   3 -11  -6   46.00    8.80
  -3 -11   6   66.99   10.10
  -3 -11   6   88.29   12.50
  -2 -11   6   24.30    6.40
   2 -11  -6   36.90    7.40
   2 -11  -6   27.90    6.60
  -2 -11   6   43.80    7.90
  -1 -11   6   71.39   10.60
   1 -11  -6   56.79    9.20
  -1 -11   6   72.59    9.40
   1 -11  -6   66.09   10.20
   0 -11  -6   23.20    7.00
   0 -11   6   19.00    4.60
   0 -11   6   16.90    5.20
   0 -11  -6   20.90    5.60
  -1 -11  -6    5.20    3.50
  -1 -11  -6   15.80    5.80
   1 -11   6    9.50    4.60
   1 -11   6    5.30    3.30
   2 -11   6   43.20    7.10
  -2 -11  -6   48.20    7.40
  -2 -11  -6   42.10    9.00
   2 -11   6   47.20    8.50
   3 -11   6  128.59   14.60
  -3 -11  -6  101.69   14.90
   3 -11   6  105.69   12.00
  -3 -11  -6  118.19   12.30
   4 -11   6  749.62   47.40
   4 -11   6  755.42   45.20
  -4 -11  -6  760.42   48.50
  -4 -11  -6  734.43   44.90
   5 -11   6  420.56   29.50
  -5 -11  -6  395.66   30.70
  -5 -11  -6  360.86   26.00
   5 -11   6  418.36   27.20
   6 -11   6   28.80    7.00
  -6 -11  -6   29.00   10.50
  -6 -11  -6   30.60    6.60
   6 -11   6   35.00    8.30
   7 -11   6   21.40    6.50
  -7 -11  -6   17.50    8.90
  -8 -11  -6  403.36   33.90
   8 -11   6  391.36   29.30
   8 -11   6  433.66   31.30
  -9 -11  -6    8.90    9.00
   9 -11   6   10.20    5.90
 -10 -11  -6   13.00    9.50
  10 -11   6   17.00    7.40
  11 -12  -6    5.30    7.50
 -11 -12   6   -7.70   11.80
  11 -12  -6   -5.20    6.20
 -10 -12   6   62.09   18.00
  10 -12  -6   88.19   17.30
 -10 -12   6  111.49   18.50
  10 -12  -6   97.39   15.70
   9 -12  -6   -1.00    5.30
  -9 -12   6   16.90   11.70
   9 -12  -6   -2.70    6.00
  -9 -12   6    3.20    7.10
  -8 -12   6   13.00   10.80
  -8 -12   6   23.00    8.70
   8 -12  -6   32.20   10.20
   7 -12  -6  134.49   18.70
  -7 -12   6  139.29   21.50
  -7 -12   6  146.59   19.00
  -6 -12   6  765.02   50.79
   6 -12  -6  683.43   47.60
  -6 -12   6  721.63   48.30
   5 -12  -6   13.50    6.10
   5 -12  -6   26.70    6.50
  -5 -12   6   23.60    9.50
  -5 -12   6   24.00    7.20
  -4 -12   6   37.90    9.10
   4 -12  -6   49.99    8.10
   4 -12  -6   37.50    8.20
  -4 -12   6   58.99   10.40
  -3 -12   6   10.40    5.70
  -3 -12   6    8.80    4.90
   3 -12  -6    1.30    2.30
   3 -12  -6   13.20    5.60
   2 -12  -6  427.16   28.60
  -2 -12   6  441.56   28.20
   2 -12  -6  398.86   29.20
  -2 -12   6  427.86   30.00
  -1 -12   6  171.58   17.80
  -1 -12   6  166.58   13.60
   1 -12  -6  177.38   17.50
   1 -12  -6  147.39   16.60
   0 -12  -6   26.30    7.80
   0 -12   6   29.60    5.90
   0 -12  -6   34.20    7.10
   0 -12   6   47.50    8.40
  -1 -12  -6    4.60    3.50
   1 -12   6    0.90    3.30
   1 -12   6    4.80    3.30
  -1 -12  -6    2.70    4.90
  -2 -12  -6  236.28   18.90
   2 -12   6  234.78   18.00
   2 -12   6  262.87   20.60
  -2 -12  -6  311.37   22.60
   3 -12   6   18.50    6.40
  -3 -12  -6   20.90    5.90
   3 -12   6    8.00    4.10
  -3 -12  -6   17.50    7.40
   4 -12   6   31.90    7.60
   4 -12   6   19.60    5.70
  -4 -12  -6   19.40    5.60
  -4 -12  -6   21.90    8.00
   5 -12   6  147.99   17.80
  -5 -12  -6  161.28   21.00
   5 -12   6  169.68   14.20
  -5 -12  -6  130.19   14.30
  -6 -12  -6    1.90    4.00
   6 -12   6   -2.10    3.70
  -6 -12  -6   -3.30    5.70
   6 -12   6    1.30    3.60
  -7 -12  -6   26.40   10.50
   7 -12   6   30.90    7.90
   7 -12   6   54.49   11.00
  -8 -12  -6   52.09   13.90
   8 -12   6   60.49   11.10
  -9 -12  -6   28.70   12.40
   9 -12   6   43.90    9.80
 -11 -13   6  134.79   22.20
  11 -13  -6  165.48   23.80
 -10 -13   6    2.60    7.10
  10 -13  -6   11.90    9.40
  -9 -13   6   95.49   16.60
   9 -13  -6  115.99   18.20
   8 -13  -6    4.00    6.30
  -8 -13   6    0.70   16.90
  -8 -13   6    6.70    6.30
  -7 -13   6   51.59   13.70
  -7 -13   6   55.29   12.10
   7 -13  -6   33.50    9.40
  -6 -13   6   43.60   10.90
   6 -13  -6   36.50    9.40
  -6 -13   6   57.59   13.00
  -5 -13   6  179.58   20.00
  -5 -13   6  146.79   19.20
   5 -13  -6  167.18   16.10
   5 -13  -6  159.28   19.30
  -4 -13   6   54.59   10.60
   4 -13  -6   59.59    9.50
  -4 -13   6   55.09   11.20
   4 -13  -6   51.39   10.20
   3 -13  -6   54.39   10.00
  -3 -13   6   68.39   10.90
  -3 -13   6   64.59   10.30
   2 -13  -6  183.18   19.50
   2 -13  -6  235.48   18.70
  -2 -13   6  223.48   19.10
  -2 -13   6  210.18   16.40
  -1 -13   6  129.69   12.30
  -1 -13   6   99.59   13.50
   1 -13  -6  102.39   13.40
   0 -13   6   72.69   11.30
   0 -13  -6   66.19   10.30
   0 -13   6   63.69    8.50
  -1 -13  -6   22.80    6.30
  -1 -13  -6   41.50    9.30
   1 -13   6   18.00    6.10
   1 -13   6   26.60    5.70
   2 -13   6   47.80    9.30
  -2 -13  -6   33.90    9.50
   2 -13   6   32.60    6.40
  -2 -13  -6   33.30    7.60
  -3 -13  -6  213.98   23.10
   3 -13   6  159.58   13.80
  -3 -13  -6  147.99   15.90
   3 -13   6  159.98   18.40
   4 -13   6   75.19   12.50
  -4 -13  -6   78.19   14.10
   4 -13   6   66.39    9.90
  -4 -13  -6   70.99   10.30
  -5 -13  -6   16.80    5.70
   5 -13   6   13.40    6.70
   5 -13   6   24.10    6.70
  -5 -13  -6   18.50    8.70
   6 -13   6    9.70    5.50
   6 -13   6   10.10    6.70
  -6 -13  -6    9.90    7.90
  -6 -13  -6   14.90    5.60
  -7 -13  -6   30.40   11.80
   7 -13   6   23.50    7.20
   7 -13   6   41.30   10.90
   8 -13   6   21.40    9.00
  -8 -13  -6   11.70    9.60
   8 -13   6   12.30    6.70
  -9 -13  -6   -5.30    8.60
   9 -13   6   -0.60    4.90
 -10 -14   6    0.80    7.40
  10 -14  -6    8.40    9.10
  -9 -14   6   -1.20    6.50
   9 -14  -6   -3.80    6.20
  -8 -14   6   48.90   11.90
   8 -14  -6   78.69   14.40
   7 -14  -6   17.00    8.40
  -7 -14   6   24.80    9.20
   6 -14  -6   64.39   12.70
  -6 -14   6   85.39   14.60
   5 -14  -6   45.40   10.50
   5 -14  -6   36.10    7.90
  -5 -14   6   52.69   10.90
  -4 -14   6  158.18   18.00
   4 -14  -6  133.59   17.30
   4 -14  -6  141.59   15.70
  -3 -14   6   20.30    7.00
   3 -14  -6   52.29   10.70
   3 -14  -6   24.40    6.90
  -2 -14   6  125.99   16.50
   2 -14  -6  146.09   17.20
   1 -14  -6   10.70    5.70
  -1 -14   6    8.20    5.50
   0 -14   6   -4.50    3.10
   0 -14  -6    4.50    4.70
   1 -14   6  138.69   12.30
   1 -14   6  161.68   17.90
  -1 -14  -6  141.49   15.80
   2 -14   6    2.80    3.50
  -2 -14  -6    5.30    6.60
  -2 -14  -6    3.90    4.40
   2 -14   6    0.70    3.60
   3 -14   6  177.28   14.20
   3 -14   6  166.98   18.80
  -3 -14  -6  125.99   18.30
  -3 -14  -6  148.79   16.30
   4 -14   6   52.29   11.20
  -4 -14  -6   45.10    8.80
  -4 -14  -6   29.90    9.40
   4 -14   6   58.39    8.80
  -5 -14  -6  115.59   13.40
   5 -14   6   98.69   12.40
   5 -14   6   79.29   14.40
  -5 -14  -6   94.29   16.60
   6 -14   6   53.79   11.90
   6 -14   6   60.09   10.10
  -6 -14  -6   62.89   14.00
  -6 -14  -6   52.09   11.50
   7 -14   6   27.10    8.10
  -7 -14  -6   21.80   11.10
   7 -14   6   32.10   10.80
  -8 -14  -6   -4.50    8.10
   8 -14   6    3.90    5.90
   8 -14   6   -0.60    5.80
   9 -15  -6   20.20    9.70
  -9 -15   6   27.90   11.20
   8 -15  -6   97.99   17.90
  -8 -15   6   50.89   12.50
   7 -15  -6  139.69   20.70
  -7 -15   6   83.09   15.20
  -6 -15   6   -1.30    4.50
   6 -15  -6   -1.20    5.00
   5 -15  -6   36.20   10.30
  -5 -15   6   48.20   10.70
  -4 -15   6    6.00    5.90
   4 -15  -6   -2.70    5.40
   4 -15  -6    5.10    5.20
   3 -15  -6   37.20    9.40
  -3 -15   6   48.20   10.70
   3 -15  -6   43.20    9.60
  -2 -15   6   26.50    7.80
   2 -15  -6   13.00    6.10
   1 -15  -6   79.89   12.40
  -1 -15   6   63.09   11.20
   0 -15   6  207.88   20.90
   0 -15  -6  166.18   18.80
   1 -15   6   97.99   14.10
  -1 -15  -6   89.99   13.20
   2 -15   6  115.49   15.90
  -2 -15  -6  100.69   14.00
  -2 -15  -6  168.08   21.10
   3 -15   6   63.09   11.90
  -3 -15  -6   49.00   11.70
  -3 -15  -6   46.90    9.10
  -4 -15  -6   95.19   16.70
  -4 -15  -6   99.79   13.20
   4 -15   6  109.79   16.70
   5 -15   6   27.70    9.10
  -5 -15  -6   12.90    8.50
  -5 -15  -6   19.60    6.70
  -6 -15  -6    3.30    8.20
   6 -15   6    6.60    6.70
   7 -15   6   16.90    9.20
  -7 -15  -6    3.80    8.50
   8 -16  -6   18.50    9.60
  -8 -16   6    5.60    7.30
  -7 -16   6    2.00    6.90
   7 -16  -6    7.80    8.70
  -6 -16   6   20.30    8.20
   6 -16  -6   20.90    9.00
  -5 -16   6    3.90    6.20
   5 -16  -6    5.20    6.40
  -4 -16   6    1.30    5.50
   4 -16  -6   -0.70    5.60
   4 -16  -6   -3.00    5.20
   3 -16  -6  126.09   17.50
   3 -16  -6  172.28   18.90
  -3 -16   6  147.89   18.60
  -2 -16   6   66.09   12.00
   2 -16  -6   55.99   11.60
   1 -16  -6    0.10    4.90
  -1 -16   6   11.30    6.10
   0 -16   6   71.19   12.40
   0 -16  -6   47.50   10.20
  -1 -16  -6  102.99   14.50
   1 -16   6   98.79   15.10
   2 -16   6   80.09   13.20
  -2 -16  -6  103.09   16.30
  -2 -16  -6   57.89   10.70
  -3 -16  -6  101.79   17.20
  -3 -16  -6   96.59   13.40
   3 -16   6   79.29   14.10
  -4 -16  -6   65.69   11.70
  -4 -16  -6   70.89   14.90
   4 -16   6   47.70   11.40
  -5 -16  -6    0.90    7.30
   5 -16   6    2.60    6.50
  -5 -16  -6   -2.80    4.70
  -6 -16  -6    3.50    8.80
   6 -16   6   15.00    8.10
   7 -17  -6   55.59   13.30
  -7 -17   6   57.59   14.40
   6 -17  -6   15.50    8.50
  -6 -17   6   21.10    8.80
  -5 -17   6  153.38   21.20
   5 -17  -6  219.98   24.30
  -4 -17   6   47.40   11.80
   4 -17  -6   24.80    9.30
   4 -17  -6   41.10   10.00
  -3 -17   6   99.39   15.10
   3 -17  -6  134.49   17.20
   3 -17  -6  104.09   16.00
   2 -17  -6   11.40    7.10
  -2 -17   6   25.40    8.10
  -1 -17   6  182.18   21.00
   1 -17  -6  177.18   20.50
   0 -17   6    6.20    6.30
   0 -17  -6    3.10    5.90
   1 -17   6    9.90    7.10
  -1 -17  -6    4.90    5.60
  -2 -17  -6  284.67   24.10
   2 -17   6  287.47   28.10
  -2 -17  -6  277.67   29.60
  -3 -17  -6    5.90    8.80
  -3 -17  -6   10.50    6.30
   3 -17   6    9.60    6.80
  -4 -17  -6   -1.60    7.60
   4 -17   6    6.60    6.50
  -4 -17  -6    0.70    4.80
  -5 -17  -6    5.40    6.10
  -5 -17  -6  -13.00    6.80
   5 -17   6    2.00    6.70
   5 -18  -6   93.99   16.80
  -5 -18   6  104.69   17.90
   4 -18  -6  447.76   37.20
  -4 -18   6  515.85   38.00
  -3 -18   6   83.69   14.70
   3 -18  -6   80.19   14.40
   3 -18  -6   76.69   14.80
   2 -18  -6   -3.20    5.70
  -2 -18   6    3.70    6.20
   2 -18  -6    3.20    7.80
  -1 -18   6   19.90    8.60
   1 -18  -6    9.80    7.30
   0 -18   6   79.69   14.50
   0 -18  -6   68.09   13.10
  -1 -18  -6   -7.20    6.30
  -1 -18  -6    0.50    5.90
   1 -18   6    2.20    6.60
  -2 -18  -6    9.80    9.80
   2 -18   6   12.10    7.40
  -2 -18  -6    9.30    6.90
   3 -18   6   27.90    9.40
  -3 -18  -6   20.40   11.30
  -3 -18  -6   15.10    7.10
   2 -19  -6    5.40    7.30
  -2 -19   6   19.50    9.20
   1 -19  -6   48.70   12.40
  -1 -19   6   54.19   12.40
   1 -19  -6   51.49   13.30
   0 -19  -6   13.00    7.70
   0 -19   6   11.40    8.00
  14   0  -7    7.10    7.00
  13   0  -7  102.99   17.20
  12   0  -7    2.20    5.90
  11   0  -7   37.70   10.10
 -11   0   7   40.50   12.30
 -10   0   7   26.60    9.70
  -9   0   7  145.49   21.20
   8   0  -7    2.90    3.70
  -8   0   7   14.30    7.00
   7   0  -7  102.49   12.90
  -7   0   7  120.59   16.90
   6   0  -7    2.70    2.90
  -6   0   7    0.10    4.80
  -5   0   7   50.59   10.70
   5   0  -7   49.20    8.00
  -4   0   7   23.80    7.10
   4   0  -7   16.60    4.40
  -3   0   7  276.67   20.00
   3   0  -7  221.58   16.70
  -2   0   7    7.70    4.20
   2   0  -7   -2.00    2.30
  -1   0   7  126.49   15.10
   1   0  -7  106.39    9.70
   0   0  -7    1.60    3.20
   0   0   7    7.40    4.10
  -1   0  -7  275.27   18.50
   1   0   7  247.78   19.00
  -2   0  -7   -0.70    2.80
   2   0   7    0.00    2.20
  -3   0  -7  199.98   15.80
   3   0   7  202.88   15.30
   4   0   7    2.40    2.20
  -4   0  -7    4.10    4.50
  -5   0  -7  173.78   14.70
   5   0   7  131.09   13.60
  -6   0  -7    1.70    5.30
   6   0   7   12.10    4.10
   7   0   7  458.85   30.80
  -7   0  -7  479.25   32.50
   8   0   7   29.80    6.70
  -8   0  -7   47.20   10.30
   9   0   7   56.59    9.80
  -9   0  -7   72.79   12.90
  10   0   7    0.50    3.90
 -10   0  -7   12.70    8.20
  11   0   7    0.90    4.70
  12   0   7    0.80    4.20
 -14  -1   7  118.79   23.00
  14  -1  -7  176.18   22.70
 -13  -1   7   59.69   16.30
  13  -1  -7   58.59   12.10
 -12  -1   7   35.30   12.40
  12  -1  -7   46.70   10.90
  11  -1  -7  121.89   16.30
  11  -1  -7  106.59   15.90
 -11  -1   7  101.49   18.70
  10  -1  -7   99.69   14.30
  10  -1  -7  127.29   16.90
 -10  -1   7  106.59   18.10
   9  -1  -7  135.89   16.60
  -9  -1   7  190.78   24.30
  -9   1   7  161.38   21.00
   8  -1  -7  476.35   32.50
  -8  -1   7  509.85   37.10
  -8   1   7  435.56   35.30
  -7  -1   7   81.79   14.20
   7  -1  -7   70.59   10.50
  -7   1   7   97.19   14.80
  -6  -1   7   61.89   12.20
   6  -1  -7   68.09   10.10
  -6   1   7   72.69   12.80
  -5  -1   7  633.24   42.40
   5  -1  -7  605.94   38.50
  -5   1   7  624.34   41.50
  -4  -1   7   16.30    6.30
   4  -1  -7    5.10    3.10
  -4   1   7   13.80    5.30
  -3  -1   7  113.49   14.60
   3  -1  -7  130.79   12.60
  -3   1   7  124.29   14.30
   2  -1  -7  330.67   21.30
  -2  -1   7  316.57   24.20
   2  -1  -7  365.86   21.90
  -2   1   7  302.97   23.40
   1  -1  -7  617.44   37.30
  -1  -1   7  624.34   41.20
   1  -1  -7  704.53   37.10
  -1   1   7  612.04   40.40
   1   1  -7  604.14   37.60
   0  -1   7  468.25   30.90
   0  -1  -7  441.46   26.40
   0  -1  -7  463.85   28.20
   0   1   7  449.36   30.40
   0   1  -7  458.75   28.40
  -1  -1  -7  256.47   17.60
   1  -1   7  231.98   18.30
   1   1   7  240.68   18.00
  -1   1  -7  253.87   17.60
  -2  -1  -7  262.97   19.10
   2  -1   7  264.57   15.40
   2  -1   7  262.47   19.20
   2   1   7  290.37   19.10
  -2   1  -7  272.67   19.00
  -3  -1  -7   10.20    4.30
   3  -1   7    8.60    3.50
  -3   1  -7   14.20    5.20
   3   1   7   10.00    3.40
  -4  -1  -7  292.47   21.30
   4  -1   7  305.37   20.40
   4   1   7  260.37   19.50
  -4   1  -7  310.47   21.10
  -5  -1  -7   10.70    5.30
   5  -1   7   22.30    5.30
   5   1   7   20.60    4.90
  -5   1  -7   15.10    5.80
   6  -1   7  879.61   53.49
  -6  -1  -7  988.10   55.69
  -6   1  -7  889.41   54.29
   6   1   7  874.01   53.09
  -7  -1  -7   10.20    6.30
   7  -1   7   16.80    5.10
   7   1   7   17.40    5.10
  -7   1  -7   16.10    7.00
  -8  -1  -7  196.58   22.60
   8  -1   7  177.28   18.40
   8   1   7  145.09   16.20
  -8   1  -7  212.48   21.30
   9  -1   7   10.20    5.00
  -9  -1  -7   19.20    7.90
  -9   1  -7    9.10    6.80
   9   1   7   12.10    4.70
  10  -1   7  112.59   14.50
 -10  -1  -7   83.89   15.00
  10   1   7  109.79   14.60
 -10   1  -7  107.29   16.80
  11  -1   7   12.80    6.20
  11   1   7    9.50    5.90
  12  -1   7   61.29   12.10
  12   1   7   40.40    9.90
  14  -2  -7   81.79   15.00
 -14  -2   7   79.49   20.00
  13  -2  -7   89.19   15.70
 -13  -2   7   92.19   20.30
  12  -2  -7    3.50    5.70
 -12  -2   7   -1.30    7.20
  12  -2  -7    0.40    5.20
 -11  -2   7   42.30   13.20
  11  -2  -7   30.00    8.10
  11  -2  -7   27.30    9.10
  10  -2  -7   32.80    8.60
 -10  -2   7   26.70   10.80
  10  -2  -7   33.70    8.80
  -9  -2   7   19.90    8.90
   9  -2  -7   21.80    7.00
  -9   2   7    2.70    5.40
   8  -2  -7  345.17   27.60
  -8  -2   7  402.66   32.50
  -8   2   7  426.56   31.90
  -7  -2   7   89.49   15.70
   7  -2  -7   59.99   10.10
  -7   2   7   98.19   15.30
  -6  -2   7    5.40    5.50
   6  -2  -7    0.10    3.10
  -6   2   7   -2.00    3.90
  -5  -2   7   76.19   13.50
   5  -2  -7   86.29   11.40
  -5   2   7   82.99   13.10
  -4  -2   7  987.00   58.89
   4  -2  -7  987.00   53.19
   4  -2  -7  860.21   55.09
  -4   2   7  936.41   57.19
  -3  -2   7   88.39   12.50
   3  -2  -7   86.09   10.50
  -3   2   7  122.59   13.40
  -2  -2   7   88.59   13.00
   2  -2  -7   85.49    9.40
   2  -2  -7   75.89    9.10
  -2   2   7   81.49   10.50
   1  -2  -7  681.73   39.60
   1  -2  -7  704.93   39.90
  -1  -2   7  729.73   44.30
  -1   2   7  606.24   42.00
   0  -2  -7 2031.40  108.49
   0  -2   7 1963.90  111.19
   0  -2  -7 2036.20  107.19
   0   2   7 1862.61  110.09
   1  -2   7   26.80    6.10
   1  -2   7   27.30    3.70
  -1  -2  -7   23.30    5.40
  -1  -2  -7   22.60    3.60
   1   2   7   22.70    5.20
  -1   2  -7   28.80    6.10
   2  -2   7  438.76   29.40
  -2  -2  -7  475.25   29.60
   2  -2   7  475.35   26.10
  -2   2  -7  447.36   29.10
   2   2   7  445.76   28.50
   3  -2   7  186.48   11.30
  -3  -2  -7  175.88   15.30
   3  -2   7  197.18   15.00
   3   2   7  196.98   14.40
  -3   2  -7  189.78   14.90
  -4  -2  -7    8.50    4.80
   4  -2   7    4.00    1.30
   4  -2   7    7.50    3.40
  -4   2  -7    6.00    4.60
   4   2   7    1.70    2.20
   5  -2   7  387.36   22.50
   5  -2   7  411.46   26.60
  -5  -2  -7  414.76   28.20
  -5   2  -7  390.26   26.80
   5   2   7  386.66   25.60
  -6  -2  -7   34.30    8.90
   6  -2   7   43.40    7.60
   6  -2   7   33.00    4.40
   6   2   7   31.80    6.00
  -6   2  -7   40.40    9.20
  -7  -2  -7   49.00   11.30
   7  -2   7   32.80    7.10
  -7   2  -7   45.40    9.30
   7   2   7   32.60    6.70
  -8  -2  -7   26.10    8.80
   8  -2   7   19.70    6.10
  -8   2  -7   31.90    8.60
   8   2   7   18.40    5.50
   9  -2   7    5.50    4.50
  -9  -2  -7    0.90    6.10
   9   2   7   12.10    5.00
  -9   2  -7   10.60    6.60
 -10  -2  -7   16.30    9.50
  10  -2   7    6.50    4.70
  10   2   7    3.90    4.30
 -11  -2  -7   10.50   11.00
  11  -2   7   -3.70    4.10
  11   2   7   17.40    6.50
  12  -2   7   25.20    8.40
  12   2   7   30.50    8.90
 -14  -3   7    8.40   12.10
  14  -3  -7    8.70    8.10
  14  -3  -7    2.30    7.30
  13  -3  -7   41.20   11.10
 -13  -3   7   98.59   21.90
  13  -3  -7   36.60   11.10
  12  -3  -7   15.10    7.40
  12  -3  -7   15.20    7.20
 -12  -3   7   20.10   11.00
  11  -3  -7    1.80    6.00
 -11  -3   7    1.30    7.70
  11  -3  -7   -2.10    4.40
  10  -3  -7  322.77   26.40
  10  -3  -7  327.27   26.60
 -10  -3   7  320.57   35.50
   9  -3  -7   56.59   10.90
  -9  -3   7   34.40   11.40
   9  -3  -7   59.79   11.00
   8  -3  -7  260.57   22.10
  -8  -3   7  271.07   29.10
  -7  -3   7  870.91   58.89
   7  -3  -7  879.01   54.69
  -7   3   7  891.31   56.79
   6  -3  -7   42.10    8.30
  -6  -3   7   79.29   14.40
  -6   3   7   38.60    9.20
   5  -3  -7  177.28   12.60
  -5  -3   7  170.08   21.30
   5  -3  -7  180.38   17.60
  -5   3   7  173.28   19.30
   4  -3  -7  336.37   24.60
  -4  -3   7  364.16   28.00
   4  -3  -7  394.06   22.70
  -4   3   7  346.97   26.00
   3  -3  -7   16.80    4.60
  -3  -3   7   19.70    6.20
   3  -3  -7   17.10    4.30
  -3   3   7   19.60    5.60
   2  -3  -7    2.70    2.50
   2  -3  -7   12.80    3.90
  -2  -3   7   12.00    5.50
  -2   3   7    4.00    3.40
   1  -3  -7  248.18   17.40
  -1  -3   7  236.58   20.60
   1  -3  -7  268.67   17.40
  -1   3   7  264.47   19.90
   0  -3   7  518.75   33.80
   0  -3  -7  499.05   31.40
   0  -3  -7  524.85   30.10
   0   3   7  499.95   32.50
   1  -3   7   42.70    5.10
   1  -3   7   42.80    7.80
  -1  -3  -7   31.80    6.40
  -1  -3  -7   42.70    5.10
   1   3   7   55.29    7.50
  -2  -3  -7  362.06   24.70
   2  -3   7  360.86   21.80
  -2  -3  -7  359.36   21.00
   2  -3   7  380.66   24.90
   2   3   7  376.26   23.50
   3  -3   7  568.24   32.30
  -3  -3  -7  567.84   36.20
   3  -3   7  573.34   35.50
  -3   3  -7  573.84   35.50
   3   3   7  573.14   34.30
  -4  -3  -7  124.19   14.90
   4  -3   7  124.59   12.80
   4  -3   7  105.79    8.00
   4   3   7  116.99   10.10
  -4   3  -7  132.19   13.90
   5  -3   7   47.80    7.80
  -5  -3  -7   29.70    8.10
   5  -3   7   22.40    3.70
   5   3   7   27.00    5.40
  -5   3  -7   40.00    8.20
   6  -3   7  210.68   17.00
  -6  -3  -7  222.88   19.60
   6  -3   7  208.88   14.10
   6   3   7  220.68   16.40
  -6   3  -7  217.48   17.90
   7  -3   7  205.18   16.50
  -7  -3  -7  187.58   21.60
  -7   3  -7  209.88   17.40
   7   3   7  174.78   15.20
  -8  -3  -7   71.19   13.90
   8  -3   7   53.19    9.40
   8   3   7   66.19   10.40
  -8   3  -7   47.60    9.70
   9  -3   7   18.10    6.10
  -9  -3  -7   16.30   10.10
  -9   3  -7   22.20    8.40
   9   3   7   17.60    5.50
  10  -3   7   -1.50    3.30
 -10  -3  -7   -5.20    6.30
  10   3   7    3.90    4.10
  11  -3   7   10.40    5.70
 -11  -3  -7   10.40    9.50
  11   3   7    5.80    4.90
  12  -3   7   11.50    6.90
  12   3   7   -1.60    3.90
 -14  -4   7    3.30    9.30
  14  -4  -7   -0.30    6.10
  14  -4  -7   -0.60    7.30
  13  -4  -7   -4.40    6.30
 -13  -4   7    0.80    8.90
  13  -4  -7   10.20    7.50
  12  -4  -7  482.25   36.00
 -12  -4   7  369.16   43.50
  12  -4  -7  465.15   35.00
  11  -4  -7   14.10    7.60
 -11  -4   7   16.00   10.40
  11  -4  -7   24.10    8.70
 -10  -4   7   57.19   15.50
  10  -4  -7   66.69   11.90
  10  -4  -7   44.60   11.20
   9  -4  -7   78.19   13.30
   9  -4  -7  111.99   15.00
  -9  -4   7   62.39   14.20
  -8  -4   7  349.87   36.80
   8  -4  -7  397.76   29.00
  -7  -4   7  569.94   45.00
   7  -4  -7  638.64   41.60
  -7   4   7  677.03   43.80
  -6  -4   7  835.32   54.89
   6  -4  -7  781.52   49.80
  -6   4   7  813.62   51.59
   5  -4  -7   66.79    9.80
   5  -4  -7   89.39    8.50
  -5  -4   7   69.39   12.80
  -5   4   7   70.19   11.80
   4  -4  -7   12.10    4.60
  -4  -4   7   15.10    6.60
   4  -4  -7   19.50    4.30
  -4   4   7   20.90    5.90
   3  -4  -7  337.37   22.00
   3  -4  -7  276.77   19.60
  -3  -4   7  331.47   24.70
  -3   4   7  343.57   22.60
   2  -4  -7  329.17   22.00
   2  -4  -7  343.07   22.70
  -2  -4   7  388.56   26.80
  -1  -4   7   48.00    9.70
   1  -4  -7   32.10    5.60
   1  -4  -7   42.00    6.60
  -1   4   7   56.39    9.00
   0  -4   7  148.89   11.10
   0  -4  -7  138.09   10.80
   0  -4  -7  159.78   12.70
   0  -4   7  167.68   16.80
   0   4   7  149.79   14.40
  -1  -4  -7   26.80    4.10
   1  -4   7   35.70    5.00
   1  -4   7   33.60    6.80
  -1  -4  -7   27.80    6.70
   1   4   7   30.20    5.60
  -2  -4  -7 1471.75   79.09
   2  -4   7 1424.46   82.79
  -2  -4  -7 1512.15   83.29
   2  -4   7 1454.45   80.29
  -3  -4  -7  904.01   52.69
  -3  -4  -7 1045.90   58.39
   3  -4   7 1003.00   57.09
   3  -4   7  994.30   54.29
   3   4   7  978.20   55.29
  -4  -4  -7   16.30    2.20
   4  -4   7   21.50    5.30
   4  -4   7   13.90    3.10
  -4  -4  -7   17.30    6.60
   4   4   7   15.80    4.10
   5  -4   7  700.33   41.30
  -5  -4  -7  658.93   43.20
   5  -4   7  645.04   37.90
   5   4   7  667.63   39.70
   6  -4   7  123.89   13.60
   6  -4   7   95.09    9.50
  -6  -4  -7  109.99   15.80
   6   4   7  106.69   11.40
   7  -4   7   47.30    8.50
  -7  -4  -7   46.00   11.10
   7   4   7   47.30    8.10
  -8  -4  -7  135.09   19.10
   8  -4   7  111.99   13.80
   8   4   7  142.79   15.00
   9  -4   7  150.88   16.60
  -9  -4  -7  117.99   19.10
   9   4   7  141.09   15.70
  10  -4   7  101.79   14.50
 -10  -4  -7   93.69   17.10
  10   4   7   93.39   13.10
  11  -4   7  109.09   15.90
 -11  -4  -7   97.89   17.90
  11   4   7  129.69   16.20
  12  -4   7    2.40    4.90
  12   4   7    7.60    5.70
 -14  -5   7    7.40   11.10
  14  -5  -7   17.20    9.10
  14  -5  -7   10.20    8.60
 -13  -5   7   64.29   18.50
  13  -5  -7   32.70   10.70
  13  -5  -7   32.40   11.00
  12  -5  -7  249.97   27.10
  12  -5  -7  226.78   26.80
 -12  -5   7  289.97   35.60
  11  -5  -7  160.48   21.70
  11  -5  -7  138.79   18.30
 -11  -5   7  127.39   23.20
 -10  -5   7  140.59   23.30
  10  -5  -7  125.19   17.60
  10  -5  -7  173.88   19.80
  -9  -5   7   27.70   10.90
   9  -5  -7   26.10    8.10
   9  -5  -7   33.40    8.70
  -8  -5   7   63.99   14.20
   8  -5  -7   57.69   10.90
  -8   5   7   28.30    8.80
  -7  -5   7  990.30   64.99
   7  -5  -7  907.11   58.99
  -7   5   7 1021.40   61.49
  -6  -5   7  366.66   31.50
   6  -5  -7  368.76   27.40
   6  -5  -7  382.56   22.90
  -6   5   7  401.06   29.00
   5  -5  -7  550.44   30.90
  -5  -5   7  518.65   38.20
   5  -5  -7  536.35   34.90
  -5   5   7  479.75   35.00
   4  -5  -7  282.17   17.30
   4  -5  -7  255.47   19.40
  -4  -5   7  209.78   23.50
   3  -5  -7   53.79    8.30
   3  -5  -7   60.39    8.00
  -3  -5   7   72.29   11.80
  -3   5   7   59.59    8.70
  -2  -5   7  187.18   20.00
   2  -5  -7  214.78   14.80
   2  -5  -7  199.78   14.90
  -2   5   7  174.78   15.10
   1  -5  -7  149.88   13.00
   1  -5  -7  151.38   12.30
  -1  -5   7  207.78   19.80
  -1   5   7  205.98   15.30
   0  -5  -7  147.49   14.90
   0  -5  -7  135.39   10.40
   0  -5   7  157.38   15.90
   0   5   7  123.29   11.10
   1  -5   7   12.50    4.50
  -1  -5  -7    7.50    2.60
  -1  -5  -7    5.10    4.00
   1  -5   7    9.70    3.00
   1   5   7   10.50    3.20
  -2  -5  -7   84.19    7.20
   2  -5   7  101.89   11.50
  -2  -5  -7   76.39   11.00
   2  -5   7  102.39    9.60
   2   5   7   98.49    8.20
  -3  -5  -7   51.19    5.30
   3  -5   7   78.39   10.00
   3  -5   7   50.19    6.60
  -3  -5  -7   50.59    9.30
   3   5   7   63.49    7.20
  -4  -5  -7   71.19   11.40
   4  -5   7   76.89    7.90
   4  -5   7   62.09    8.80
  -4  -5  -7   60.39    5.60
   5  -5   7   42.20    7.30
   5  -5   7   43.20    6.00
  -5  -5  -7   41.40    4.30
  -5  -5  -7   45.20   10.20
   5   5   7   36.50    5.90
   6  -5   7   19.70    5.80
   6  -5   7   17.00    3.90
  -6  -5  -7   10.60    6.80
   6   5   7   17.50    4.50
   7  -5   7  717.83   43.80
  -7  -5  -7  693.43   47.00
   7   5   7  676.33   42.20
   8  -5   7  704.73   44.10
  -8  -5  -7  655.23   47.70
   8   5   7  696.83   42.70
  -9  -5  -7  337.57   30.30
   9  -5   7  350.76   26.10
   9   5   7  331.57   24.70
  10  -5   7   -1.20    4.20
 -10  -5  -7    5.10    8.70
  10   5   7    0.70    3.60
  11  -5   7    8.30    6.00
 -11  -5  -7    9.60   10.60
  11   5   7   11.00    5.80
  12  -5   7   74.49   14.10
  12   5   7   53.69   11.20
  14  -6  -7  168.18   23.40
  14  -6  -7  147.79   22.30
  13  -6  -7   43.70   12.60
  13  -6  -7   63.59   13.60
 -13  -6   7   33.60   14.30
  12  -6  -7   92.79   16.50
  12  -6  -7   87.29   16.80
 -12  -6   7  124.59   23.60
  11  -6  -7   23.50    8.40
  11  -6  -7   17.20    8.80
 -11  -6   7    5.60    8.90
  10  -6  -7   60.69   12.60
  10  -6  -7   63.09   12.20
 -10  -6   7   55.39   15.70
  -9  -6   7  202.38   27.50
   9  -6  -7  220.98   23.60
   9  -6  -7  187.78   20.70
  -8  -6   7    4.70    6.70
   8  -6  -7    1.00    3.40
  -8   6   7    7.60    6.30
  -7  -6   7   96.99   18.40
   7  -6  -7  105.59   14.50
  -7   6   7  113.39   15.00
  -6  -6   7  863.51   57.79
   6  -6  -7  856.31   47.40
   6  -6  -7  807.52   52.39
  -6   6   7  858.01   53.59
   5  -6  -7  460.55   33.20
  -5  -6   7  512.15   37.80
   5  -6  -7  530.75   30.00
   4  -6  -7    9.70    4.40
  -4  -6   7   14.90    6.60
   4  -6  -7   10.60    3.90
  -4   6   7   12.40    4.90
   3  -6  -7   -0.10    2.80
  -3  -6   7    4.60    5.20
   3  -6  -7    5.30    3.50
  -3   6   7    2.80    3.30
  -2  -6   7   36.70    8.80
   2  -6  -7   26.80    5.50
   2  -6  -7   32.60    6.40
  -2   6   7   47.80    7.50
  -1  -6   7  238.98   17.10
  -1  -6   7  275.57   20.80
   1  -6  -7  230.98   16.70
   1  -6  -7  252.67   17.70
  -1   6   7  227.58   17.90
   0  -6  -7  458.25   28.60
   0  -6   7  437.06   27.40
   0  -6   7  459.85   29.70
   0  -6  -7  438.46   26.90
   0   6   7  422.26   27.00
   1  -6   7    8.50    3.80
  -1  -6  -7    7.50    4.10
  -1  -6  -7    9.90    2.90
   1   6   7    6.40    2.50
  -2  -6  -7    6.40    2.50
  -2  -6  -7    5.90    4.30
   2  -6   7    4.90    2.80
   2  -6   7    2.90    3.00
   2   6   7    2.30    1.90
   3  -6   7   11.70    4.20
  -3  -6  -7    8.00    4.40
   3  -6   7   10.60    3.30
  -3  -6  -7    4.40    2.10
   3   6   7   11.20    3.00
  -4  -6  -7    9.90    2.50
   4  -6   7    6.60    2.90
  -4  -6  -7    6.00    5.70
   4  -6   7   12.20    4.30
   4   6   7   15.50    3.70
   5  -6   7  123.79   11.30
   5  -6   7  122.99   13.30
  -5  -6  -7   94.09    7.80
  -5  -6  -7  110.49   15.40
   5   6   7  106.59   11.00
   6  -6   7   85.79   11.20
   6  -6   7   93.59   10.30
  -6  -6  -7   77.39   13.80
  -7  -6  -7  267.87   29.30
   7  -6   7  285.27   22.00
   7  -6   7  275.07   20.10
   7   6   7  329.67   21.30
  -8  -6  -7   16.20    9.50
   8  -6   7   15.00    6.00
   8   6   7    4.30    3.60
   9  -6   7  319.07   24.30
  -9  -6  -7  246.98   30.70
   9   6   7  300.67   22.40
 -10  -6  -7  223.38   29.20
  10  -6   7  295.47   23.20
  10   6   7  241.68   20.50
  11  -6   7   75.49   12.90
 -11  -6  -7   78.29   18.60
  11   6   7   71.99   12.30
 -13  -7   7   33.80   14.40
  13  -7  -7   23.00    9.40
  13  -7  -7   50.59   13.80
  12  -7  -7    7.90    7.70
  12  -7  -7    3.20    6.60
 -12  -7   7   -0.90    9.00
  11  -7  -7   -0.20    6.60
  11  -7  -7   -2.50    5.60
 -11  -7   7    2.40    8.60
 -10  -7   7   86.99   19.20
  10  -7  -7   74.99   14.00
  10  -7  -7   52.39   11.20
   9  -7  -7    6.90    6.10
  -9  -7   7   14.80    9.40
   9  -7  -7   18.00    7.40
  -8  -7   7  250.77   31.90
   8  -7  -7  323.57   25.50
  -7  -7   7   67.49   15.30
   7  -7  -7   96.79   13.60
  -7   7   7   94.39   13.80
   6  -7  -7  368.56   27.50
  -6  -7   7  393.16   32.70
   6  -7  -7  373.16   22.80
   5  -7  -7 1784.02  101.99
  -5  -7   7 1834.12  106.29
   5  -7  -7 1773.02   97.59
  -5   7   7 1782.12  101.99
   4  -7  -7  240.78   16.60
  -4  -7   7  291.57   23.10
   4  -7  -7  240.78   18.90
  -4   7   7  212.08   18.10
   3  -7  -7  846.32   52.19
  -3  -7   7  916.61   57.29
   3  -7  -7  944.51   54.29
  -3   7   7  963.40   53.49
   2  -7  -7    9.70    3.70
  -2  -7   7   12.90    4.20
  -2  -7   7   20.00    7.40
   2  -7  -7   17.90    5.10
  -2   7   7    7.80    3.60
   1  -7  -7   81.19   10.30
   1  -7  -7   76.79    9.20
  -1  -7   7   85.39   10.10
  -1  -7   7   89.79   12.40
  -1   7   7   81.09    9.70
   0  -7   7  162.78   13.20
   0  -7  -7  163.08   12.60
   0  -7   7  170.18   14.50
   0  -7  -7  169.38   14.10
   0   7   7  170.88   12.10
  -1  -7  -7  116.49   10.10
  -1  -7  -7  128.49   14.10
   1  -7   7  138.49   11.50
   1  -7   7  148.09   14.40
   1   7   7  139.39    9.80
   2  -7   7   27.20    6.20
  -2  -7  -7   31.10    7.30
   2  -7   7   31.40    5.90
  -2  -7  -7   38.10    5.30
   2   7   7   40.60    5.10
  -3  -7  -7    2.80    2.10
   3  -7   7    3.20    3.30
   3  -7   7    1.00    2.50
  -3  -7  -7    0.90    4.20
   3   7   7    1.70    1.80
   4  -7   7  484.05   29.90
   4  -7   7  461.85   30.40
  -4  -7  -7  432.26   31.90
  -4  -7  -7  484.95   27.80
   4   7   7  468.85   28.30
  -5  -7  -7   60.39    6.50
   5  -7   7   49.90    7.70
  -5  -7  -7   55.19   10.90
   5  -7   7   63.39    9.50
   5   7   7   63.79    7.70
   6  -7   7    9.90    4.70
   6  -7   7    6.60    3.30
  -6  -7  -7    5.00    6.10
   6   7   7    7.20    3.40
  -7  -7  -7  178.98   23.00
   7  -7   7  187.48   16.50
   7  -7   7  195.08   15.40
  -8  -7  -7   52.39   13.20
   8  -7   7   73.69   11.40
   8   7   7   59.29    8.90
   9  -7   7  230.98   22.40
  -9  -7  -7  186.28   26.00
   9   7   7  194.88   17.00
  10  -7   7    3.10    4.90
 -10  -7  -7   -5.00    7.70
  10   7   7    6.70    4.40
  11  -7   7   75.89   13.70
 -11  -7  -7   38.80   15.00
  11   7   7   67.29   11.60
  13  -8  -7   -1.10    6.70
  13  -8  -7    8.20    8.90
 -13  -8   7   -7.20    8.40
 -12  -8   7   40.30   15.40
  12  -8  -7   77.59   16.20
  12  -8  -7   46.00   11.90
  11  -8  -7   14.40    8.50
 -11  -8   7   18.60   12.20
  11  -8  -7   24.30    9.60
  10  -8  -7  250.07   26.60
  10  -8  -7  244.78   25.00
 -10  -8   7  213.38   30.60
   9  -8  -7   10.80    6.50
  -9  -8   7   20.80   10.10
   9  -8  -7   16.90    7.10
   8  -8  -7    6.80    5.10
  -8  -8   7    2.40    8.20
  -8   8   7   -0.60    5.10
   7  -8  -7  240.58   23.80
  -7  -8   7  226.98   29.00
  -6  -8   7  379.76   32.80
   6  -8  -7  370.56   23.40
   6  -8  -7  391.06   28.60
  -6   8   7  408.36   28.90
   5  -8  -7  199.58   14.10
  -5  -8   7  165.28   21.30
   5  -8  -7  174.58   18.10
  -5   8   7  201.28   17.10
   4  -8  -7  222.48   15.70
   4  -8  -7  200.28   17.30
  -4  -8   7  186.98   21.90
  -4   8   7  222.58   17.00
   3  -8  -7   17.20    5.20
   3  -8  -7   27.90    6.10
  -3  -8   7   24.30    5.80
  -3  -8   7   31.50    8.60
  -3   8   7   25.30    5.30
   2  -8  -7  154.08   13.30
   2  -8  -7  171.58   13.40
  -2  -8   7  181.98   19.70
  -2  -8   7  151.58   15.10
  -2   8   7  139.39   12.50
   1  -8  -7    5.30    3.70
  -1  -8   7    3.50    4.00
  -1  -8   7    4.60    3.10
   1  -8  -7   -1.00    2.20
  -1   8   7    3.80    2.50
   0  -8  -7  135.79   14.60
   0  -8  -7  157.88   12.30
   0  -8   7  159.08   13.40
   0  -8   7  146.09   12.50
   0   8   7  138.59   10.20
   1  -8   7 1474.95   80.59
  -1  -8  -7 1453.95   79.39
   1  -8   7 1437.96   80.89
  -1  -8  -7 1389.46   81.09
   1   8   7 1378.66   77.29
   2  -8   7  310.47   20.90
  -2  -8  -7  290.27   21.90
  -2  -8  -7  294.97   19.30
   2  -8   7  258.27   20.20
   2   8   7  296.17   18.00
   3  -8   7  147.79   13.10
  -3  -8  -7  153.58   11.60
  -3  -8  -7  185.18   19.00
   3  -8   7  126.99   14.00
   3   8   7  146.99   10.70
  -4  -8  -7   85.09    8.70
  -4  -8  -7   73.59   12.20
   4  -8   7  105.59   11.80
   4  -8   7  103.59   12.00
   4   8   7   89.99    7.90
   5  -8   7    5.90    3.60
  -5  -8  -7   -0.10    4.70
  -5  -8  -7    7.60    2.90
   5  -8   7    4.10    3.60
   5   8   7    8.20    3.10
  -6  -8  -7   25.80    8.60
   6  -8   7   15.80    5.20
   6  -8   7   30.00    7.00
   6   8   7   24.50    5.40
  -7  -8  -7  100.19   17.10
   7  -8   7  103.09   13.70
   7  -8   7  117.99   13.20
   7   8   7   93.79   11.20
   8  -8   7   12.10    5.50
  -8  -8  -7   10.00    8.50
   8   8   7    9.70    4.10
   9  -8   7    3.10    5.20
  -9  -8  -7    5.90    9.10
   9   8   7   -0.90    1.70
  10  -8   7   14.50    7.00
 -10  -8  -7    1.70    8.80
  10   8   7   17.70    6.20
  11  -8   7    9.60    6.90
 -11  -8  -7    2.80   11.00
  11   8   7   15.20    6.10
  13  -9  -7  187.58   26.20
  13  -9  -7  184.28   23.10
 -13  -9   7   89.89   22.90
  12  -9  -7    1.70    7.20
 -12  -9   7    8.00   11.30
  12  -9  -7    2.30    7.60
  11  -9  -7    9.30    7.70
 -11  -9   7    4.00   10.50
  11  -9  -7   -4.80    5.70
  10  -9  -7  345.77   32.90
  10  -9  -7  365.56   28.10
 -10  -9   7  218.98   33.10
   9  -9  -7   67.99   13.20
  -9  -9   7   54.29   16.10
  -8  -9   7   16.20   10.40
   8  -9  -7   32.90    9.10
  -8   9   7    0.50    4.10
  -7  -9   7   93.39   19.10
   7  -9  -7  140.09   17.00
  -7   9   7   93.19   13.50
  -6  -9   7   29.60    9.90
   6  -9  -7   18.30    6.30
   6  -9  -7   24.30    5.10
  -6   9   7   19.80    6.50
   5  -9  -7   61.59    8.30
   5  -9  -7   49.30    9.20
  -5  -9   7   56.29   12.50
  -5   9   7   77.69   10.90
   4  -9  -7   94.89   12.70
  -4  -9   7   64.89   13.10
  -4  -9   7   85.39   11.80
   4  -9  -7   79.69    9.60
  -4   9   7   82.99   10.50
  -3  -9   7  456.25   29.00
   3  -9  -7  493.65   29.20
   3  -9  -7  326.77   25.50
  -3  -9   7  406.96   30.50
  -3   9   7  431.66   26.40
  -2  -9   7  131.59   14.20
   2  -9  -7  103.19   12.30
   2  -9  -7  140.69   12.20
  -2  -9   7  146.09   16.80
  -2   9   7  119.39   12.20
   1  -9  -7    6.20    4.40
   1  -9  -7    3.30    3.20
  -1  -9   7    4.20    3.70
  -1  -9   7    6.70    4.40
  -1   9   7   17.30    3.50
   0  -9  -7  246.78   17.40
   0  -9  -7  241.68   18.20
   0  -9   7  240.08   18.00
   0  -9   7  247.48   17.90
   0   9   7  210.38   14.20
   1  -9   7  386.96   26.80
   1  -9   7  414.56   27.00
  -1  -9  -7  397.46   27.80
  -1  -9  -7  433.16   26.40
   1   9   7  392.96   23.30
   2  -9   7   90.99   11.00
  -2  -9  -7  112.69   14.20
  -2  -9  -7   92.79    9.80
   2  -9   7   72.99   10.40
   2   9   7   84.59    6.80
   3  -9   7   59.59    8.90
   3  -9   7   78.89   10.60
  -3  -9  -7   73.39    8.60
  -3  -9  -7   86.99   12.80
   3   9   7   85.19    6.90
  -4  -9  -7    6.90    5.60
  -4  -9  -7    7.20    3.20
   4  -9   7    4.50    3.10
   4  -9   7   10.30    3.90
   4   9   7   11.30    3.10
  -5  -9  -7    7.50    6.50
   5  -9   7    3.30    3.50
  -5  -9  -7    5.20    3.10
   5  -9   7    3.10    3.70
   5   9   7   10.10    3.30
   6  -9   7   14.00    5.60
  -6  -9  -7   14.90    7.80
   6  -9   7   14.80    5.80
   6   9   7    7.20    3.50
  -7  -9  -7    3.80    6.00
   7  -9   7    5.00    4.30
   7  -9   7    4.20    4.00
   7   9   7    3.10    2.90
   8  -9   7   34.50    8.10
  -8  -9  -7   27.50   11.40
   8   9   7   36.90    7.00
   9  -9   7    2.30    4.80
  -9  -9  -7    4.20    8.60
   9   9   7    2.80    3.50
 -10  -9  -7   13.40   10.40
  10  -9   7   17.10    7.60
  10   9   7   11.40    5.50
  12 -10  -7  138.99   19.30
 -12 -10   7   72.99   20.50
  12 -10  -7  143.69   21.90
 -11 -10   7   21.80   13.30
  11 -10  -7   13.20    7.10
  11 -10  -7   16.70    9.00
  10 -10  -7  171.98   22.80
 -10 -10   7  156.38   27.90
  10 -10  -7  189.18   21.60
  -9 -10   7  586.64   47.90
   9 -10  -7  483.75   38.60
   8 -10  -7    0.30    5.20
  -8 -10   7    5.60    9.60
  -8  10   7    1.70    5.90
  -7 -10   7    5.50    8.40
   7 -10  -7    3.40    5.40
  -7  10   7    7.30    6.10
  -6 -10   7   43.80   12.80
   6 -10  -7   49.99    7.50
   6 -10  -7   47.60    9.60
  -6  10   7   62.19   11.20
   5 -10  -7   26.20    7.70
   5 -10  -7   45.70    7.20
  -5 -10   7   32.90   10.50
  -5 -10   7   43.50    9.60
  -5  10   7   55.09    9.00
  -4 -10   7   47.90    8.70
   4 -10  -7   31.80    7.50
  -4 -10   7   35.40   10.10
   4 -10  -7   40.50    7.00
  -4  10   7   31.70    6.50
  -3 -10   7   65.49   12.00
  -3 -10   7   69.59   10.30
   3 -10  -7   44.80    8.10
   3 -10  -7   22.90    5.80
  -3  10   7   46.70    6.80
   2 -10  -7   49.00    8.10
   2 -10  -7   33.90    7.40
  -2 -10   7   48.70    8.60
  -2 -10   7   52.09   10.00
  -2  10   7   34.40    6.00
  -1 -10   7  251.97   19.60
   1 -10  -7  273.97   19.70
  -1 -10   7  270.17   19.80
   1 -10  -7  269.77   19.80
  -1  10   7  251.47   15.90
   0 -10  -7   21.80    6.60
   0 -10  -7   21.10    5.30
   0 -10   7   15.20    4.90
   0 -10   7   19.10    5.20
   0  10   7   11.70    2.70
  -1 -10  -7   75.29    9.70
   1 -10   7   75.19   10.20
   1 -10   7   90.99   11.20
  -1 -10  -7   89.39   12.50
  -2 -10  -7  240.38   19.80
   2 -10   7  231.48   18.50
  -2 -10  -7  253.17   17.50
   2 -10   7  216.98   17.30
  -3 -10  -7   50.09   10.50
   3 -10   7   50.79    8.30
   3 -10   7   57.99    9.40
  -3 -10  -7   46.90    7.10
   4 -10   7  319.07   22.00
  -4 -10  -7  276.07   23.10
   4 -10   7  241.98   19.70
  -4 -10  -7  262.27   19.00
   5 -10   7  399.76   29.50
  -5 -10  -7  431.76   27.30
   5 -10   7  407.46   28.60
  -5 -10  -7  479.95   32.90
   6 -10   7   21.10    6.80
  -6 -10  -7   25.10    9.50
   6 -10   7   18.10    6.00
  -7 -10  -7   10.20    7.70
   7 -10   7    3.20    4.10
   7 -10   7   -0.80    3.70
   8 -10   7    4.40    4.70
  -8 -10  -7    1.20    7.20
   9 -10   7    1.60    4.70
  -9 -10  -7   -3.60    7.80
  10 -10   7    5.10    5.90
 -10 -10  -7   -6.10    8.20
  12 -11  -7    7.60    8.70
 -12 -11   7   -0.50   12.00
  12 -11  -7    8.50    8.60
 -11 -11   7   24.00   14.00
  11 -11  -7   -1.50    6.80
  11 -11  -7    3.60    7.80
  10 -11  -7   62.09   14.50
 -10 -11   7   30.30   15.10
  -9 -11   7   21.70   12.10
   9 -11  -7   28.90    9.60
  -9  11   7    3.90    6.60
   8 -11  -7   -2.00    4.40
  -8 -11   7   -5.40    8.70
  -8  11   7   10.30    6.70
  -7 -11   7    0.40    4.80
   7 -11  -7    1.70    5.50
  -7 -11   7   24.00   10.90
  -7  11   7    5.40    5.90
  -6 -11   7   50.99   13.30
  -6 -11   7   74.39   12.70
   6 -11  -7   81.29   13.10
  -6  11   7   57.99   11.10
   5 -11  -7  134.79   13.50
  -5 -11   7  147.49   19.20
  -5 -11   7  123.49   15.80
   5 -11  -7  117.49   15.30
  -5  11   7  108.99   13.50
  -4 -11   7   38.20    9.80
  -4 -11   7   37.20    8.30
   4 -11  -7   47.50    8.10
   4 -11  -7   47.80    9.20
  -3 -11   7  109.89   13.60
   3 -11  -7   91.79   12.80
  -3 -11   7  109.19   15.10
   2 -11  -7  195.78   16.90
  -2 -11   7  198.98   17.20
   2 -11  -7  205.08   16.80
  -2 -11   7  200.78   17.20
  -1 -11   7   86.99   11.00
   1 -11  -7   86.69   11.00
   1 -11  -7   68.69   10.80
  -1 -11   7   81.09   11.10
   0 -11   7  173.28   14.90
   0 -11   7  204.18   16.50
   0 -11  -7  201.48   16.70
   0 -11  -7  173.98   15.30
  -1 -11  -7   89.39   12.80
   1 -11   7   53.99    8.70
   1 -11   7   71.49   10.20
  -1 -11  -7   55.49    8.50
  -2 -11  -7  206.48   17.50
  -2 -11  -7  173.88   14.50
   2 -11   7  202.28   18.90
   2 -11   7  144.19   15.40
   3 -11   7  146.59   16.20
   3 -11   7  137.59   14.20
  -3 -11  -7  148.79   18.20
  -3 -11  -7  131.59   13.40
   4 -11   7  184.58   18.90
  -4 -11  -7  159.78   20.50
  -4 -11  -7  153.58   14.80
   4 -11   7  148.09   15.70
  -5 -11  -7  295.87   26.40
   5 -11   7  311.47   23.10
   5 -11   7  335.57   25.10
  -5 -11  -7  315.47   21.90
  -6 -11  -7   25.00    8.60
   6 -11   7   19.90    6.80
   6 -11   7   21.20    6.20
  -7 -11  -7   29.40    9.80
   7 -11   7   27.90    8.00
   7 -11   7   36.30    8.40
  -8 -11  -7   55.49   14.50
   8 -11   7   64.49   11.50
  -9 -11  -7    2.60    9.50
   9 -11   7    3.40    5.80
  10 -11   7   40.90   10.70
  11 -12  -7  138.79   21.80
 -11 -12   7   88.99   22.30
 -10 -12   7   15.90   13.00
  10 -12  -7   31.50   11.30
 -10  12   7    6.90    7.60
  -9 -12   7   25.30   14.10
  -9 -12   7   21.30    9.00
   9 -12  -7   18.80    9.60
  -9  12   7   18.90    8.90
   8 -12  -7   25.40    8.60
  -8 -12   7   22.70    7.80
  -8 -12   7   18.20   12.20
  -8  12   7    5.50    9.70
   7 -12  -7    1.60    5.20
  -7 -12   7    0.60    4.50
  -7 -12   7    0.60    8.80
  -6 -12   7   36.70    9.50
  -6 -12   7   41.30   13.00
   6 -12  -7   48.90   11.20
  -5 -12   7   13.20    9.00
   5 -12  -7   17.80    5.70
  -5 -12   7   18.50    6.70
   5 -12  -7   19.40    7.00
   4 -12  -7   62.49    9.40
  -4 -12   7   64.89   11.30
   4 -12  -7   63.09   11.70
  -4 -12   7   75.19   13.70
  -3 -12   7  832.32   52.79
  -3 -12   7  875.21   53.39
   3 -12  -7  840.22   52.79
  -2 -12   7   32.60    7.30
  -2 -12   7   17.90    6.40
   2 -12  -7   28.60    7.10
   2 -12  -7   22.70    7.00
  -1 -12   7   78.99   10.50
  -1 -12   7   77.29   11.60
   1 -12  -7   99.49   12.90
   1 -12  -7   92.89   12.00
   0 -12  -7   73.29   10.60
   0 -12   7   52.29    9.40
   0 -12   7   76.19    9.80
   0 -12  -7   72.59   11.40
   1 -12   7  196.58   19.30
  -1 -12  -7  184.28   17.90
   1 -12   7  180.58   15.00
  -1 -12  -7  208.18   21.10
  -2 -12  -7    6.30    4.00
   2 -12   7    2.40    3.30
   2 -12   7    5.90    4.20
  -2 -12  -7   -3.40    4.30
  -3 -12  -7  142.19   18.00
   3 -12   7  131.89   15.60
  -3 -12  -7  139.59   14.20
   3 -12   7  127.79   14.20
  -4 -12  -7   15.90    5.10
  -4 -12  -7    8.20    7.20
   4 -12   7   23.60    7.00
   4 -12   7   24.90    6.30
  -5 -12  -7   79.19   15.00
   5 -12   7  128.69   16.20
  -5 -12  -7  104.99   12.10
   5 -12   7  111.29   13.30
   6 -12   7    5.10    4.40
   6 -12   7    4.40    4.60
  -6 -12  -7    6.00    6.90
   7 -12   7   12.20    5.30
  -7 -12  -7    7.10    8.00
   7 -12   7   13.00    6.50
  -8 -12  -7   -0.70    7.30
   8 -12   7    0.50    4.80
  -9 -12  -7    8.50    9.40
   9 -12   7    4.10    5.90
  10 -13  -7   53.69   13.70
 -10 -13   7   37.40   12.20
   9 -13  -7   19.80    9.40
  -9 -13   7   51.29   12.70
  -9 -13   7   54.99   22.90
  -8 -13   7   64.29   13.20
   8 -13  -7   96.19   16.50
  -8 -13   7   70.59   17.00
  -7 -13   7   34.40   12.80
  -7 -13   7   33.90   10.10
   7 -13  -7   27.10    9.50
  -6 -13   7    4.00    9.10
   6 -13  -7   -1.70    4.70
  -6 -13   7   10.00    6.30
  -5 -13   7   95.09   16.00
  -5 -13   7   76.69   13.20
   5 -13  -7   70.39   10.50
   5 -13  -7   80.99   13.40
  -4 -13   7    8.40    5.80
  -4 -13   7   19.60    9.30
   4 -13  -7    3.10    4.80
   4 -13  -7    1.50    5.00
  -3 -13   7   13.80    6.60
   3 -13  -7   17.20    6.50
  -3 -13   7   13.10    6.10
   3 -13  -7    8.20    4.80
  -2 -13   7 1207.18   71.39
   2 -13  -7 1298.37   74.49
   2 -13  -7 1230.38   72.69
  -2 -13   7 1268.47   74.39
  -1 -13   7  291.87   23.00
  -1 -13   7  286.17   20.60
   1 -13  -7  284.67   22.60
   1 -13  -7  296.57   22.80
   0 -13  -7   32.80    7.70
   0 -13   7   45.80    8.80
   0 -13  -7   55.79   10.60
   0 -13   7   55.79    8.60
  -1 -13  -7   17.90    5.90
   1 -13   7    5.80    4.40
  -1 -13  -7    5.80    5.70
   1 -13   7    4.40    3.90
   2 -13   7   70.49    9.20
   2 -13   7   67.79   11.50
  -2 -13  -7   74.89   10.40
  -2 -13  -7   49.00   11.10
   3 -13   7   89.39   11.50
  -3 -13  -7  104.39   15.80
  -3 -13  -7   83.79   11.10
   3 -13   7  112.59   15.00
  -4 -13  -7   53.99   12.00
   4 -13   7   55.49    9.20
  -4 -13  -7   51.19    8.70
   4 -13   7   62.09   11.40
   5 -13   7   36.70    9.80
  -5 -13  -7   36.00   11.20
   5 -13   7   24.70    7.10
  -5 -13  -7   36.70    7.40
   6 -13   7   79.29   11.60
   6 -13   7   77.59   13.80
  -6 -13  -7   49.60   13.60
  -7 -13  -7    6.30    8.10
   7 -13   7    8.90    5.90
   7 -13   7    3.00    6.10
   8 -13   7   15.90   13.40
   8 -13   7    3.50    5.40
  -8 -13  -7   15.40   10.80
 -10 -14   7    0.60    6.60
  10 -14  -7   23.50   10.70
  -9 -14   7   36.50   11.30
   9 -14  -7   13.00    8.30
  -8 -14   7   93.69   16.50
   8 -14  -7  124.39   19.30
  -7 -14   7   19.30    8.20
   7 -14  -7    6.90    7.00
   6 -14  -7   10.10    7.20
  -6 -14   7    6.10    5.90
   5 -14  -7  124.09   18.10
  -5 -14   7  135.49   18.10
   5 -14  -7  119.49   17.40
   4 -14  -7   12.30    6.60
   4 -14  -7   17.70    6.40
  -4 -14   7   14.70    6.70
   3 -14  -7   93.29   14.50
  -3 -14   7  137.89   17.00
   3 -14  -7  119.79   14.60
  -2 -14   7  122.89   15.70
   2 -14  -7   94.49   13.90
   2 -14  -7  107.19   14.20
   1 -14  -7    0.80    5.10
  -1 -14   7    0.80    3.50
   1 -14  -7   -0.20    4.20
  -1 -14   7    2.00    4.60
   0 -14  -7    4.00    4.90
   0 -14   7   10.30    5.70
   0 -14   7    8.40    4.30
   0 -14  -7    6.00    5.60
   1 -14   7    0.30    3.30
  -1 -14  -7    0.00    5.40
  -1 -14  -7   -4.90    3.20
   1 -14   7    3.00    4.10
  -2 -14  -7    4.20    6.30
   2 -14   7   -3.10    4.40
   2 -14   7    1.10    3.50
  -2 -14  -7    7.60    5.00
   3 -14   7    3.90    4.30
  -3 -14  -7    8.80    7.50
   3 -14   7   -0.50    4.70
  -3 -14  -7    7.80    5.40
  -4 -14  -7  654.23   44.90
   4 -14   7  608.24   39.30
   4 -14   7  610.64   42.90
  -4 -14  -7  630.34   40.20
  -5 -14  -7   80.29   11.50
   5 -14   7   85.09   14.60
  -5 -14  -7   99.79   17.70
   5 -14   7   93.19   12.60
   6 -14   7   21.20    7.20
  -6 -14  -7   18.30    9.60
   6 -14   7   41.70   10.70
   7 -14   7    9.80    7.30
   7 -14   7   11.40    6.50
  -7 -14  -7    5.30    8.70
   8 -14   7   38.50    9.70
   9 -15  -7  109.29   19.80
  -9 -15   7   95.49   18.10
   8 -15  -7    5.70    8.20
  -8 -15   7   10.70    7.60
   7 -15  -7   23.70   10.20
  -7 -15   7   26.90    9.70
  -6 -15   7   15.20    8.20
   6 -15  -7    8.30    7.30
   5 -15  -7    1.90    6.00
  -5 -15   7   10.00    6.50
   4 -15  -7  154.78   17.20
  -4 -15   7  164.18   19.90
   4 -15  -7  124.59   17.60
   3 -15  -7    6.60    6.30
  -3 -15   7    7.80    5.30
   3 -15  -7   11.70    6.50
   2 -15  -7   37.00    9.50
   2 -15  -7   41.80    9.70
  -2 -15   7   48.70    9.80
  -1 -15   7   32.80    8.20
   1 -15  -7   22.10    8.20
   1 -15  -7   24.80    7.80
   0 -15  -7   70.39   13.40
   0 -15   7   89.19   13.00
   0 -15  -7   79.79   12.20
  -1 -15  -7    3.30    6.90
  -1 -15  -7    1.70    5.00
   1 -15   7   -1.50    4.10
   2 -15   7   31.40    8.30
  -2 -15  -7   32.60    8.10
  -2 -15  -7   14.40    8.00
   3 -15   7  114.89   16.50
  -3 -15  -7  101.89   17.10
  -3 -15  -7  113.69   14.30
  -4 -15  -7  144.49   20.50
  -4 -15  -7  148.69   16.60
   4 -15   7  141.39   18.60
  -5 -15  -7    3.40    8.10
   5 -15   7   -3.00    5.90
   5 -15   7   -1.40    5.40
  -6 -15  -7   -3.40    8.10
   6 -15   7    4.10    5.60
   6 -15   7   14.30    8.20
   7 -15   7   50.79   13.40
   7 -15   7   47.90   10.00
  -7 -15  -7   28.00   12.40
  -8 -16   7   47.40   12.70
   8 -16  -7   80.89   17.10
  -7 -16   7   30.00   10.40
   7 -16  -7   38.50   12.10
   6 -16  -7   -0.40    6.50
  -6 -16   7    0.40    6.10
  -5 -16   7    6.00    6.10
   5 -16  -7   -1.10    6.40
  -4 -16   7   69.19   13.50
   4 -16  -7   72.19   13.80
   4 -16  -7   81.39   12.60
   3 -16  -7   32.80    9.70
   3 -16  -7   45.60   10.50
  -3 -16   7   37.50   10.00
   2 -16  -7   25.80    8.90
  -2 -16   7   30.90    8.40
   2 -16  -7   28.40    9.10
   1 -16  -7  111.69   15.30
   1 -16  -7   99.19   14.80
  -1 -16   7   99.39   14.70
   0 -16   7    7.10    6.40
   0 -16  -7   15.50    7.20
   0 -16  -7    5.70    6.60
  -1 -16  -7   20.10    9.30
   1 -16   7   15.00    6.70
  -1 -16  -7   27.70    8.60
  -2 -16  -7  127.89   19.10
   2 -16   7  120.39   16.90
  -2 -16  -7  133.39   16.00
  -3 -16  -7   -4.00    6.40
   3 -16   7    4.80    6.20
  -3 -16  -7    5.50    5.50
   4 -16   7   10.10    7.40
  -4 -16  -7    7.10    8.70
  -4 -16  -7   20.90    7.50
   5 -16   7   72.09   14.70
  -5 -16  -7   88.89   17.90
   6 -16   7  240.28   28.30
  -6 -17   7    1.10    6.20
   6 -17  -7  -10.40    5.40
   5 -17  -7   -7.40    6.40
  -5 -17   7    5.50    6.40
   4 -17  -7  221.78   29.10
   4 -17  -7  200.08   23.40
  -4 -17   7  203.28   23.80
  -3 -17   7  150.28   19.70
   3 -17  -7  191.78   20.80
   3 -17  -7  145.09   19.90
   2 -17  -7    4.70    6.40
  -2 -17   7   12.20    6.90
   2 -17  -7    7.80    6.50
  -1 -17   7    1.00    4.60
   1 -17  -7    6.30    6.00
   1 -17  -7    8.40    7.40
   0 -17  -7   10.90    8.00
   0 -17  -7    9.80    6.30
   0 -17   7    9.50    6.80
  -1 -17  -7    8.90    8.30
   1 -17   7    4.60    5.70
  -1 -17  -7    0.10    5.70
  -2 -17  -7   10.10    8.70
   2 -17   7   -0.50    5.60
  -2 -17  -7    8.60    6.40
   3 -17   7   15.90    7.50
  -3 -17  -7    9.00    9.30
  -3 -17  -7    6.90    6.00
  -4 -17  -7    4.10    8.30
   4 -17   7    0.60    6.80
  -4 -17  -7    9.30    6.10
   5 -18  -7  192.18   24.40
   4 -18  -7    8.70    8.10
  -4 -18   7    1.70    6.20
  -3 -18   7   87.99   15.10
   3 -18  -7  107.39   17.30
   3 -18  -7  126.09   17.00
  -2 -18   7    7.20    6.90
   2 -18  -7  -10.90    5.20
   2 -18  -7    3.20    7.00
  -1 -18   7    2.90    6.10
   1 -18  -7    9.20    8.40
   1 -18  -7   12.70    7.70
   0 -18  -7   12.10    8.90
   0 -18   7    6.20    6.60
   0 -18  -7   14.10    7.90
   1 -18   7    2.30    6.10
  -1 -18  -7    0.20    5.40
  -1 -18  -7   -5.80    6.90
   2 -18   7   11.50    7.60
  -2 -18  -7   -1.30    5.60
  -2 -18  -7    7.60    9.30
 -14   0   8   53.49   17.30
 -13   0   8   50.09   15.70
 -12   0   8   21.10   11.90
 -11   0   8   28.90   11.50
 -10   0   8   70.09   16.10
  -9   0   8   22.80    9.70
  -8   0   8    8.70    6.70
   7   0  -8    6.30    3.90
  -7   0   8   -2.50    4.20
   6   0  -8    2.30    3.20
  -6   0   8   12.90    6.50
  -5   0   8    0.20    3.30
   5   0  -8    1.50    3.20
   4   0  -8  850.41   52.69
  -4   0   8  970.50   56.69
  -3   0   8    3.40    3.80
  -2   0   8  471.45   32.70
   2   0  -8  466.05   29.40
   1   0  -8    9.10    4.00
  -1   0   8   16.70    6.40
   0   0  -8  123.99   13.40
   0   0   8  167.28   17.20
   1   0   8   22.90    6.00
  -1   0  -8   -1.00    3.60
  -2   0  -8  460.25   29.60
   2   0   8  453.95   29.90
  -3   0  -8    2.50    4.00
   3   0   8    1.30    2.40
   4   0   8   51.99    7.90
  -4   0  -8   54.69   10.20
   5   0   8    0.90    2.60
  -5   0  -8    0.60    4.30
  -6   0  -8   40.30    9.50
   6   0   8   11.20    4.20
   7   0   8    3.20    3.00
  -7   0  -8    8.20    6.50
  -8   0  -8  115.09   16.20
   8   0   8   92.59   12.60
  -9   0  -8   12.90    7.80
   9   0   8    4.40    4.20
 -10   0  -8 1403.66   78.19
  10   0   8 1130.79   74.29
  11   0   8    0.60    4.30
  12   0   8  153.88   20.00
 -14  -1   8   77.99   20.80
 -14   1   8   33.30   15.30
 -13  -1   8   72.19   18.70
 -13   1   8   53.89   15.80
 -12  -1   8   70.59   17.40
 -12   1   8   60.89   15.90
 -11  -1   8  270.57   31.90
 -11   1   8  207.48   28.20
 -10  -1   8   36.10   11.70
  10  -1  -8   48.50   10.10
 -10   1   8   41.50   12.80
   9  -1  -8  146.19   17.60
  -9  -1   8  137.79   21.00
  -9   1   8  209.58   25.00
  -8  -1   8   23.50   10.00
   8  -1  -8   22.40    6.30
  -8   1   8   13.60    7.20
  -7  -1   8   89.69   15.50
   7  -1  -8  113.49   14.00
  -7   1   8   91.29   15.40
  -6  -1   8  256.87   27.20
   6  -1  -8  263.07   20.30
  -6   1   8  270.77   27.70
   5  -1  -8 1127.79   68.79
  -5  -1   8 1254.47   73.39
  -5   1   8 1205.38   72.39
   4  -1  -8 1471.95   85.59
  -4  -1   8 1524.45   88.99
  -4   1   8 1562.74   88.49
   3  -1  -8  188.28   14.00
   3  -1  -8  175.48   14.20
  -3  -1   8  211.18   20.30
  -3   1   8  156.18   17.20
  -2  -1   8  126.99   15.00
   2  -1  -8   91.09   10.20
   2  -1  -8  107.79   11.40
  -2   1   8   97.19   13.10
   1  -1  -8   21.30    5.30
  -1  -1   8   30.20    8.20
   1  -1  -8   30.10    5.10
  -1   1   8   27.80    7.70
   1   1  -8   23.60    6.10
   0  -1   8  477.35   32.70
   0  -1  -8  480.45   30.20
   0   1   8  468.55   32.20
   0   1  -8  489.55   30.50
   1  -1   8  276.57   22.90
  -1  -1  -8  349.57   22.80
   1   1   8  336.77   23.50
  -1   1  -8  351.76   22.80
   2  -1   8   11.40    4.30
   2  -1   8    8.60    1.80
  -2  -1  -8    5.20    4.30
   2   1   8    7.20    3.40
  -2   1  -8   10.20    5.00
   3  -1   8  152.48   15.10
  -3  -1  -8  102.49   13.20
  -3   1  -8  136.99   15.20
   3   1   8  115.89   12.50
  -4  -1  -8  211.18   17.50
   4  -1   8  199.18   16.30
  -4   1  -8  200.48   17.20
   4   1   8  219.98   16.20
  -5  -1  -8   36.10    8.70
   5  -1   8   49.20    8.40
  -5   1  -8   46.50    9.10
   5   1   8   67.69    9.40
   6  -1   8   49.30    8.50
  -6  -1  -8   45.60   10.00
  -6   1  -8   49.40    9.90
   6   1   8   48.50    8.10
  -7  -1  -8   65.79   12.70
   7  -1   8   61.19    9.90
  -7   1  -8   62.99   11.80
   7   1   8   52.39    8.60
   8  -1   8   11.80    5.10
  -8  -1  -8   27.30    9.00
  -8   1  -8   20.50    8.60
   8   1   8   21.40    5.90
   9  -1   8  231.58   19.40
  -9  -1  -8  191.28   23.20
   9   1   8  226.88   19.30
  -9   1  -8  230.68   24.00
  10  -1   8   18.50    6.50
 -10  -1  -8   35.80   12.30
  10   1   8   20.50    7.10
 -10   1  -8   46.00   13.00
  11  -1   8   16.30    6.80
  11   1   8   27.10    8.70
  12  -1   8    3.60    5.40
  12   1   8    1.90    4.60
 -14  -2   8   16.50   13.30
 -14   2   8   33.70   13.70
 -13  -2   8   10.80   10.00
 -13   2   8   15.10   10.40
  12  -2  -8   -7.10    4.70
 -12  -2   8    2.10    7.00
 -12   2   8    4.50    8.20
  11  -2  -8   99.49   15.60
 -11  -2   8   87.49   18.50
 -11   2   8  131.09   21.10
  10  -2  -8  169.28   19.80
 -10  -2   8  153.78   23.80
 -10   2   8  145.89   22.00
   9  -2  -8   51.49   10.70
  -9  -2   8   64.99   15.00
  -9   2   8   72.39   15.20
   8  -2  -8   65.29   10.80
  -8  -2   8   74.19   15.30
  -8   2   8   84.89   15.20
  -7  -2   8   91.59   16.10
   7  -2  -8   82.19   12.30
  -7   2   8   89.29   14.90
  -6  -2   8   60.99   12.70
   6  -2  -8   54.09    9.30
  -6   2   8   53.59   11.30
   5  -2  -8 2012.40  113.19
  -5  -2   8 2052.99  116.99
  -5   2   8 1977.20  115.29
   4  -2  -8  119.09   10.80
   4  -2  -8  130.69   14.00
  -4  -2   8  123.59   15.90
  -4   2   8  169.48   17.50
   3  -2  -8   45.30    7.70
  -3  -2   8   49.10   10.10
   3  -2  -8   63.39    8.20
  -3   2   8   62.99   10.20
   2  -2  -8  177.88   14.30
  -2  -2   8  203.28   20.80
   2  -2  -8  176.78   14.00
  -2   2   8  209.38   19.40
  -1  -2   8  963.80   61.79
   1  -2  -8 1016.40   57.49
   1  -2  -8 1085.99   58.09
  -1   2   8  940.61   60.69
   0  -2   8   38.50    8.10
   0  -2  -8   38.50    7.40
   0  -2  -8   43.20    5.90
   0   2   8   46.70    8.70
   0   2  -8   41.80    8.00
   1  -2   8    6.10    2.20
  -1  -2  -8    7.20    4.20
   1  -2   8   16.70    5.60
  -1  -2  -8    8.90    2.60
   1   2   8    8.00    3.80
  -1   2  -8   16.80    5.70
   2  -2   8  622.94   34.90
   2  -2   8  613.24   39.00
  -2  -2  -8  662.33   39.10
  -2   2  -8  609.44   38.40
   2   2   8  605.64   38.00
   3  -2   8   78.89   10.00
   3  -2   8   73.29    5.50
  -3  -2  -8   98.69   13.00
   3   2   8   93.49   10.40
  -3   2  -8   78.79   10.80
   4  -2   8   59.99    4.50
  -4  -2  -8   78.99   12.20
   4  -2   8   62.09    9.10
  -4   2  -8   79.09   11.00
   4   2   8   56.99    8.20
   5  -2   8    1.40    3.00
  -5  -2  -8    1.50    5.30
  -5   2  -8    2.20    5.20
   5   2   8    3.20    3.10
   6  -2   8  140.69   15.40
  -6  -2  -8  119.59   17.10
  -6   2  -8  123.79   15.80
   6   2   8  126.69   13.90
  -7  -2  -8   12.80    7.40
   7  -2   8    3.10    3.50
  -7   2  -8   12.90    7.00
   7   2   8    4.40    3.50
  -8  -2  -8  358.56   28.80
   8  -2   8  336.27   25.50
   8   2   8  348.47   25.20
  -8   2  -8  351.96   26.80
  -9  -2  -8   18.00    8.90
   9  -2   8   33.60    8.20
  -9   2  -8   44.60   10.70
   9   2   8   15.10    6.00
  10  -2   8  219.28   22.40
 -10  -2  -8  136.59   21.10
  10   2   8  186.48   20.30
 -11  -2  -8   -0.50    9.20
  11  -2   8    8.50    5.70
  11   2   8    3.90    4.50
  12  -2   8   25.70    8.70
  12   2   8   33.70    9.50
  14  -3  -8    1.20    6.30
 -14  -3   8   -1.50    8.30
 -14   3   8    6.10   10.00
  13  -3  -8    1.60    6.60
 -13  -3   8   14.00   10.60
 -13   3   8   16.20   10.20
  12  -3  -8  177.48   22.00
 -12  -3   8  161.08   26.50
 -12   3   8  147.69   22.30
  11  -3  -8    4.30    5.80
 -11  -3   8   -3.90    7.00
 -11   3   8    3.80    7.20
 -10  -3   8   17.00    9.60
  10  -3  -8    4.40    5.20
 -10   3   8    4.90    7.40
   9  -3  -8  138.99   17.80
  -9  -3   8  142.99   22.70
  -9   3   8  156.98   21.60
  -8  -3   8  235.08   28.20
   8  -3  -8  220.98   23.10
  -8   3   8  265.27   27.50
   7  -3  -8   65.89   11.30
  -7  -3   8   59.39   13.50
  -7   3   8   83.59   14.30
  -6  -3   8  224.98   25.30
   6  -3  -8  186.08   19.00
  -6   3   8  148.49   19.20
   5  -3  -8   32.20    7.20
  -5  -3   8   25.60    8.20
   5  -3  -8   25.70    5.30
  -5   3   8   21.60    7.00
  -4  -3   8  399.66   30.20
   4  -3  -8  367.56   26.90
   4  -3  -8  421.16   25.20
  -4   3   8  402.46   28.60
  -3  -3   8  265.37   24.10
   3  -3  -8  182.78   15.50
  -3   3   8  195.18   16.80
  -2  -3   8  309.67   24.10
   2  -3  -8  261.77   19.50
   2  -3  -8  281.17   19.30
  -2   3   8  290.47   21.70
   1  -3  -8   52.99    8.40
  -1  -3   8   65.39   11.90
   1  -3  -8   49.30    7.10
  -1   3   8   43.20    9.00
   0  -3  -8  442.96   28.00
   0  -3   8  449.56   30.30
   0  -3  -8  429.16   26.20
   0   3   8  401.56   28.60
  -1  -3  -8  280.37   20.70
   1  -3   8  293.57   21.80
   1  -3   8  277.17   17.90
  -1  -3  -8  293.77   18.10
   1   3   8  302.57   20.60
  -2  -3  -8 1744.63   89.69
   2  -3   8 1529.85   89.19
   2  -3   8 1550.24   85.39
  -2  -3  -8 1458.25   84.49
   2   3   8 1614.94   87.89
  -2   3  -8 1583.64   88.69
  -3  -3  -8 1235.08   70.79
   3  -3   8 1214.98   69.99
   3  -3   8 1168.48   65.79
  -3   3  -8 1218.78   69.79
   3   3   8 1223.18   68.69
   4  -3   8   19.30    3.10
   4  -3   8   20.90    5.40
  -4  -3  -8   19.10    6.90
  -4   3  -8   26.60    7.00
   4   3   8   25.20    5.40
   5  -3   8  572.64   35.80
   5  -3   8  513.75   31.10
  -5  -3  -8  558.64   37.80
   5   3   8  574.74   34.60
  -5   3  -8  584.24   36.20
  -6  -3  -8    4.20    6.40
   6  -3   8    7.50    3.80
  -6   3  -8   18.30    7.20
   6   3   8    7.10    3.50
   7  -3   8   42.70    8.40
  -7  -3  -8   56.69   13.30
  -7   3  -8   73.59   12.20
   7   3   8   39.10    7.60
  -8  -3  -8    8.90    8.60
   8  -3   8    5.80    4.20
  -8   3  -8   11.50    7.30
   8   3   8    9.00    4.60
   9  -3   8   15.20    5.80
  -9  -3  -8   22.00    9.80
   9   3   8   25.80    7.00
  -9   3  -8   14.80    8.00
  10  -3   8    5.30    5.40
 -10  -3  -8    0.10    7.80
  10   3   8    9.20    5.40
  11  -3   8   49.00   11.00
 -11  -3  -8   39.00   12.70
  11   3   8   42.90    9.60
  12  -3   8    2.20    5.60
  12   3   8    0.50    4.60
 -14  -4   8    2.30   10.00
  14  -4  -8   13.70    8.80
 -14   4   8   10.90    9.80
 -13  -4   8  184.08   29.70
  13  -4  -8  248.38   27.30
 -12  -4   8   57.79   16.50
  12  -4  -8   74.99   14.70
  11  -4  -8  299.77   29.10
 -11  -4   8  234.38   31.50
  10  -4  -8  333.77   27.10
 -10  -4   8  292.67   34.20
 -10   4   8  292.57   31.70
   9  -4  -8   51.59   10.60
  -9  -4   8   39.70   12.30
  -9   4   8   33.30   10.70
  -8  -4   8  468.15   38.80
   8  -4  -8  441.46   33.80
  -8   4   8  524.25   37.40
  -7  -4   8 1573.04   95.39
   7  -4  -8 1480.65   89.49
  -7   4   8 1554.14   91.99
  -6  -4   8   19.20    8.30
   6  -4  -8   18.30    4.60
   6  -4  -8   16.10    5.90
  -6   4   8   21.00    7.50
  -5  -4   8   28.50    8.50
   5  -4  -8   40.80    6.30
   5  -4  -8   19.60    5.90
  -5   4   8   31.50    8.10
  -4  -4   8   73.09   13.40
   4  -4  -8   73.49   10.30
   4  -4  -8   94.89    9.80
  -4   4   8  106.19   13.20
  -3  -4   8  212.58   21.90
   3  -4  -8  174.38   14.70
  -3   4   8  170.08   17.10
   2  -4  -8  197.28   15.20
  -2  -4   8  203.68   21.60
   2  -4  -8  204.98   15.60
  -1  -4   8   21.00    7.20
   1  -4  -8   17.10    5.10
   1  -4  -8    9.10    3.80
   0  -4  -8  302.27   20.60
   0  -4  -8  283.07   18.60
   0  -4   8  261.27   18.10
   0  -4   8  292.57   22.00
   1  -4   8  599.34   35.40
   1  -4   8  633.44   39.20
  -1  -4  -8  578.34   35.10
  -1  -4  -8  651.43   38.40
   2  -4   8  955.40   52.09
  -2  -4  -8  972.00   55.49
   2  -4   8  858.21   54.89
  -2  -4  -8  877.81   50.99
   2   4   8  966.10   53.39
  -3  -4  -8  397.66   23.10
  -3  -4  -8  415.96   28.60
   3  -4   8  403.76   27.50
   3  -4   8  405.96   24.40
   3   4   8  413.66   26.00
   4  -4   8   35.10    4.80
   4  -4   8   32.90    6.50
  -4  -4  -8   40.30    8.70
   4   4   8   39.10    6.30
  -5  -4  -8   11.90    7.10
   5  -4   8   32.50    4.50
   5  -4   8   22.90    5.80
   5   4   8   29.70    5.70
  -6  -4  -8    8.30    6.70
   6  -4   8    4.30    3.60
   6   4   8    5.60    3.10
   7  -4   8  312.17   23.30
  -7  -4  -8  309.17   27.10
   7   4   8  301.57   22.00
  -8  -4  -8   41.90   12.00
   8  -4   8   36.40    8.20
   8   4   8   33.60    7.30
  -9  -4  -8   47.00   13.30
   9  -4   8   61.49   11.40
   9   4   8   37.80    8.20
 -10  -4  -8    8.30    8.60
  10  -4   8    1.20    4.30
  10   4   8    0.50    3.70
  11  -4   8   13.30    6.90
 -11  -4  -8   12.30   11.30
  11   4   8   12.20    5.60
  14  -5  -8  146.49   21.30
 -14  -5   8  139.49   26.40
  13  -5  -8  210.38   25.20
 -13  -5   8  130.59   25.80
 -12  -5   8  469.75   49.60
  12  -5  -8  494.45   38.50
  11  -5  -8   -6.70    4.70
 -11  -5   8   -0.30    8.10
 -11   5   8    4.80    7.20
  10  -5  -8   41.70   10.40
 -10  -5   8   35.60   12.50
 -10   5   8   14.80    8.80
  -9  -5   8   87.29   17.50
   9  -5  -8   68.29   12.20
  -9   5   8   84.09   14.80
   8  -5  -8  195.78   21.30
  -8  -5   8  190.88   26.40
  -8   5   8  243.78   25.70
   7  -5  -8  572.04   37.70
  -7  -5   8  527.05   42.10
  -7   5   8  507.85   38.20
   6  -5  -8  108.09   10.50
   6  -5  -8   80.29   12.70
  -6  -5   8  113.29   18.30
  -6   5   8  109.99   15.60
   5  -5  -8   77.49    8.60
   5  -5  -8   68.59   10.40
  -5  -5   8   50.79   11.70
  -5   5   8   59.99   10.30
  -4  -5   8   17.10    7.40
   4  -5  -8   12.40    4.90
   4  -5  -8   19.80    4.80
  -4   5   8   20.40    5.80
   3  -5  -8  138.09   14.50
  -3  -5   8  166.38   19.30
  -3   5   8  123.49   14.30
  -2  -5   8  544.65   35.30
   2  -5  -8  457.55   30.10
   2  -5  -8  458.35   29.70
  -2   5   8  468.25   31.30
   1  -5  -8  290.97   20.20
  -1  -5   8  299.37   24.20
   1  -5  -8  319.67   21.30
  -1   5   8  287.27   22.20
   0  -5   8  414.16   27.20
   0  -5  -8  353.06   23.10
   0  -5  -8  388.46   25.20
   0   5   8  333.37   24.10
  -1  -5  -8   32.20    5.00
   1  -5   8   34.60    7.00
   1  -5   8   39.70    5.70
  -1  -5  -8   33.90    7.20
   1   5   8   40.10    6.40
   2  -5   8  440.36   30.10
   2  -5   8  451.05   27.70
  -2  -5  -8  491.55   31.00
  -2  -5  -8  443.46   26.50
   2   5   8  451.35   28.00
  -3  -5  -8    1.10    3.70
  -3  -5  -8    2.90    1.90
   3  -5   8    3.70    2.30
   3  -5   8    1.20    2.70
   3   5   8    2.60    1.90
   4  -5   8    8.30    2.80
  -4  -5  -8    2.40    1.70
  -4  -5  -8    8.10    5.50
   4  -5   8    7.80    4.30
   4   5   8    4.40    2.60
   5  -5   8  335.97   23.20
  -5  -5  -8  297.87   24.90
   5  -5   8  300.47   19.70
   5   5   8  309.67   21.10
   6  -5   8  189.58   15.70
  -6  -5  -8  160.38   20.50
   6   5   8  157.18   13.60
  -7  -5  -8  536.35   38.20
   7  -5   8  494.15   34.00
   7   5   8  497.95   32.50
  -8  -5  -8   11.10    9.10
   8  -5   8   17.50    5.90
   8   5   8   17.70    5.50
  -9  -5  -8  135.99   21.60
   9  -5   8  133.99   17.20
   9   5   8  159.08   16.90
 -10  -5  -8   38.00   13.70
  10  -5   8   33.20    9.00
  10   5   8   29.50    7.50
 -11  -5  -8   29.00   13.80
  11  -5   8   49.99   11.00
  11   5   8   44.80    9.80
  13  -6  -8   38.40   12.60
 -13  -6   8    4.50   10.80
 -13   6   8   11.30    8.90
 -12  -6   8   45.60   15.40
  12  -6  -8   98.49   16.90
 -11  -6   8   20.70   10.90
  11  -6  -8   14.50    8.30
 -11   6   8   20.90    9.50
 -10  -6   8  234.98   31.90
  10  -6  -8  289.87   28.80
  -9  -6   8   25.90   11.60
   9  -6  -8    1.20    4.70
  -9   6   8    5.40    6.70
   8  -6  -8    8.80    5.40
  -8  -6   8   16.40    9.10
  -8   6   8   13.40    7.20
  -7  -6   8   22.50   10.10
   7  -6  -8   16.30    5.10
   7  -6  -8   14.20    6.30
  -7   6   8   26.00    8.40
   6  -6  -8  236.38   22.60
  -6  -6   8  200.48   25.30
   6  -6  -8  211.28   14.90
  -6   6   8  196.48   21.80
  -5  -6   8  774.92   52.99
   5  -6  -8  803.62   49.10
   5  -6  -8  772.72   45.00
   4  -6  -8   14.30    5.10
  -4  -6   8    1.70    5.60
   4  -6  -8    2.50    3.50
  -4   6   8    4.30    3.90
   3  -6  -8    8.20    4.00
   3  -6  -8    1.90    2.50
  -3  -6   8   27.50    8.20
  -3   6   8    6.30    3.90
   2  -6  -8   33.60    6.70
  -2  -6   8   44.40   10.40
   2  -6  -8   29.40    6.30
  -2   6   8   35.10    7.30
  -1  -6   8  214.88   16.40
   1  -6  -8  234.48   16.70
  -1  -6   8  225.18   19.70
   1  -6  -8  237.78   17.60
  -1   6   8  227.38   17.90
   0  -6   8   17.80    5.90
   0  -6  -8   11.00    5.00
   0  -6  -8    7.10    3.20
   0  -6   8   12.10    3.70
   0   6   8    7.50    3.10
   1  -6   8  541.65   34.80
   1  -6   8  534.65   32.40
  -1  -6  -8  517.95   34.40
  -1  -6  -8  531.85   31.70
   1   6   8  536.25   32.10
  -2  -6  -8    3.60    2.10
   2  -6   8    7.10    3.00
  -2  -6  -8   11.20    5.80
   2  -6   8   12.10    4.40
   2   6   8    5.80    2.60
  -3  -6  -8   -4.50    3.50
   3  -6   8   -0.90    2.60
   3  -6   8    1.50    2.40
  -3  -6  -8    3.80    2.00
   3   6   8    5.90    2.70
   4  -6   8  474.65   27.90
   4  -6   8  410.66   29.20
  -4  -6  -8  418.26   25.50
  -4  -6  -8  477.55   32.10
   4   6   8  444.46   27.40
   5  -6   8   46.20    6.80
   5  -6   8   63.49    9.50
  -5  -6  -8   39.90   10.30
  -6  -6  -8   35.30   10.40
   6  -6   8   42.50    6.70
   6  -6   8   51.39    9.50
   6   6   8   43.30    7.20
  -7  -6  -8  298.97   32.80
   7  -6   8  328.37   24.10
   7   6   8  310.67   22.30
   8  -6   8  291.37   22.90
  -8  -6  -8  258.47   30.40
   8   6   8  290.57   21.30
   9  -6   8  168.08   19.50
  -9  -6  -8  163.88   24.10
   9   6   8  167.78   17.80
  10  -6   8    3.00    4.80
 -10  -6  -8   21.00   11.90
  10   6   8    6.80    4.80
  11  -6   8   13.80    7.00
 -11  -6  -8   10.80   11.60
  11   6   8   15.50    7.00
  13  -7  -8   91.19   18.00
 -13  -7   8   33.60   14.70
 -13   7   8   37.50   13.30
 -12  -7   8   14.30   11.70
  12  -7  -8    9.30    7.80
 -12   7   8    4.20    8.50
 -11  -7   8   11.00   10.00
  11  -7  -8    1.80    6.20
 -11   7   8    8.10    8.00
  10  -7  -8   61.89   13.20
 -10  -7   8   46.70   15.10
 -10   7   8   26.00    9.20
  -9  -7   8  248.28   32.80
   9  -7  -8  326.87   26.60
  -8  -7   8   10.80    9.70
   8  -7  -8   -0.50    3.70
  -8   7   8   -1.90    4.40
   7  -7  -8   36.50    8.80
  -7  -7   8   23.30   10.10
  -7   7   8   31.50    9.00
  -6  -7   8  372.76   33.70
   6  -7  -8  409.26   30.20
   6  -7  -8  432.26   25.70
   5  -7  -8  327.27   20.90
   5  -7  -8  318.77   24.10
  -5  -7   8  283.57   30.40
  -5   7   8  302.07   23.90
  -4  -7   8   96.09   16.20
   4  -7  -8   87.49   12.30
   4  -7  -8  108.09   11.50
  -4   7   8  111.29   13.00
   3  -7  -8   17.20    5.40
  -3  -7   8    9.60    6.80
   3  -7  -8    1.70    2.80
  -3   7   8   12.20    4.70
   2  -7  -8  437.66   27.50
  -2  -7   8  429.96   27.50
   2  -7  -8  401.76   26.90
  -2  -7   8  360.46   30.00
  -2   7   8  412.66   27.60
   1  -7  -8  115.09   12.90
  -1  -7   8  124.89   15.20
   1  -7  -8  104.19   11.10
  -1  -7   8   90.99   10.80
  -1   7   8   94.69   11.30
   0  -7  -8 1686.73   91.59
   0  -7  -8 1655.03   93.09
   0  -7   8 1656.03   91.99
   0  -7   8 1644.14   93.99
   0   7   8 1619.94   91.09
  -1  -7  -8  595.54   37.00
  -1  -7  -8  548.35   33.80
   1  -7   8  562.74   36.50
   1   7   8  575.74   33.50
  -2  -7  -8   68.19    7.70
   2  -7   8   91.09   11.30
  -2  -7  -8   85.09   13.20
   2  -7   8   70.49    9.20
   2   7   8   87.29    8.50
   3  -7   8  329.47   24.00
  -3  -7  -8  339.97   21.20
  -3  -7  -8  298.97   24.80
   3  -7   8  352.26   23.10
   3   7   8  365.96   21.80
   4  -7   8   37.10    7.20
   4  -7   8   40.40    6.90
  -4  -7  -8   40.50    5.30
  -4  -7  -8   39.60    9.50
   4   7   8   44.10    6.40
   5  -7   8   74.99    9.50
   5  -7   8   62.99    9.90
  -5  -7  -8   65.09   12.30
   5   7   8   66.19    8.40
   6  -7   8    2.70    3.20
  -6  -7  -8    0.20    6.20
   6  -7   8    1.70    3.80
   6   7   8    2.40    2.50
   7  -7   8   21.50    6.40
  -7  -7  -8   18.00    9.20
   8  -7   8   10.70    5.20
  -8  -7  -8   -0.30    7.70
   8   7   8    5.90    3.90
   9  -7   8    9.60    5.60
  -9  -7  -8   17.80   11.20
   9   7   8    8.30    4.50
 -10  -7  -8   -4.20    8.80
  10  -7   8    6.00    5.80
  10   7   8    2.80    4.20
 -11  -7  -8   -0.90   10.50
  11  -7   8    9.10    6.80
  11   7   8   17.00    6.90
  13  -8  -8    3.60    8.50
 -13  -8   8    2.80   10.90
 -13   8   8   10.50   10.20
 -12  -8   8   20.10   13.60
  12  -8  -8    6.30    8.00
 -12   8   8    1.60    8.10
 -11  -8   8    8.10    9.50
  11  -8  -8   -2.70    6.80
 -11   8   8    0.90    8.10
  10  -8  -8   11.30    7.70
 -10  -8   8   -5.00    9.00
 -10   8   8    4.80    7.20
   9  -8  -8    0.70    5.10
  -9  -8   8    7.70    9.10
  -9   8   8    8.00    6.30
  -8  -8   8  238.08   31.30
   8  -8  -8  271.37   27.80
  -8   8   8  303.37   25.90
   7  -8  -8   40.40    9.30
  -7  -8   8   27.80   10.70
   6  -8  -8  139.19   11.20
  -6  -8   8  110.49   19.10
   6  -8  -8  122.29   15.60
  -6   8   8  166.28   18.60
  -5  -8   8  123.69   18.30
   5  -8  -8  114.09   11.80
   5  -8  -8  103.69   14.30
  -5   8   8  137.69   15.40
  -4  -8   8   71.89   13.40
   4  -8  -8   44.20    8.70
   4  -8  -8   70.39    9.20
  -4   8   8   66.29    9.70
   3  -8  -8   39.00    7.50
  -3  -8   8   36.80    7.20
  -3  -8   8   31.90    9.70
  -3   8   8   30.30    6.50
   2  -8  -8   25.10    5.90
  -2  -8   8   19.60    5.30
   2  -8  -8   37.20    7.30
  -2  -8   8   27.20    8.20
  -1  -8   8   22.60    5.50
   1  -8  -8   29.90    6.30
  -1  -8   8   42.60    8.60
   1  -8  -8   31.10    7.00
  -1   8   8   26.60    5.50
   0  -8   8  817.82   48.10
   0  -8  -8  739.13   47.00
   0  -8  -8  753.72   45.70
   0  -8   8  800.62   46.70
   0   8   8  787.92   44.50
   1  -8   8  464.85   29.80
  -1  -8  -8  462.75   28.70
  -1  -8  -8  511.35   31.60
   1  -8   8  445.86   30.50
   1   8   8  437.76   27.20
   2  -8   8   19.00    5.80
  -2  -8  -8   17.10    4.10
  -2  -8  -8   23.60    6.60
   2   8   8   16.60    3.50
  -3  -8  -8   11.80    3.50
   3  -8   8   14.40    4.50
  -3  -8  -8    7.60    5.50
   3  -8   8   13.40    4.60
   3   8   8   13.00    3.30
  -4  -8  -8   19.80    7.20
   4  -8   8   14.60    5.00
   4  -8   8   11.40    4.40
  -4  -8  -8   14.10    3.70
   4   8   8   11.30    3.30
  -5  -8  -8  549.25   37.70
   5  -8   8  517.65   33.90
   5  -8   8  506.55   34.50
   5   8   8  541.95   32.30
  -6  -8  -8   12.80    7.50
   6  -8   8    7.50    4.90
   6  -8   8   11.00    4.60
   6   8   8   15.00    4.30
   7  -8   8   32.80    8.20
  -7  -8  -8   25.70   10.10
   7   8   8   35.50    6.80
  -8  -8  -8   55.69   15.00
   8  -8   8   40.50    9.10
   8   8   8   39.70    7.60
  -9  -8  -8   -2.70    9.40
   9  -8   8   20.30    7.10
   9   8   8    0.20    2.40
  10  -8   8   21.50    8.30
 -10  -8  -8   16.00   11.50
  10   8   8   20.80    6.70
 -13  -9   8   -1.60    9.50
 -13   9   8    1.30    8.70
 -12  -9   8   28.10   15.40
  12  -9  -8   54.79   14.20
 -12   9   8   23.60   10.50
  11  -9  -8   26.30    9.80
 -11  -9   8   17.90   12.80
 -11   9   8   30.10   10.70
 -10  -9   8   22.40   12.90
  10  -9  -8   19.40    8.60
 -10   9   8   24.30    9.40
   9  -9  -8  117.99   17.40
  -9  -9   8   87.69   19.60
  -9   9   8   88.79   14.50
   8  -9  -8   14.10    7.10
  -8  -9   8   14.00   10.00
  -8   9   8    0.00    3.70
  -7  -9   8   -0.20    7.60
   7  -9  -8   -1.30    4.70
  -7   9   8    0.30    5.00
   6  -9  -8  425.76   27.50
   6  -9  -8  441.66   32.40
  -6  -9   8  415.36   36.30
  -6   9   8  506.85   33.10
   5  -9  -8   56.09   10.10
  -5  -9   8   61.59   13.80
   5  -9  -8   56.69    8.40
  -5   9   8   75.49   10.90
  -4  -9   8   50.39   12.50
   4  -9  -8   41.30    7.60
  -4  -9   8   41.80    8.40
   4  -9  -8   34.80    8.00
  -4   9   8   27.10    6.30
  -3  -9   8  273.27   20.70
  -3  -9   8  288.27   24.20
   3  -9  -8  263.47   20.50
  -3   9   8  245.48   18.90
  -2  -9   8   64.79    9.50
   2  -9  -8   80.49   10.80
  -2  -9   8   62.99   11.50
   2  -9  -8   89.09   11.50
  -2   9   8   83.79   10.30
   1  -9  -8   76.49   10.60
  -1  -9   8   61.49   10.10
  -1  -9   8   65.29    9.40
   1  -9  -8   54.79    8.60
  -1   9   8   50.69    6.70
   0  -9   8  106.19   12.20
   0  -9  -8  132.19   14.90
   0  -9   8  153.58   15.30
   0  -9  -8  117.59   12.20
   0   9   8  116.99    9.10
   1  -9   8  312.37   21.90
  -1  -9  -8  315.17   21.10
   1  -9   8  323.97   22.60
  -1  -9  -8  282.37   22.60
   1   9   8  298.77   18.70
   2  -9   8  128.29   13.40
  -2  -9  -8  106.29   14.00
   2  -9   8  114.69   13.30
  -2  -9  -8  108.39   11.10
   2   9   8  112.69    8.70
  -3  -9  -8   12.10    4.10
   3  -9   8   12.20    4.70
  -3  -9  -8    7.90    5.20
   3  -9   8    9.10    4.10
   3   9   8   21.30    3.80
   4  -9   8  130.29   14.60
   4  -9   8  128.49   14.50
  -4  -9  -8  133.79   11.10
  -4  -9  -8  128.29   17.60
   4   9   8  140.79   10.70
  -5  -9  -8  315.77   26.70
   5  -9   8  319.27   23.80
   5  -9   8  331.57   23.90
   5   9   8  312.87   21.10
  -6  -9  -8  107.79   17.80
   6  -9   8  129.49   14.50
   6  -9   8  115.89   14.50
   6   9   8  103.29   11.60
   7  -9   8   55.09   10.10
  -7  -9  -8   50.49   13.40
   7   9   8   71.69    9.40
   8  -9   8   88.99   13.50
  -8  -9  -8   48.00   14.20
   8   9   8   57.99    9.20
   9  -9   8   22.70    7.80
  -9  -9  -8    5.10    9.60
   9   9   8   11.10    5.50
  10  -9   8   52.99   11.90
 -10  -9  -8   50.79   15.80
  12 -10  -8    6.90    9.30
 -12 -10   8   25.70   16.00
 -12  10   8    4.70    9.20
  11 -10  -8   19.90    9.60
 -11 -10   8   39.10   15.10
 -11  10   8    6.40    8.20
 -10 -10   8  280.87   38.60
  10 -10  -8  434.36   33.70
  -9 -10   8   38.60   15.20
   9 -10  -8   73.09   15.00
  -8 -10   8   -8.30    7.00
   8 -10  -8    4.40    6.10
  -8  10   8    2.90    5.80
   7 -10  -8  323.67   28.30
  -7 -10   8  379.46   38.70
  -7  10   8  384.96   29.60
   6 -10  -8   89.39   11.00
  -6 -10   8   98.19   17.70
   6 -10  -8  110.99   15.90
  -6  10   8  113.89   14.90
   5 -10  -8   68.19    9.60
   5 -10  -8   56.69   10.70
  -5 -10   8   52.99    9.90
  -5 -10   8   72.09   14.60
  -5  10   8   79.69   11.10
   4 -10  -8   99.49   13.70
  -4 -10   8   91.49   13.20
  -4 -10   8   80.99   15.00
   4 -10  -8   99.49   11.90
  -4  10   8  107.09   11.80
   3 -10  -8   -0.30    2.40
  -3 -10   8    5.00    6.50
   3 -10  -8   10.50    5.00
  -3 -10   8    7.40    4.20
  -3  10   8    7.00    4.00
  -2 -10   8   48.30    8.30
   2 -10  -8   48.90    8.70
  -2 -10   8   52.49   10.50
   2 -10  -8   43.70    8.40
  -2  10   8   39.80    6.70
   1 -10  -8   23.10    6.10
  -1 -10   8   18.80    5.60
   1 -10  -8   18.60    5.10
  -1 -10   8   21.70    6.30
   0 -10   8  215.58   16.70
   0 -10  -8  156.48   17.80
   0 -10   8  214.28   16.70
   0 -10  -8  196.38   15.90
   1 -10   8  106.19   12.80
  -1 -10  -8  118.39   12.00
  -1 -10  -8   87.89   13.00
   1 -10   8  103.49   12.60
  -2 -10  -8   71.09   12.20
   2 -10   8   86.09   11.10
  -2 -10  -8   94.59   10.30
   2 -10   8  101.69   12.30
   3 -10   8   28.40    6.60
   3 -10   8   27.70    6.90
  -3 -10  -8   31.00    9.10
  -3 -10  -8   30.70    6.00
   4 -10   8  298.57   23.10
   4 -10   8  295.67   22.50
  -4 -10  -8  315.37   25.80
  -4 -10  -8  330.07   21.40
  -5 -10  -8   94.99   15.20
   5 -10   8   97.79   13.10
   5 -10   8  112.09   14.10
  -6 -10  -8   16.00    7.80
   6 -10   8   12.60    5.60
   6 -10   8   14.60    5.40
  -7 -10  -8   61.99   14.20
   7 -10   8   45.70    9.00
   8 -10   8   25.10    8.10
  -8 -10  -8   27.20   12.10
   9 -10   8  129.19   16.90
  -9 -10  -8   82.49   18.50
  10 -10   8    1.70    5.60
 -12 -11   8   13.10   15.20
 -12  11   8   13.00   10.30
  11 -11  -8    6.70    8.00
 -11 -11   8    2.80   10.70
 -11  11   8   30.10   11.30
  10 -11  -8   38.10   12.50
 -10 -11   8   42.60   17.20
   9 -11  -8  115.89   17.80
  -9 -11   8   97.69   21.30
  -9  11   8  112.59   17.20
  -8 -11   8    2.40    9.30
   8 -11  -8    5.40    6.40
  -8  11   8    8.20    6.30
  -7 -11   8   16.30   10.40
   7 -11  -8    1.90    5.70
  -7  11   8    9.90    7.00
  -6 -11   8   99.79   15.00
  -6 -11   8  108.29   19.20
   6 -11  -8  136.69   17.60
  -6  11   8  128.69   16.00
   5 -11  -8    2.70    4.60
  -5 -11   8   10.00    5.30
   5 -11  -8   15.90    6.30
  -5 -11   8    9.00    7.50
  -5  11   8    3.20    4.00
   4 -11  -8  212.98   17.40
  -4 -11   8  222.58   21.90
  -4 -11   8  239.08   24.80
   4 -11  -8  234.68   19.90
  -3 -11   8  481.35   33.10
   3 -11  -8  455.05   32.90
  -3 -11   8  509.45   35.20
  -2 -11   8   85.39   12.20
  -2 -11   8   64.19   10.20
   2 -11  -8   74.29   11.10
   2 -11  -8   77.79   11.30
   1 -11  -8  128.39   13.60
   1 -11  -8   78.19   12.30
  -1 -11   8  104.49   12.80
  -1 -11   8  125.79   13.90
   0 -11   8    9.50    4.20
   0 -11   8    8.60    4.30
   0 -11  -8   13.00    5.80
   0 -11  -8   12.60    4.60
   1 -11   8   84.19   11.00
  -1 -11  -8   86.59   10.80
  -1 -11  -8  112.99   14.40
   1 -11   8   94.39   12.10
   2 -11   8    7.70    4.70
  -2 -11  -8    0.20    3.40
  -2 -11  -8   -2.60    4.40
   2 -11   8   -2.30    2.70
  -3 -11  -8   68.69   12.50
   3 -11   8   53.39    9.50
  -3 -11  -8   57.69    8.50
   3 -11   8   56.29    9.00
  -4 -11  -8   69.69    9.20
   4 -11   8   56.59    9.70
  -4 -11  -8   61.19   12.10
   4 -11   8   92.79   12.70
  -5 -11  -8   89.99   15.80
   5 -11   8   97.69   13.70
   5 -11   8   92.49   12.50
  -6 -11  -8   15.10    8.70
   6 -11   8   32.10    7.90
   6 -11   8   34.30    7.90
   7 -11   8    6.20    5.40
  -7 -11  -8    3.20    8.20
  -8 -11  -8   95.79   18.80
   8 -11   8  102.79   14.90
  -9 -11  -8   15.30   11.60
   9 -11   8   12.70    6.60
  11 -12  -8   16.90    9.80
 -11 -12   8   12.40   13.30
 -11  12   8    3.90    8.40
  10 -12  -8    5.70    7.10
 -10 -12   8    5.10   13.20
  -9 -12   8    5.50    7.00
  -9 -12   8   11.40   12.90
   9 -12  -8    0.20    5.80
  -8 -12   8  120.19   22.10
   8 -12  -8  126.39   19.40
  -8 -12   8  141.79   19.20
  -7 -12   8    9.00    9.80
  -7 -12   8   13.00    6.70
   7 -12  -8    3.50    5.90
  -6 -12   8   43.30   10.10
  -6 -12   8   52.39   14.00
   6 -12  -8   40.00   10.10
   5 -12  -8  130.19   14.20
   5 -12  -8  141.19   18.50
  -5 -12   8  144.59   20.00
  -5 -12   8  150.38   18.40
  -4 -12   8   82.49   14.80
   4 -12  -8   99.59   12.50
  -4 -12   8   86.59   13.10
   4 -12  -8   72.49   12.00
   3 -12  -8   61.29   11.30
  -3 -12   8   77.39   11.90
   3 -12  -8   79.09   11.30
  -3 -12   8   75.09   13.00
  -2 -12   8 1219.08   71.39
   2 -12  -8 1184.18   70.99
   2 -12  -8 1209.58   70.09
  -2 -12   8 1182.78   70.19
  -1 -12   8   71.69   10.40
   1 -12  -8   55.49    9.60
  -1 -12   8   45.50    9.10
   1 -12  -8   63.39   10.90
   0 -12   8  105.39   12.80
   0 -12  -8  109.89   12.80
   0 -12  -8  114.19   15.10
   0 -12   8   85.29   12.40
  -1 -12  -8   41.10    9.60
  -1 -12  -8   50.19    8.40
   1 -12   8   43.20    7.90
   1 -12   8   46.20    8.80
   2 -12   8   14.60    5.50
   2 -12   8    7.80    4.80
  -2 -12  -8   11.20    6.90
  -2 -12  -8    9.20    4.60
   3 -12   8   53.99    9.30
   3 -12   8   73.09   11.60
  -3 -12  -8   59.99   12.10
  -3 -12  -8   74.89   10.00
  -4 -12  -8   14.10    7.50
   4 -12   8   10.00    5.30
   4 -12   8    3.80    4.60
  -4 -12  -8    3.60    4.10
  -5 -12  -8   -0.70    6.30
   5 -12   8   11.60    5.50
   5 -12   8    6.20    5.00
   6 -12   8   65.19   12.70
  -6 -12  -8   63.19   13.80
   6 -12   8   73.99   11.30
   7 -12   8   18.90    9.10
   7 -12   8   11.40    5.80
  -7 -12  -8   27.20   10.40
  -8 -12  -8   35.20   13.40
   8 -12   8   54.19   10.80
   9 -12   8    3.70    6.00
 -10 -13   8   22.30   14.60
  10 -13  -8    6.90    9.20
 -10 -13   8    8.90    7.90
  -9 -13   8   -4.70   10.90
   9 -13  -8    5.00    7.30
  -9 -13   8    0.30    6.90
   8 -13  -8    2.20    6.80
  -8 -13   8   38.30   14.20
  -8 -13   8   28.30    9.80
  -7 -13   8  104.79   18.90
   7 -13  -8  132.39   19.90
  -7 -13   8  120.59   18.00
  -6 -13   8   19.40    7.30
   6 -13  -8   15.90    7.50
  -6 -13   8   39.30   11.60
   5 -13  -8  164.78   20.20
   5 -13  -8  198.28   16.20
  -5 -13   8  208.38   24.10
  -5 -13   8  154.68   19.20
   4 -13  -8  109.99   13.60
  -4 -13   8  115.69   16.30
  -4 -13   8  106.59   15.10
   4 -13  -8  114.79   16.00
   3 -13  -8 1090.89   66.59
  -3 -13   8 1086.39   65.39
  -3 -13   8 1122.69   66.79
   3 -13  -8 1067.49   64.29
  -2 -13   8   75.99   12.00
   2 -13  -8   71.89   11.80
   2 -13  -8   81.29   12.50
  -2 -13   8  106.79   12.60
   1 -13  -8   19.00    6.20
  -1 -13   8   13.60    6.20
  -1 -13   8   10.70    5.30
   1 -13  -8   13.20    6.90
   0 -13   8  138.29   14.90
   0 -13   8  172.28   17.90
   0 -13  -8  143.79   17.50
   0 -13  -8  139.79   15.60
   1 -13   8    9.60    4.70
  -1 -13  -8   15.00    5.70
  -1 -13  -8    2.60    6.30
   1 -13   8   12.10    5.40
   2 -13   8    3.40    3.90
   2 -13   8    3.70    4.40
  -2 -13  -8    2.80    4.10
  -2 -13  -8   -3.30    5.40
  -3 -13  -8   -1.60    3.40
   3 -13   8    4.30    4.90
   3 -13   8    1.20    4.10
  -3 -13  -8   -2.70    5.60
   4 -13   8  234.38   23.60
  -4 -13  -8  238.38   18.80
  -4 -13  -8  235.98   25.90
   4 -13   8  234.48   19.10
   5 -13   8    9.10    6.70
  -5 -13  -8   16.60    9.00
   5 -13   8   25.20    7.30
  -6 -13  -8    7.30    7.40
   6 -13   8    7.70    5.90
   6 -13   8   12.50    5.70
   7 -13   8   -1.50    4.60
  -7 -13  -8    8.20    8.50
   7 -13   8    9.70    7.00
  -8 -13  -8   14.60   10.30
   8 -13   8   10.80    6.50
   9 -14  -8  215.48   26.90
  -9 -14   8  161.58   22.60
   8 -14  -8   16.60   10.20
  -8 -14   8   11.70    7.80
  -7 -14   8   28.00    9.20
   7 -14  -8   11.20    7.80
   6 -14  -8   72.69   14.40
  -6 -14   8   40.70   10.70
   5 -14  -8   -5.10    4.60
  -5 -14   8    9.20    6.50
   4 -14  -8   50.49   11.00
  -4 -14   8   53.89   11.50
  -4 -14   8   55.29   16.40
   4 -14  -8   50.99   10.10
   3 -14  -8   25.30    7.50
  -3 -14   8   21.10    6.70
  -3 -14   8   13.50    5.90
   3 -14  -8   26.20    8.00
  -2 -14   8   82.69   11.60
   2 -14  -8  123.79   15.40
  -2 -14   8   84.19   13.00
   2 -14  -8   86.79   13.10
   1 -14  -8   72.89   11.80
   1 -14  -8   89.09   13.90
  -1 -14   8   90.89   11.40
  -1 -14   8   78.69   12.00
   0 -14   8   48.50    9.70
   0 -14   8   45.80    8.30
   0 -14  -8   60.09    9.80
   0 -14  -8   35.30    9.30
   1 -14   8   38.80    7.60
   1 -14   8   51.39    9.60
  -1 -14  -8   23.20    8.80
  -1 -14  -8   38.90    8.70
   2 -14   8    3.30    4.10
   2 -14   8   16.00    6.90
  -2 -14  -8    9.40    5.70
  -2 -14  -8    2.00    6.90
  -3 -14  -8  235.48   26.30
  -3 -14  -8  229.18   19.50
   3 -14   8  208.58   18.10
   3 -14   8  276.07   25.30
   4 -14   8   44.00    8.60
  -4 -14  -8   35.70   11.00
  -4 -14  -8   28.90    7.30
   4 -14   8   35.30    9.40
  -5 -14  -8   47.50   12.50
   5 -14   8   38.90    8.40
   5 -14   8   60.69   12.60
   6 -14   8    7.80    5.70
  -6 -14  -8   15.30    9.80
   6 -14   8    1.30    5.80
  -7 -14  -8   -6.70    7.20
   7 -14   8   -1.00    5.20
   7 -14   8   -2.80    4.40
  -9 -15   8  253.07   30.40
   9 -15  -8  310.07   33.50
   8 -15  -8  144.69   21.70
  -8 -15   8  154.58   22.00
   7 -15  -8   22.70    9.30
  -7 -15   8   32.10   10.00
   6 -15  -8    2.90    7.40
  -6 -15   8    0.00    5.30
   5 -15  -8   56.69   12.40
  -5 -15   8  110.29   16.20
  -4 -15   8   23.20    7.60
   4 -15  -8   25.80    7.90
   4 -15  -8   19.10    8.40
   3 -15  -8   19.70    7.70
   3 -15  -8   24.50    8.30
  -3 -15   8   42.00    9.40
  -2 -15   8   30.70    8.60
   2 -15  -8   15.80    7.20
   2 -15  -8   37.20    9.30
   1 -15  -8  123.29   16.30
  -1 -15   8  101.79   14.70
   1 -15  -8   78.39   13.30
   0 -15   8    4.50    5.20
   0 -15  -8   15.00    6.30
   0 -15  -8    5.90    7.10
  -1 -15  -8   -3.10    6.30
   1 -15   8   -0.20    4.30
  -1 -15  -8   -3.50    4.20
   2 -15   8    6.40    6.00
  -2 -15  -8    5.60    5.50
  -2 -15  -8    3.30    7.30
  -3 -15  -8    7.50    7.60
   3 -15   8   -0.80    5.00
   3 -15   8    5.00    6.80
  -3 -15  -8    7.80    5.60
   4 -15   8  173.48   18.30
   4 -15   8  169.08   21.30
  -4 -15  -8  184.28   24.00
  -4 -15  -8  158.58   18.40
   5 -15   8  100.79   16.70
  -5 -15  -8  125.29   19.60
   5 -15   8   94.69   12.60
   6 -15   8  208.08   25.10
   6 -15   8  156.38   18.10
  -6 -15  -8  142.19   22.90
  -7 -16   8   -1.10    6.70
   7 -16  -8   11.30    9.50
  -6 -16   8   17.10    8.50
   6 -16  -8   17.70    9.80
   5 -16  -8   -4.40    5.60
  -5 -16   8    0.20    5.30
  -4 -16   8   73.69   13.10
   4 -16  -8   39.50   10.90
   4 -16  -8   44.70   10.20
  -3 -16   8   33.80    9.20
   3 -16  -8   38.00   10.00
   3 -16  -8   35.20   10.10
   2 -16  -8   58.29   11.40
   2 -16  -8   77.99   13.60
  -2 -16   8   78.49   13.60
   1 -16  -8    6.90    6.80
  -1 -16   8    8.10    6.00
   1 -16  -8    9.00    7.50
   0 -16  -8   10.00    6.10
   0 -16  -8   -0.50    6.80
   0 -16   8    3.30    5.30
   1 -16   8   -2.10    4.00
  -1 -16  -8   -6.70    4.10
  -1 -16  -8    0.40    7.10
  -2 -16  -8   39.40   11.70
  -2 -16  -8   27.80    8.50
   2 -16   8   23.10    8.20
  -3 -16  -8   13.40    9.00
   3 -16   8    6.80    6.60
  -3 -16  -8    7.80    6.10
   4 -16   8   18.50    8.30
  -4 -16  -8   18.40   10.30
  -5 -16  -8  173.18   25.70
   5 -16   8  241.68   26.40
   6 -17  -8   -4.90    7.30
  -6 -17   8    0.60    6.10
   5 -17  -8   30.70   11.20
  -5 -17   8   12.10    8.10
   4 -17  -8   56.39   13.30
  -4 -17   8   91.19   15.10
   3 -17  -8    6.70    7.70
   3 -17  -8    3.70    7.60
  -3 -17   8    3.10    6.40
  -2 -17   8   12.60    6.40
   2 -17  -8   21.60    9.10
   2 -17  -8    2.10    6.40
   1 -17  -8   95.59   15.20
   1 -17  -8   93.19   16.20
  -1 -17   8  153.88   18.70
   0 -17   8   28.40    8.80
   0 -17  -8   12.20    6.90
   0 -17  -8   13.70    9.10
  -1 -17  -8    4.10    6.30
   1 -17   8    1.90    5.70
  -1 -17  -8    0.20    7.50
  -2 -17  -8   -2.50    5.30
  -2 -17  -8    1.20    8.30
   2 -17   8    2.10    6.20
  -3 -17  -8   86.59   17.40
  -3 -17  -8   82.19   13.70
   3 -17   8  103.99   16.20
   4 -18  -8   34.20   11.40
  -4 -18   8   42.20   11.40
   3 -18  -8   11.10    8.60
  -3 -18   8   15.30    7.80
   3 -18  -8   25.50   10.40
  -2 -18   8   82.39   14.30
   2 -18  -8   84.39   14.70
   2 -18  -8   89.49   15.80
   1 -18  -8   27.50   10.20
   1 -18  -8   19.60   10.50
  -1 -18   8   23.30    8.80
   0 -18   8  180.28   21.40
   0 -18  -8  175.78   21.40
   0 -18  -8  160.78   22.20
   1 -18   8   25.70    8.80
  -1 -18  -8   25.80    9.20
  -1 -18  -8   62.29   13.30
 -14   0   9   34.90   14.60
 -13   0   9   28.40   12.70
 -12   0   9   15.20   10.20
 -11   0   9  881.01   62.99
 -10   0   9   21.30    9.80
  -9   0   9  548.65   42.90
  -8   0   9    2.50    5.40
  -7   0   9  118.49   17.20
  -6   0   9   15.80    7.40
  -5   0   9 1781.22  104.29
  -4   0   9    6.80    5.20
  -3   0   9   95.39   14.30
  -2   0   9    7.10    5.30
   2   0  -9   10.30    4.90
  -1   0   9   29.40    8.30
   1   0  -9   23.40    6.10
   0   0   9   15.80    5.60
   0   0  -9    5.10    4.30
  -1   0  -9  689.23   41.80
   1   0   9  665.93   42.90
  -2   0  -9    1.30    4.80
   2   0   9    2.30    3.20
  -3   0  -9  365.86   26.90
   3   0   9  404.96   26.90
  -4   0  -9    2.90    4.70
   4   0   9    5.70    3.40
  -5   0  -9   54.99   10.50
   5   0   9   45.80    8.30
  -6   0  -9    2.40    5.70
   6   0   9    3.80    3.30
  -7   0  -9  213.98   22.90
   7   0   9  204.78   17.60
  -8   0  -9   17.20    8.10
   8   0   9    6.60    4.40
   9   0   9  699.53   47.50
  -9   0  -9  804.62   51.29
  10   0   9    9.20    5.60
 -10   0  -9   46.80   14.30
  11   0   9   71.29   12.70
 -14  -1   9   62.49   19.60
 -14   1   9   76.99   20.30
 -13  -1   9   48.00   16.00
 -13   1   9   56.39   16.00
 -12  -1   9  382.76   42.80
 -12   1   9  428.96   44.10
 -11  -1   9  330.47   36.40
 -11   1   9  257.07   33.80
 -10  -1   9    0.70    6.70
  10  -1  -9    4.90    4.70
 -10   1   9   25.80   10.80
  -9  -1   9   10.20    7.20
   9  -1  -9    8.20    5.20
  -9   1   9   16.10    8.20
   8  -1  -9  332.97   26.30
  -8  -1   9  378.96   31.70
  -8   1   9  360.96   35.60
  -7  -1   9    1.90    5.50
   7  -1  -9   -2.00    3.60
  -7   1   9   -1.50    4.70
  -6  -1   9    7.70    6.10
   6  -1  -9    9.20    4.50
  -6   1   9   28.40    9.20
   5  -1  -9 1430.56   87.59
  -5  -1   9 1603.74   92.19
  -5   1   9 1615.34   91.59
   4  -1  -9 1665.23   97.99
  -4  -1   9 1747.23  101.79
  -4   1   9 1843.52  101.39
   3  -1  -9   87.49   10.50
  -3  -1   9   51.39   10.90
   3  -1  -9   71.79    9.50
  -3   1   9   82.19   12.00
   2  -1  -9  242.18   17.20
  -2  -1   9  283.77   26.10
   2  -1  -9  223.88   17.40
  -2   1   9  216.48   22.10
   1  -1  -9   10.20    4.40
  -1  -1   9    8.60    5.70
   1   1  -9    8.20    4.60
  -1   1   9    5.60    5.30
   0  -1   9  395.56   29.30
   0  -1  -9  401.36   27.20
   0   1   9  446.56   29.70
   0   1  -9  405.96   27.40
  -1  -1  -9    7.50    4.60
   1  -1   9   12.00    5.20
   1   1   9    0.20    3.20
  -1   1  -9    4.90    4.60
  -2  -1  -9  254.57   19.50
   2  -1   9  240.28   19.50
   2  -1   9  257.77   14.80
  -2   1  -9  242.98   19.20
   2   1   9  227.78   18.80
  -3  -1  -9  833.32   51.99
   3  -1   9  887.41   51.99
  -3   1  -9  853.31   51.69
   3   1   9  838.32   51.09
   4  -1   9   65.69    9.80
  -4  -1  -9   74.59   12.50
   4   1   9   70.29   10.20
  -4   1  -9   63.69   11.30
   5  -1   9    6.70    3.90
  -5  -1  -9   -0.80    5.40
   5   1   9   -1.10    2.60
  -5   1  -9    0.60    5.40
  -6  -1  -9  193.68   22.60
   6  -1   9  229.78   18.60
   6   1   9  223.38   18.00
  -6   1  -9  241.28   20.40
   7  -1   9    5.00    3.70
  -7  -1  -9    4.20    7.00
   7   1   9    3.60    3.30
  -7   1  -9    8.70    6.80
   8  -1   9   44.20    9.20
  -8  -1  -9   48.10   12.00
  -8   1  -9   48.70   11.80
   8   1   9   46.30    9.10
  -9  -1  -9   40.80   11.80
   9  -1   9   42.00    9.40
  -9   1  -9   52.99   13.10
   9   1   9   53.99   10.40
 -10  -1  -9  680.43   46.80
  10  -1   9  625.04   42.90
  10   1   9  608.14   42.20
 -10   1  -9  620.24   44.90
  11  -1   9    1.00    4.20
  11   1   9    0.10    4.60
 -14  -2   9    8.00   10.90
 -14   2   9    4.70   10.00
 -13  -2   9   -4.40    7.40
 -13   2   9    3.90    8.60
 -12  -2   9   45.20   15.00
  12  -2  -9   79.49   14.90
 -12   2   9   85.29   17.80
 -11  -2   9  158.58   25.70
  11  -2  -9  190.28   21.70
 -11   2   9  179.78   25.00
  10  -2  -9  103.39   15.10
 -10  -2   9   72.69   17.20
 -10   2   9  109.59   19.50
   9  -2  -9  269.57   23.80
  -9  -2   9  299.77   34.00
  -9   2   9  345.67   34.80
  -8  -2   9   80.99   16.10
   8  -2  -9   79.29   12.60
  -8   2   9  103.59   17.70
  -7  -2   9   99.29   17.40
   7  -2  -9  116.89   14.90
  -7   2   9  162.58   20.60
   6  -2  -9  563.54   38.70
  -6  -2   9  657.83   44.00
  -6   2   9  574.74   41.50
  -5  -2   9  563.24   39.20
   5  -2  -9  512.25   35.20
  -5   2   9  538.75   37.60
  -4  -2   9  848.22   52.69
   4  -2  -9  736.03   48.40
  -4   2   9  839.22   50.99
   3  -2  -9   77.39   10.50
   3  -2  -9   90.59   11.00
  -3  -2   9   61.09   11.50
  -3   2   9   78.99   11.80
   2  -2  -9   42.20    7.40
   2  -2  -9   44.60    7.40
  -2  -2   9   61.99   12.40
  -2   2   9   70.59   11.80
   1  -2  -9   26.90    5.50
  -1  -2   9   39.90    9.60
   1  -2  -9   26.80    6.30
  -1   2   9   41.30    9.20
   0  -2  -9   25.30    6.50
   0  -2   9   42.00    8.70
   0  -2  -9   21.60    4.40
   0   2  -9   16.20    5.80
   0   2   9   29.80    7.20
   1  -2   9   41.10    5.30
   1  -2   9   51.69    9.30
  -1  -2  -9   39.00    8.10
   1   2   9   49.40    9.10
  -1   2  -9   42.50    8.00
   2  -2   9    9.70    4.40
   2  -2   9   12.60    2.60
  -2  -2  -9   12.30    6.00
  -2   2  -9   11.00    5.80
   2   2   9    8.40    4.20
  -3  -2  -9 1213.28   71.19
   3  -2   9 1211.28   70.79
   3  -2   9 1178.48   64.99
  -3   2  -9 1264.97   70.69
   3   2   9 1199.08   69.59
   4  -2   9  727.63   45.60
  -4  -2  -9  725.23   46.60
   4   2   9  727.43   44.50
  -4   2  -9  752.52   45.90
   5  -2   9    9.30    4.40
  -5  -2  -9   16.20    7.00
   5   2   9   10.80    4.30
  -5   2  -9   32.90    7.90
  -6  -2  -9  181.88   21.70
   6  -2   9  217.88   17.90
   6   2   9  193.58   16.50
  -6   2  -9  219.18   19.10
  -7  -2  -9  248.78   27.20
   7  -2   9  259.47   21.40
  -7   2  -9  298.07   23.30
   7   2   9  265.17   20.60
  -8  -2  -9   12.90    9.10
   8  -2   9    1.40    3.80
   8   2   9    6.10    4.00
  -8   2  -9   15.30    8.30
  -9  -2  -9   12.20    9.60
   9  -2   9    5.20    4.70
  -9   2  -9   -5.80    7.30
   9   2   9    2.30    4.10
 -10  -2  -9   16.70   10.00
  10  -2   9   10.50    5.50
  10   2   9    7.10    4.90
 -11  -2  -9    5.60   10.80
  11  -2   9   -0.20    4.40
  11   2   9   -2.40    3.90
 -14  -3   9    1.40   10.10
 -14   3   9    9.20   11.90
 -13  -3   9   44.60   15.40
  13  -3  -9   29.40   11.30
 -13   3   9   53.19   15.50
 -12  -3   9   16.40   10.80
  12  -3  -9    7.20    7.70
 -12   3   9   31.10   12.50
 -11  -3   9   11.10   10.50
  11  -3  -9    9.90    6.30
 -11   3   9   27.70   10.70
 -10  -3   9   72.99   17.50
  10  -3  -9   57.19   11.00
 -10   3   9   48.60   13.70
   9  -3  -9  119.19   16.10
  -9  -3   9  102.09   19.30
  -9   3   9  160.78   22.00
  -8  -3   9   20.20    9.00
   8  -3  -9   16.10    6.60
  -8   3   9    1.90    6.10
  -7  -3   9  449.46   37.00
   7  -3  -9  424.06   32.20
  -7   3   9  488.05   35.70
  -6  -3   9  255.57   27.80
   6  -3  -9  236.58   20.40
  -6   3   9  234.98   24.60
   5  -3  -9  299.97   22.50
   5  -3  -9  268.47   19.30
  -5  -3   9  241.78   26.70
  -5   3   9  332.37   24.60
  -4  -3   9  665.93   44.70
   4  -3  -9  668.53   41.50
   4  -3  -9  589.64   38.60
  -4   3   9  734.93   43.30
  -3  -3   9  524.35   37.10
   3  -3  -9  545.75   32.40
   3  -3  -9  483.55   33.30
  -3   3   9  523.35   34.90
   2  -3  -9  424.76   27.20
   2  -3  -9  406.36   27.50
  -2  -3   9  437.16   32.10
  -2   3   9  407.46   29.80
   1  -3  -9   15.90    4.40
   1  -3  -9   17.80    5.70
  -1  -3   9   17.30    6.60
  -1   3   9   15.60    5.90
   0  -3   9  245.28   19.70
   0  -3  -9  256.47   18.10
   0  -3  -9  188.88   15.30
   0   3   9  222.88   18.30
  -1  -3  -9  349.67   23.00
  -1  -3  -9  391.96   26.20
   1  -3   9  362.06   26.80
   1  -3   9  379.16   22.80
   1   3   9  396.56   26.10
  -2  -3  -9 1633.34   86.59
  -2  -3  -9 1318.07   80.59
   2  -3   9 1529.25   81.79
   2  -3   9 1440.06   86.09
  -2   3  -9 1552.44   85.79
   2   3   9 1597.44   85.09
   3  -3   9  123.39    9.10
   3  -3   9  126.49   14.20
  -3  -3  -9  131.29   15.90
  -3   3  -9  161.68   17.10
   3   3   9  140.79   14.10
   4  -3   9   85.79    6.70
  -4  -3  -9   89.29   13.40
   4  -3   9   94.49   12.30
  -4   3  -9  133.99   15.00
   4   3   9  104.49   11.90
  -5  -3  -9  275.47   22.20
   5  -3   9  212.88   18.60
   5   3   9  238.38   18.20
  -5   3  -9  245.78   20.20
  -6  -3  -9   11.80    8.30
   6  -3   9   16.40    6.00
   6   3   9    9.50    4.40
  -6   3  -9   18.50    7.80
   7  -3   9    3.40    4.20
  -7  -3  -9    6.10    8.10
   7   3   9   -0.80    2.80
  -7   3  -9   11.50    6.70
   8  -3   9  253.87   20.70
  -8  -3  -9  211.08   26.20
  -8   3  -9  258.97   22.20
   8   3   9  227.08   19.30
  -9  -3  -9    2.90    8.50
   9  -3   9    7.20    4.90
   9   3   9    1.60    4.20
  -9   3  -9    9.80    9.60
  10  -3   9    5.30    5.00
 -10  -3  -9    9.50   10.00
  10   3   9   -2.10    3.30
 -11  -3  -9   25.80   12.40
  11  -3   9   55.59   11.90
  11   3   9   48.90   10.30
  14  -4  -9   27.30   11.60
 -14  -4   9   16.00   12.60
 -14   4   9   14.40   11.10
  13  -4  -9   13.90    8.60
 -13  -4   9    9.00   10.60
 -13   4   9   27.40   11.80
  12  -4  -9  458.75   35.20
 -12  -4   9  358.36   43.50
 -11  -4   9   19.60   11.40
  11  -4  -9   17.10    8.10
 -11   4   9   47.00   13.20
 -10  -4   9  127.49   22.40
  10  -4  -9  136.29   18.70
 -10   4   9  108.69   18.70
  -9  -4   9   32.50   11.00
   9  -4  -9   12.40    6.50
  -9   4   9   33.50   10.70
  -8  -4   9   16.20    9.50
   8  -4  -9    7.00    5.20
  -8   4   9    6.50    6.60
   7  -4  -9   44.30    9.70
  -7  -4   9   27.50   10.30
  -7   4   9   27.50    9.60
  -6  -4   9  105.49   17.60
   6  -4  -9  129.59   12.80
   6  -4  -9  141.09   16.50
  -6   4   9  109.79   15.90
   5  -4  -9   17.90    5.20
   5  -4  -9   22.60    6.70
  -5   4   9   19.20    7.00
   4  -4  -9  661.53   38.00
   4  -4  -9  604.84   40.10
  -4  -4   9  642.34   43.90
  -4   4   9  600.24   40.60
   3  -4  -9    8.60    4.30
   3  -4  -9   16.80    5.20
  -3  -4   9    3.40    5.50
  -3   4   9    7.70    4.70
  -2  -4   9   66.99   12.70
   2  -4  -9   68.59    9.50
   2  -4  -9   71.69    9.90
  -2   4   9   95.79   13.00
  -1  -4   9  240.38   23.80
   1  -4  -9  196.38   15.60
   1  -4  -9  214.58   16.70
  -1   4   9  201.58   20.70
   0  -4   9  106.09   14.10
   0  -4  -9   69.39    8.70
   0  -4   9   61.59    7.70
   0  -4  -9   83.69   11.50
   0   4   9   78.29   10.70
   1  -4   9    0.40    2.70
  -1  -4  -9    0.80    2.30
  -1  -4  -9   -2.30    3.50
   1  -4   9    2.50    1.80
   1   4   9    2.00    2.60
  -2  -4  -9  825.92   48.50
   2  -4   9  885.71   49.30
  -2  -4  -9  860.01   52.99
   2  -4   9  826.62   52.89
   2   4   9  949.21   51.49
   3  -4   9  201.28   17.00
  -3  -4  -9  227.38   18.80
   3  -4   9  193.38   13.70
   3   4   9  195.28   15.50
  -4  -4  -9   62.59   11.30
   4  -4   9   83.29   11.60
   4  -4   9   61.09    6.70
   4   4   9   67.99    8.80
   5  -4   9   11.40    4.50
  -5  -4  -9   14.40    7.80
   5   4   9    7.70    3.60
  -6  -4  -9   51.99   12.60
   6  -4   9   54.49   10.00
   6   4   9   49.70    8.50
  -7  -4  -9   37.20   12.50
   7  -4   9   64.19   10.80
   7   4   9   69.09   10.10
   8  -4   9    9.10    5.00
  -8  -4  -9    8.20   10.20
   8   4   9    7.00    3.90
  -9  -4  -9   67.19   16.00
   9  -4   9   68.09   12.40
   9   4   9   85.69   12.50
  10  -4   9   93.09   13.80
 -10  -4  -9   44.10   14.80
  10   4   9   81.39   12.80
 -11  -4  -9   27.70   13.60
  11  -4   9   16.70    7.30
  11   4   9   13.10    6.60
 -14  -5   9   13.80   13.10
 -14   5   9   23.30   11.90
  13  -5  -9   41.40   12.00
 -13  -5   9   11.10   10.60
 -13   5   9   30.90   12.00
 -12  -5   9   12.70   12.20
  12  -5  -9   30.40   10.70
 -12   5   9   43.90   13.80
  11  -5  -9   49.99   12.80
 -11  -5   9   14.00   10.00
 -11   5   9   25.20   10.50
 -10  -5   9    8.80    9.30
  10  -5  -9    3.70    6.40
 -10   5   9   14.80    8.80
   9  -5  -9  179.28   21.70
  -9  -5   9  173.68   26.20
  -9   5   9  279.17   29.10
   8  -5  -9  222.58   23.10
  -8  -5   9  173.78   25.50
  -8   5   9  190.08   23.60
   7  -5  -9  231.28   23.50
  -7  -5   9  241.38   29.20
  -7   5   9  208.68   23.80
   6  -5  -9   31.10    6.40
  -6  -5   9   36.20   12.00
   6  -5  -9   18.00    6.30
  -6   5   9   28.30    8.30
  -5  -5   9  128.29   19.70
   5  -5  -9  129.09   12.70
   5  -5  -9  103.99   14.20
  -5   5   9  132.59   16.50
   4  -5  -9  227.88   19.40
   4  -5  -9  252.87   17.80
  -4  -5   9  223.18   25.10
  -4   5   9  270.17   20.40
   3  -5  -9  141.29   15.00
   3  -5  -9  123.99   13.80
  -3  -5   9  152.08   19.70
   2  -5  -9    8.80    4.50
  -2  -5   9   10.70    6.50
   2  -5  -9    6.80    3.80
  -2   5   9    9.70    4.80
   1  -5  -9  197.98   16.10
   1  -5  -9  228.48   17.50
  -1  -5   9  254.37   24.90
  -1   5   9  218.18   18.30
   0  -5   9  374.76   23.70
   0  -5   9  384.96   27.40
   0  -5  -9  361.76   25.70
   0  -5  -9  360.06   23.80
   0   5   9  371.16   25.30
  -1  -5  -9   43.40    6.10
   1  -5   9   36.90    7.80
   1  -5   9   32.40    5.30
  -1  -5  -9   39.10    8.50
   1   5   9   42.20    6.90
  -2  -5  -9   15.50    6.00
   2  -5   9   20.50    4.30
  -2  -5  -9   15.80    3.70
   2  -5   9   15.00    5.30
   2   5   9    4.80    2.70
  -3  -5  -9   41.70    9.20
   3  -5   9   70.39   10.70
   3  -5   9   49.99    6.90
  -3  -5  -9   58.59    6.30
  -4  -5  -9  246.88   21.40
   4  -5   9  228.88   16.00
   4  -5   9  241.58   19.30
   4   5   9  238.48   17.30
   5  -5   9   13.60    4.60
  -5  -5  -9    7.70    6.60
   5  -5   9   13.00    5.30
   5   5   9   11.10    4.00
  -6  -5  -9  115.99   18.00
   6  -5   9  121.89   14.70
   6   5   9  116.99   13.00
   7  -5   9  139.29   16.40
  -7  -5  -9   95.09   17.10
   7   5   9  104.49   12.70
   8  -5   9   40.40    8.90
  -8  -5  -9   41.70   13.70
   8   5   9   42.50    8.00
  -9  -5  -9   14.90   10.00
   9  -5   9   12.60    6.20
   9   5   9   33.80    7.60
 -10  -5  -9   20.00   11.20
  10  -5   9   30.20    8.80
  10   5   9   37.90    8.70
 -11  -5  -9   23.10   13.50
  11  -5   9   26.20    9.00
  11   5   9   47.30   10.20
 -13  -6   9   92.79   21.50
  13  -6  -9  100.99   18.00
 -13   6   9   74.49   17.20
 -12  -6   9   26.30   13.80
  12  -6  -9   95.59   16.90
 -12   6   9   78.49   15.60
 -11  -6   9   16.40   10.20
  11  -6  -9   -0.70    6.30
 -11   6   9   25.30   10.80
  10  -6  -9   46.10   11.50
 -10  -6   9   47.60   15.40
 -10   6   9   43.80   12.50
  -9  -6   9   43.60   13.70
   9  -6  -9   15.00    7.50
  -9   6   9   29.40    9.80
  -8  -6   9   75.09   17.10
   8  -6  -9   66.79   12.60
  -8   6   9   99.49   16.80
  -7  -6   9   23.10   10.10
   7  -6  -9   30.20    6.20
   7  -6  -9   25.20    7.90
  -7   6   9   31.60    9.20
  -6  -6   9   60.19   13.80
   6  -6  -9   66.99   11.80
   6  -6  -9   61.19    8.70
  -6   6   9   87.99   13.60
   5  -6  -9   19.00    5.40
   5  -6  -9   25.30    7.00
  -5  -6   9   28.20    9.30
  -5   6   9   12.60    5.50
   4  -6  -9    5.60    4.00
  -4  -6   9    8.60    7.20
   4  -6  -9    1.70    3.60
  -4   6   9    7.80    4.20
   3  -6  -9   29.10    6.40
   3  -6  -9   32.70    7.30
  -3  -6   9   64.79   12.60
  -3   6   9   51.89    8.80
  -2  -6   9 1163.08   73.09
   2  -6  -9 1128.49   68.49
   2  -6  -9 1289.47   68.79
  -2   6   9 1165.18   69.89
  -1  -6   9  123.19   16.20
  -1  -6   9   96.99   11.10
   1  -6  -9   95.69   11.30
   1  -6  -9  123.19   14.00
  -1   6   9  106.39   13.30
   0  -6   9  661.03   40.30
   0  -6  -9  624.14   38.80
   0  -6  -9  545.95   36.10
   0   6   9  618.24   37.40
   1  -6   9   19.10    5.90
  -1  -6  -9    5.70    5.90
   1  -6   9   15.40    4.10
   1   6   9   15.10    4.20
  -2  -6  -9   16.30    6.60
  -2  -6  -9   16.50    3.80
   2  -6   9   27.30    7.20
   2  -6   9   20.10    4.50
   2   6   9   26.20    5.00
  -3  -6  -9  519.15   34.90
   3  -6   9  486.05   30.90
  -3  -6  -9  483.95   29.20
   3  -6   9  502.95   33.50
   3   6   9  527.55   31.10
   4  -6   9   53.09    9.00
   4  -6   9   53.49    7.40
  -4  -6  -9   43.60   10.20
   4   6   9   54.49    7.60
   5  -6   9    4.40    2.30
  -5  -6  -9    8.70    6.60
   5  -6   9    0.70    3.60
   5   6   9   -1.50    1.00
   6  -6   9    6.30    4.60
  -6  -6  -9   11.50    8.10
   6   6   9   16.50    4.60
  -7  -6  -9   52.99   13.20
   7  -6   9   69.39   11.40
   7   6   9   64.99    9.90
  -8  -6  -9    2.60    8.80
   8  -6   9    3.80    4.30
   8   6   9   10.90    4.80
  -9  -6  -9   22.00   10.70
   9  -6   9   16.50    6.90
   9   6   9   11.80    5.30
  10  -6   9   73.19   12.90
 -10  -6  -9   57.29   17.10
  10   6   9   63.59   11.20
  11  -6   9   82.29   14.90
  11   6   9   65.69   12.10
  13  -7  -9   65.39   16.40
 -13  -7   9   24.70   13.40
 -13   7   9   50.19   14.40
  12  -7  -9    0.80    6.90
 -12  -7   9   -2.90    8.90
 -12   7   9    8.50    9.00
 -11  -7   9   60.19   17.70
  11  -7  -9   92.29   17.70
 -11   7   9   74.09   15.50
 -10  -7   9    9.40   10.60
  10  -7  -9   -1.20    6.50
 -10   7   9    3.70    6.90
  -9  -7   9   48.90   15.20
   9  -7  -9   42.30   10.80
  -9   7   9   60.79   14.00
   8  -7  -9  221.78   24.70
  -8  -7   9  214.88   29.60
  -8   7   9  240.58   27.10
  -7  -7   9   34.70   12.20
   7  -7  -9   38.40    9.40
  -7   7   9   62.99   12.10
   6  -7  -9    0.40    3.60
  -6  -7   9    6.90    8.70
   6  -7  -9    4.20    4.60
  -6   7   9   -0.10    2.70
   5  -7  -9   81.69   12.70
  -5  -7   9  111.39   18.40
   5  -7  -9  108.49   11.70
  -5   7   9  106.29   13.90
   4  -7  -9   48.20    9.50
   4  -7  -9   51.79    8.30
  -4  -7   9   39.90   10.40
  -4   7   9   51.79    9.10
   3  -7  -9  881.81   50.49
   3  -7  -9  674.63   47.70
  -3  -7   9  868.11   54.79
  -3   7   9  914.01   50.39
   2  -7  -9  447.96   31.00
   2  -7  -9  541.05   31.70
  -2  -7   9  455.55   30.80
  -2  -7   9  446.06   34.80
  -2   7   9  487.35   32.20
   1  -7  -9   93.79   12.20
  -1  -7   9   69.09    9.30
   1  -7  -9   78.89   10.20
  -1  -7   9   80.39   12.50
  -1   7   9   89.29   11.40
   0  -7   9  429.56   29.30
   0  -7  -9  392.06   26.10
   0  -7   9  405.66   26.40
   0  -7  -9  377.76   28.10
   0   7   9  427.36   26.40
  -1  -7  -9 1492.45   88.89
   1  -7   9 1600.84   86.99
  -1  -7  -9 1564.14   85.89
   1  -7   9 1591.64   89.29
   1   7   9 1504.95   85.79
  -2  -7  -9   59.39    7.40
   2  -7   9   53.79    8.00
   2  -7   9   60.39   10.40
  -2  -7  -9   61.99   11.70
   2   7   9   82.99    8.70
  -3  -7  -9   34.10    9.20
  -3  -7  -9   29.30    4.60
   3  -7   9   20.10    6.00
   3  -7   9   27.90    5.80
   3   7   9   25.80    4.90
   4  -7   9    4.00    3.90
   4  -7   9    1.80    2.60
  -4  -7  -9    2.30    6.00
   4   7   9    0.80    2.10
  -5  -7  -9  150.88   20.60
   5  -7   9  154.38   17.30
   5  -7   9  160.58   13.30
   5   7   9  161.08   13.00
   6  -7   9    8.40    4.90
  -6  -7  -9    5.70    7.50
   6   7   9    5.20    3.40
  -7  -7  -9   41.40   12.50
   7  -7   9   51.39   10.00
   8  -7   9    0.30    4.00
  -8  -7  -9    5.30    9.00
   8   7   9   11.30    4.70
  -9  -7  -9    1.90    8.90
   9  -7   9    5.20    5.20
   9   7   9   19.40    6.30
  10  -7   9    3.50    5.50
 -10  -7  -9    8.10   11.30
  10   7   9    5.70    4.60
  13  -8  -9   -4.80    7.30
 -13  -8   9    0.40   11.70
 -13   8   9    2.80    8.60
  12  -8  -9   21.50   10.10
 -12  -8   9   31.10   15.30
 -12   8   9   24.80   11.60
  11  -8  -9   -3.10    6.50
 -11  -8   9   -1.30    9.90
 -11   8   9    2.10    8.00
  10  -8  -9   -2.00    5.40
 -10  -8   9   42.10   15.20
 -10   8   9    8.10    8.00
  -9  -8   9   49.80   15.40
   9  -8  -9   68.69   13.60
  -9   8   9   97.59   16.80
  -8  -8   9    2.50    9.10
   8  -8  -9    1.30    5.10
  -8   8   9    7.70    6.60
   7  -8  -9   24.40    8.40
  -7  -8   9   11.30    9.20
  -7   8   9    1.30    3.20
   6  -8  -9  172.38   13.80
   6  -8  -9  164.68   19.30
  -6  -8   9  184.18   24.40
  -6   8   9  160.08   19.10
   5  -8  -9   38.10    8.70
  -5  -8   9   25.90    9.70
   5  -8  -9   36.10    7.10
  -5   8   9   58.49    9.70
   4  -8  -9   22.00    6.20
  -4  -8   9   18.30    8.80
   4  -8  -9   10.40    5.50
  -4   8   9    2.60    3.90
   3  -8  -9  157.98   16.50
  -3  -8   9  211.18   23.20
   3  -8  -9  123.49   14.60
  -3   8   9  175.68   16.80
  -2  -8   9  521.95   35.20
   2  -8  -9  587.74   35.80
   2  -8  -9  559.64   35.70
  -2  -8   9  601.44   39.80
  -2   8   9  517.95   35.50
  -1  -8   9  233.58   20.60
  -1  -8   9  252.27   18.90
   1  -8  -9  241.78   18.70
   1  -8  -9  273.07   20.20
  -1   8   9  258.07   18.60
   0  -8  -9  849.22   51.69
   0  -8   9  796.92   49.90
   0  -8   9  872.11   52.49
   0  -8  -9  859.01   49.90
   0   8   9  854.91   48.80
  -1  -8  -9  100.59   13.70
  -1  -8  -9   85.99    9.70
   1  -8   9   93.29   12.70
   1   8   9   81.19    8.70
  -2  -8  -9   27.10    7.90
   2  -8   9   35.20    6.80
   2  -8   9   24.70    6.40
  -2  -8  -9   34.50    5.60
  -3  -8  -9    2.80    5.20
   3  -8   9    6.60    3.80
  -3  -8  -9    9.20    3.30
   3  -8   9    9.60    4.80
   3   8   9    6.00    2.70
   4  -8   9   91.39   12.40
  -4  -8  -9   75.59   14.40
   4  -8   9   81.49   10.70
   4   8   9   88.99    9.70
  -5  -8  -9  133.69   20.40
   5  -8   9  184.88   15.40
   5  -8   9  190.38   19.00
   5   8   9  181.18   14.00
  -6  -8  -9  229.08   27.30
   6  -8   9  260.37   21.10
   6   8   9  255.77   18.50
  -7  -8  -9   97.99   18.00
   7  -8   9  124.99   16.20
   7   8   9  138.19   14.10
  -8  -8  -9    1.20    7.90
   8  -8   9    5.70    4.60
   8   8   9   15.00    5.00
  -9  -8  -9    9.00   10.90
   9  -8   9   34.80    8.90
   9   8   9    9.50    4.30
 -10  -8  -9   43.50   15.70
  10  -8   9   83.09   14.10
  10   8   9   58.29   10.40
 -12  -9   9   14.80   13.10
  12  -9  -9   18.10    9.80
 -12   9   9    0.70    8.80
 -11  -9   9   26.30   14.40
  11  -9  -9   42.30   13.20
 -11   9   9   27.00   11.50
 -10  -9   9  178.68   28.70
  10  -9  -9  173.08   23.20
 -10   9   9  165.48   23.60
  -9  -9   9  407.06   45.00
   9  -9  -9  404.86   33.60
  -9   9   9  434.56   35.30
  -8  -9   9  -10.20    6.70
   8  -9  -9    7.40    6.40
  -8   9   9    0.20    3.50
   7  -9  -9  646.04   46.10
  -7  -9   9  684.03   52.39
  -7   9   9  715.93   47.00
   6  -9  -9  455.45   29.60
   6  -9  -9  477.05   34.40
  -6  -9   9  491.85   39.80
  -6   9   9  482.15   33.90
   5  -9  -9  242.88   18.10
   5  -9  -9  234.38   23.40
  -5  -9   9  255.07   29.00
  -5   9   9  234.68   19.70
   4  -9  -9  271.97   21.80
  -4  -9   9  236.58   27.40
   4  -9  -9  257.37   19.50
  -4   9   9  282.57   20.60
   3  -9  -9  125.19   14.70
  -3  -9   9  120.99   14.40
  -3  -9   9  119.49   17.40
   3  -9  -9   88.59   12.20
  -3   9   9  116.89   13.00
   2  -9  -9   50.29    8.80
   2  -9  -9   51.99    9.30
  -2  -9   9   84.29   13.60
  -2  -9   9   44.80    8.30
  -2   9   9   72.39   10.00
   1  -9  -9    6.40    5.10
   1  -9  -9    1.00    3.30
  -1  -9   9    2.70    3.90
  -1  -9   9    2.40    3.40
  -1   9   9    0.30    2.30
   0  -9   9   -0.60    2.10
   0  -9  -9    0.70    4.20
   0  -9  -9    6.50    4.00
   0  -9   9    5.10    4.40
   0   9   9    6.20    2.70
  -1  -9  -9  179.38   14.00
   1  -9   9  183.08   15.70
  -1  -9  -9  170.58   18.50
   1  -9   9  169.98   14.60
   1   9   9  158.48   12.00
  -2  -9  -9   12.80    4.20
  -2  -9  -9    9.70    5.70
   2  -9   9   10.20    4.70
   2  -9   9    0.40    1.80
   2   9   9   23.10    4.10
   3  -9   9   25.40    6.60
   3  -9   9   39.70    7.70
  -3  -9  -9   27.40    8.20
  -3  -9  -9   32.30    5.50
   3   9   9   32.80    5.10
   4  -9   9  370.36   26.70
  -4  -9  -9  327.87   28.50
   4  -9   9  408.66   26.80
   4   9   9  373.46   23.60
  -5  -9  -9  774.92   51.99
   5  -9   9  729.03   48.50
   5  -9   9  864.71   49.20
   5   9   9  773.72   45.80
   6  -9   9   31.40    8.00
  -6  -9  -9   29.20   11.20
   6   9   9   32.20    6.10
  -7  -9  -9   75.19   16.50
   7  -9   9   74.39   12.10
   7   9   9   76.09   10.10
  -8  -9  -9   -4.10    8.30
   8  -9   9    7.40    6.30
   8   9   9    7.10    5.10
  -9  -9  -9   49.90   16.10
   9  -9   9   63.69   12.00
  10  -9   9   19.20    7.80
 -12 -10   9    7.40   13.80
  12 -10  -9   20.80   11.90
 -12  10   9   12.20   10.70
 -11 -10   9   -3.30   12.00
  11 -10  -9    6.40    8.50
 -11  10   9   11.10    9.60
  10 -10  -9  486.25   37.70
 -10 -10   9  374.36   44.90
  -9 -10   9   89.59   21.20
   9 -10  -9   73.29   14.70
  -8 -10   9   29.10   14.40
   8 -10  -9   15.10    7.60
  -8  10   9   25.00    9.60
   7 -10  -9  187.78   22.20
  -7 -10   9  186.48   27.40
  -7  10   9  166.68   20.80
   6 -10  -9  573.04   39.70
  -6 -10   9  593.64   44.90
   6 -10  -9  528.45   35.40
  -6  10   9  568.14   38.30
  -5 -10   9   20.70    7.30
   5 -10  -9   25.30    8.10
  -5 -10   9   58.99   14.00
   5 -10  -9   52.59    8.70
  -5  10   9   34.40    7.70
  -4 -10   9    6.70    4.70
   4 -10  -9   -2.10    3.80
   4 -10  -9   -3.80    3.30
  -4 -10   9   -0.60    6.90
  -4  10   9   14.80    5.20
  -3 -10   9   17.20    6.30
  -3 -10   9   37.90   10.80
   3 -10  -9   23.30    6.90
   3 -10  -9    9.60    5.20
  -3  10   9   24.80    6.40
  -2 -10   9   43.30    9.70
   2 -10  -9   39.00    8.50
   2 -10  -9   23.60    6.60
  -2 -10   9   37.70    7.50
  -2  10   9   36.80    6.60
  -1 -10   9  279.57   21.10
   1 -10  -9  247.68   20.30
   1 -10  -9  250.87   19.70
  -1 -10   9  251.67   19.80
   0 -10   9   13.10    4.40
   0 -10   9   30.40    7.00
   0 -10  -9   12.90    6.00
   0 -10  -9   15.70    4.90
  -1 -10  -9   70.69   11.90
  -1 -10  -9   70.99    9.30
   1 -10   9   82.39   11.40
   1 -10   9   81.29   10.80
  -2 -10  -9   -1.10    2.70
   2 -10   9    7.10    4.30
   2 -10   9    4.00    3.70
  -2 -10  -9   -1.50    4.30
  -3 -10  -9   -0.60    3.20
   3 -10   9    3.70    3.20
   3 -10   9    1.20    3.40
  -3 -10  -9    0.10    5.30
   4 -10   9   66.09   10.60
  -4 -10  -9   53.59   11.90
   4 -10   9   55.79   10.10
   5 -10   9  147.69   16.50
  -5 -10  -9   87.89   15.70
   5 -10   9  113.69   14.70
  -6 -10  -9   56.89   13.80
   6 -10   9   49.20   10.00
   7 -10   9   11.00    5.40
  -7 -10  -9   -0.30    7.70
  -8 -10  -9  247.18   31.80
   8 -10   9  286.07   23.40
  -9 -10  -9   25.80   13.20
   9 -10   9   37.50    9.70
 -11 -11   9   16.90   14.80
  11 -11  -9    6.50    8.40
 -11  11   9    3.70    8.20
  10 -11  -9   70.29   15.10
 -10 -11   9   69.09   19.30
 -10  11   9   21.50    8.50
  -9 -11   9  226.68   33.70
   9 -11  -9  298.47   31.90
  -9  11   9  333.27   33.40
   8 -11  -9   54.99   13.10
  -8 -11   9   54.39   16.80
  -8  11   9   56.39   13.00
   7 -11  -9  202.18   23.80
  -7 -11   9  203.18   28.00
  -7  11   9  190.48   22.00
  -6 -11   9   41.10   13.60
  -6 -11   9   66.39   12.60
   6 -11  -9   55.59   12.50
  -6  11   9   64.99   12.20
  -5 -11   9   14.40    6.40
  -5 -11   9   16.80    9.80
   5 -11  -9   15.00    7.10
   5 -11  -9   25.10    7.00
   4 -11  -9    8.40    5.90
   4 -11  -9   11.50    6.50
  -4 -11   9   11.60    8.60
  -4 -11   9    3.90    4.60
  -3 -11   9  171.48   20.10
  -3 -11   9  155.18   17.40
   3 -11  -9  156.28   16.90
   3 -11  -9  147.99   17.20
  -2 -11   9   49.00    9.20
   2 -11  -9   53.99   10.40
  -2 -11   9   50.59   10.00
   2 -11  -9   52.79    9.80
   1 -11  -9   47.00    9.50
   1 -11  -9   33.90    7.70
  -1 -11   9   44.10    9.00
  -1 -11   9   40.30    7.90
   0 -11   9  114.39   13.70
   0 -11  -9   98.39   14.00
   0 -11  -9   80.49   11.20
   0 -11   9  118.99   13.90
   1 -11   9   37.30    7.50
  -1 -11  -9   41.60    7.40
   1 -11   9   32.50    7.20
  -1 -11  -9   20.00    7.40
  -2 -11  -9   10.70    4.60
   2 -11   9    6.20    4.40
  -2 -11  -9   10.40    5.70
   2 -11   9    7.70    4.70
   3 -11   9   29.70    7.30
  -3 -11  -9   25.50    8.70
  -3 -11  -9   36.40    6.80
   3 -11   9   32.40    7.70
   4 -11   9    4.20    4.00
   4 -11   9    2.40    3.80
  -4 -11  -9   -4.20    4.50
   5 -11   9   74.59   11.40
   5 -11   9   94.89   13.80
  -5 -11  -9   75.69   14.80
   6 -11   9   90.49   13.40
   6 -11   9   91.39   14.90
  -6 -11  -9   79.69   15.80
  -7 -11  -9  249.68   29.60
   7 -11   9  239.58   24.00
  -8 -11  -9  143.09   23.90
   8 -11   9  170.78   20.20
   9 -11   9   32.20    9.50
  11 -12  -9   31.40   11.80
 -11 -12   9   20.60   16.90
 -10 -12   9   18.70   14.70
  10 -12  -9   31.80   11.30
  -9 -12   9   10.00   14.60
   9 -12  -9    1.90    6.80
   8 -12  -9   11.40    7.40
  -8 -12   9   15.00    7.80
  -8 -12   9   -3.50   10.80
  -7 -12   9  288.17   33.60
   7 -12  -9  291.77   29.70
  -7 -12   9  273.67   28.70
  -6 -12   9   27.20   11.20
   6 -12  -9   14.00    7.40
  -6 -12   9   13.30    6.70
  -5 -12   9   37.00   11.60
   5 -12  -9   43.70    8.90
  -5 -12   9   26.30    8.60
   5 -12  -9   27.20    8.50
   4 -12  -9  132.99   15.30
  -4 -12   9  116.09   16.30
  -4 -12   9  171.78   21.20
   4 -12  -9  114.19   16.40
   3 -12  -9  579.94   38.20
   3 -12  -9  559.94   36.40
  -3 -12   9  516.35   38.20
  -3 -12   9  560.14   37.80
  -2 -12   9   46.80    9.20
   2 -12  -9   18.70    7.00
  -2 -12   9   32.50    8.70
   2 -12  -9   27.80    8.20
   1 -12  -9   36.50    7.80
  -1 -12   9   19.90    6.20
  -1 -12   9   17.80    6.00
   1 -12  -9   25.80    7.50
   0 -12   9    0.80    3.70
   0 -12   9   -0.80    3.30
   0 -12  -9    2.10    5.00
   0 -12  -9    5.10    4.30
  -1 -12  -9  267.97   20.00
  -1 -12  -9  235.58   21.10
   1 -12   9  247.78   19.60
   1 -12   9  247.68   20.30
   2 -12   9  140.49   16.00
  -2 -12  -9  121.99   13.50
   2 -12   9  118.59   14.30
  -2 -12  -9  114.09   16.30
  -3 -12  -9   15.70    7.70
   3 -12   9    8.50    5.00
  -3 -12  -9    6.50    4.40
   3 -12   9   17.90    6.60
   4 -12   9    2.60    4.50
  -4 -12  -9    8.20    6.90
   4 -12   9    8.00    5.20
   5 -12   9  147.69   16.80
   5 -12   9  170.78   19.90
  -5 -12  -9  151.88   21.50
   6 -12   9    6.60    5.60
  -6 -12  -9    7.10    8.00
   6 -12   9    3.40    4.60
  -7 -12  -9   -1.50    7.30
   7 -12   9   -2.60    4.50
   8 -12   9   37.10    9.40
  -8 -12  -9   23.30   12.30
 -10 -13   9   -0.20    7.20
  10 -13  -9   -0.90    8.30
 -10 -13   9  -14.20   12.70
  -9 -13   9    2.50   12.90
   9 -13  -9    6.10    7.80
  -9 -13   9   12.10    8.60
  -8 -13   9  110.89   21.30
   8 -13  -9  123.99   19.70
  -8 -13   9   58.29   13.30
   7 -13  -9   12.50    7.60
  -7 -13   9   25.70   13.30
  -7 -13   9   23.70    8.60
  -6 -13   9   84.39   17.90
  -6 -13   9   64.99   12.50
   6 -13  -9  101.29   16.00
  -5 -13   9    0.40    8.70
  -5 -13   9    0.90    5.00
   5 -13  -9    0.30    5.00
   5 -13  -9   -0.30    4.80
   4 -13  -9   18.30    7.50
  -4 -13   9   27.10    8.80
   4 -13  -9   19.50    7.00
  -4 -13   9   12.80    6.60
   3 -13  -9   84.29   13.60
  -3 -13   9  112.49   15.30
   3 -13  -9   88.59   12.90
  -3 -13   9  109.69   14.90
  -2 -13   9  150.28   17.10
   2 -13  -9  179.38   18.80
  -2 -13   9  158.68   18.20
   2 -13  -9  156.08   18.10
   1 -13  -9    5.40    5.10
   1 -13  -9   15.30    7.30
  -1 -13   9    7.30    5.00
  -1 -13   9    7.20    4.60
   0 -13  -9   67.59   12.00
   0 -13   9   64.59   10.20
   0 -13   9   68.29   10.80
   0 -13  -9   43.80    8.80
   1 -13   9  223.18   21.00
   1 -13   9  171.08   17.40
  -1 -13  -9  173.68   17.60
  -1 -13  -9  195.78   21.90
  -2 -13  -9  154.18   15.30
   2 -13   9  111.29   13.80
  -2 -13  -9  104.99   16.60
   2 -13   9  152.18   17.10
   3 -13   9    3.60    4.60
  -3 -13  -9    4.30    4.80
   3 -13   9   -0.30    4.40
  -3 -13  -9   -2.70    5.30
  -4 -13  -9   27.40   10.00
   4 -13   9   23.60    6.70
   4 -13   9   45.40   10.40
   5 -13   9   17.60    7.30
   5 -13   9   36.00    8.60
  -5 -13  -9   49.50   12.90
   6 -13   9   78.59   14.20
   6 -13   9   78.79   12.20
  -6 -13  -9   57.09   14.10
   7 -13   9   14.10    6.90
  -7 -13  -9    8.20    9.50
  -9 -14   9   86.19   16.90
   9 -14  -9   91.59   17.70
   8 -14  -9   24.60   11.50
  -8 -14   9   11.90    8.20
   7 -14  -9    1.60    6.30
  -7 -14   9   11.40    7.20
  -6 -14   9    3.50    5.80
   6 -14  -9    2.70    6.70
  -6 -14   9   33.40   19.70
   5 -14  -9   43.90   11.50
  -5 -14   9   41.70   10.30
  -5 -14   9   58.29   13.40
   4 -14  -9   21.70    8.20
  -4 -14   9   23.80    9.40
  -4 -14   9   22.80    7.80
   4 -14  -9   23.30    7.70
  -3 -14   9   22.50    7.90
  -3 -14   9   28.20    7.70
   3 -14  -9   27.60    9.10
   3 -14  -9   43.20    9.10
   2 -14  -9   50.09   10.70
   2 -14  -9   39.50    9.40
  -2 -14   9   34.20    8.50
  -2 -14   9   52.89    9.30
   1 -14  -9  116.99   15.30
   1 -14  -9  113.29   16.00
  -1 -14   9  120.79   14.10
  -1 -14   9  103.79   14.50
   0 -14  -9    9.60    5.90
   0 -14  -9   17.20    8.10
   0 -14   9   11.10    5.10
   0 -14   9   16.00    6.20
   1 -14   9  104.59   12.60
  -1 -14  -9  110.09   16.00
  -1 -14  -9  107.99   13.80
   1 -14   9   93.49   13.90
  -2 -14  -9   -4.50    4.30
   2 -14   9    5.90    4.80
   2 -14   9    3.10    4.80
  -2 -14  -9    0.90    6.50
   3 -14   9    9.50    6.20
  -3 -14  -9    1.80    4.80
  -3 -14  -9    2.20    7.80
   3 -14   9    3.50    4.90
   4 -14   9   63.79   10.70
   4 -14   9   92.59   14.70
  -4 -14  -9   84.69   16.40
   5 -14   9    3.30    5.20
  -5 -14  -9   16.10    9.30
   5 -14   9    5.70    6.00
  -6 -14  -9    2.00    8.30
   6 -14   9   10.80    5.90
   6 -14   9    1.60    4.50
  -8 -15   9  127.19   19.60
   8 -15  -9  144.69   21.50
   7 -15  -9   50.69   13.40
  -7 -15   9   31.10   10.40
  -6 -15   9  106.89   16.90
   6 -15  -9  116.19   18.20
   5 -15  -9  128.79   19.40
  -5 -15   9  173.68   21.20
   4 -15  -9   92.39   13.80
   4 -15  -9   85.89   15.00
  -4 -15   9   95.29   15.10
   3 -15  -9   14.90    7.20
   3 -15  -9    3.40    6.50
  -3 -15   9   11.70    6.10
   2 -15  -9   95.79   14.30
   2 -15  -9   87.79   14.10
  -2 -15   9   92.09   14.30
   1 -15  -9   11.50    7.30
  -1 -15   9    0.80    4.90
   1 -15  -9   -3.50    4.50
   0 -15  -9   24.30    9.10
   0 -15   9   28.80    8.40
   0 -15  -9   23.30    7.90
  -1 -15  -9    9.90    5.80
   1 -15   9    1.00    4.90
  -1 -15  -9    1.70    6.70
   2 -15   9   40.30   10.10
   2 -15   9   35.30    8.80
  -2 -15  -9   21.70    9.50
  -2 -15  -9   44.70    9.10
  -3 -15  -9   61.79   10.80
   3 -15   9   78.39   11.60
  -3 -15  -9   65.99   14.50
   3 -15   9   84.69   14.10
   4 -15   9   38.80    8.60
  -4 -15  -9   27.20   11.60
   4 -15   9   26.10    8.80
  -5 -15  -9   46.80   13.40
   5 -15   9   21.50    7.60
   5 -15   9   32.50   10.50
   7 -16  -9  101.79   18.70
  -7 -16   9   97.19   17.30
   6 -16  -9    7.30    8.30
  -6 -16   9    8.40    7.90
  -5 -16   9    6.50    6.40
   5 -16  -9   -7.40    6.10
   4 -16  -9   -5.70    5.10
  -4 -16   9    4.70    6.10
   4 -16  -9    8.60    7.70
  -3 -16   9   43.00   10.10
   3 -16  -9   43.90   11.10
   3 -16  -9   40.10   10.50
  -2 -16   9   10.80    7.00
   2 -16  -9   19.40    8.20
   2 -16  -9   11.10    7.20
   1 -16  -9   10.20    7.50
  -1 -16   9    8.00    5.90
   1 -16  -9    5.50    6.60
   0 -16  -9   78.19   13.30
   0 -16   9   75.39   13.30
   0 -16  -9   62.09   13.20
  -1 -16  -9   23.30   10.20
   1 -16   9    1.00    5.40
  -1 -16  -9    5.90    6.00
  -2 -16  -9    8.40    8.30
  -2 -16  -9    1.00    5.10
   2 -16   9    2.00    5.60
  -3 -16  -9   67.19   14.50
   3 -16   9   62.59   12.90
  -4 -16  -9   25.20   11.40
   4 -16   9   31.10   10.40
   5 -17  -9   14.60    9.00
  -5 -17   9    5.50    6.70
  -4 -17   9   76.39   14.00
   4 -17  -9   59.19   13.50
   3 -17  -9   18.00    8.50
  -3 -17   9   31.00   10.10
   3 -17  -9   22.50    9.10
   2 -17  -9   88.99   15.10
   2 -17  -9  121.49   17.10
  -2 -17   9   88.19   14.50
   1 -17  -9   10.50    7.10
  -1 -17   9   11.00    7.00
   1 -17  -9   27.50   10.20
   0 -17   9  179.88   20.90
   0 -17  -9  181.98   21.50
   0 -17  -9  188.38   22.90
  -1 -17  -9   13.20    7.30
   1 -17   9   26.20    9.10
  -1 -17  -9   24.80   10.80
   2 -17   9  108.79   16.50
  -2 -17  -9   98.09   14.70
  -2 -17  -9  110.49   18.70
 -14   0  10  245.68   34.60
 -13   0  10    8.80    9.70
 -12   0  10  649.74   52.79
 -11   0  10    8.30    9.20
 -10   0  10   -4.20    6.20
  -9   0  10   11.40    8.10
  -8   0  10   47.70   12.40
  -7   0  10   22.50    8.50
  -6   0  10  167.28   21.10
  -5   0  10   21.30    7.70
  -4   0  10  259.47   22.80
  -3   0  10    0.20    4.10
  -2   0  10   18.80    7.90
   2   0 -10    3.30    4.60
   1   0 -10   14.20    6.10
  -1   0  10   41.50   10.00
   0   0 -10  145.89   16.20
   0   0  10  181.88   19.70
  -1   0 -10   -4.80    3.60
   1   0  10   -3.30    2.80
   2   0  10   26.70    6.90
  -2   0 -10    3.50    5.90
  -3   0 -10   11.60    7.00
   3   0  10   23.20    6.40
   4   0  10  186.98   18.40
  -4   0 -10  168.68   19.60
   5   0  10    0.50    2.70
  -5   0 -10    3.00    5.90
   6   0  10    6.30    4.20
  -6   0 -10    9.00    7.60
   7   0  10   -1.50    3.20
  -7   0 -10    0.50    6.90
   8   0  10   23.70    7.20
  -8   0 -10   37.30   11.50
   9   0  10   12.90    6.00
  -9   0 -10    3.10   10.30
  10   0  10  172.08   20.00
 -10   0 -10  186.28   23.80
  11   0  10   25.10    8.50
 -14  -1  10   14.90   13.10
 -14   1  10    9.10   11.20
 -13  -1  10   19.00   11.90
 -13   1  10   11.10   10.80
 -12  -1  10  125.29   23.30
 -12   1  10  143.39   25.10
 -11  -1  10  374.26   41.70
 -11   1  10  492.45   40.50
 -10  -1  10  205.58   27.40
 -10   1  10  151.18   23.20
  -9  -1  10  118.99   19.30
   9  -1 -10   97.39   14.40
  -9   1  10  131.79   20.80
   8  -1 -10  111.79   14.40
  -8  -1  10   87.19   16.70
  -8   1  10  103.19   17.40
   7  -1 -10   66.79   11.50
  -7  -1  10   64.69   13.90
  -7   1  10   66.29   13.80
  -6  -1  10  382.76   30.00
   6  -1 -10  312.97   24.70
  -6   1  10  322.17   27.80
  -5  -1  10  289.97   24.60
   5  -1 -10  267.17   20.90
  -5   1  10  238.68   25.20
  -4  -1  10  152.88   19.40
   4  -1 -10  173.98   17.20
  -4   1  10  153.98   18.20
  -3  -1  10    6.10    5.40
   3  -1 -10    0.40    3.70
   3  -1 -10    3.90    3.50
  -3   1  10    5.30    4.80
  -2  -1  10  385.36   28.90
   2  -1 -10  364.36   24.20
   2  -1 -10  302.37   22.80
  -2   1  10  361.06   27.80
  -1  -1  10  300.17   27.50
   1  -1 -10  197.18   17.40
  -1   1  10  285.87   26.00
   1   1 -10  217.98   18.10
   0  -1  10  228.98   22.60
   0  -1 -10  225.28   18.30
   0   1 -10  243.78   18.80
   0   1  10  220.48   19.70
   1  -1  10  611.34   39.70
  -1  -1 -10  621.54   38.40
  -1   1 -10  600.74   38.10
   1   1  10  532.05   38.30
  -2  -1 -10  595.84   39.60
   2  -1  10  649.24   34.30
   2  -1  10  624.14   40.40
   2   1  10  617.64   39.80
  -2   1 -10  555.34   39.10
   3  -1  10  444.26   30.10
  -3  -1 -10  419.36   30.50
   3   1  10  399.66   29.10
  -3   1 -10  454.15   30.70
  -4  -1 -10  269.97   22.30
   4  -1  10  249.28   20.50
   4   1  10  236.58   19.80
  -4   1 -10  296.17   22.70
  -5  -1 -10  109.89   15.90
   5  -1  10  121.29   15.10
   5   1  10  116.49   13.90
  -5   1 -10  120.29   16.40
   6  -1  10   19.10    6.30
  -6  -1 -10   20.80    9.40
  -6   1 -10   23.30    9.20
   6   1  10   28.20    7.00
   7  -1  10   33.60    8.50
  -7  -1 -10   29.50   11.10
  -7   1 -10   28.40   10.40
   7   1  10   49.80    9.50
  -8  -1 -10    4.70    8.40
   8  -1  10    4.10    4.20
  -8   1 -10    9.10    8.10
   8   1  10    2.60    3.80
  -9  -1 -10  155.68   23.20
   9  -1  10  138.19   18.10
   9   1  10  148.79   18.20
  -9   1 -10  185.48   22.90
 -10  -1 -10   16.70   11.00
  10  -1  10    5.10    5.80
 -10   1 -10   11.20   10.40
  10   1  10    6.50    5.30
  11  -1  10   29.80    8.70
  11   1  10   21.00    7.30
 -14  -2  10   56.79   18.00
 -14   2  10   36.00   15.80
 -13  -2  10   41.40   14.60
 -13   2  10   30.10   13.50
 -12  -2  10  181.78   28.20
  12  -2 -10  226.78   25.10
 -12   2  10  239.98   32.50
 -11  -2  10  116.29   22.10
  11  -2 -10  146.69   19.80
 -11   2  10  179.18   25.90
 -10  -2  10    3.00    6.50
  10  -2 -10   16.40    7.60
 -10   2  10    6.90    8.10
  -9  -2  10    1.80    6.50
   9  -2 -10    1.60    4.40
  -9   2  10   -2.00    5.70
  -8  -2  10   53.49   14.00
   8  -2 -10   60.39   11.40
  -8   2  10   57.29   13.50
   7  -2 -10   47.30    9.50
  -7  -2  10   74.09   16.10
  -7   2  10   38.90   10.80
  -6  -2  10   68.99   14.40
   6  -2 -10   89.29   13.10
  -6   2  10  123.09   17.30
   5  -2 -10  669.33   44.60
  -5  -2  10  714.03   48.70
  -5   2  10  749.92   47.60
   4  -2 -10  295.37   22.10
   4  -2 -10  288.37   20.60
  -4  -2  10  270.77   27.90
  -4   2  10  288.47   23.60
   3  -2 -10   16.90    5.90
  -3  -2  10   11.90    6.60
   3  -2 -10   18.90    5.50
  -3   2  10   21.80    7.20
   2  -2 -10   87.09   10.90
   2  -2 -10   90.89   12.10
  -2  -2  10   76.39   13.90
  -2   2  10   90.99   13.60
   1  -2 -10  751.22   43.10
   1  -2 -10  638.74   41.00
  -1  -2  10  681.63   46.70
  -1   2  10  710.33   46.10
   0  -2 -10   25.80    5.10
   0  -2  10   31.00    8.30
   0  -2 -10   31.10    7.70
   0   2  10   38.30    8.50
   0   2 -10   36.90    8.40
  -1  -2 -10   13.40    6.00
   1  -2  10   33.60    8.20
   1  -2  10   16.10    3.40
  -1   2 -10   15.00    6.60
   1   2  10   19.10    6.10
  -2  -2 -10  323.67   24.40
   2  -2  10  348.57   19.60
   2  -2  10  285.17   23.90
   2   2  10  325.07   23.70
  -2   2 -10  297.27   23.80
   3  -2  10 1406.96   83.29
  -3  -2 -10 1491.55   83.99
   3  -2  10 1400.96   76.79
  -3   2 -10 1448.06   83.29
   3   2  10 1441.96   82.29
   4  -2  10   20.20    6.50
  -4  -2 -10    9.50    6.80
  -4   2 -10   22.00    8.10
   4   2  10   30.90    6.80
   5  -2  10  153.48   17.40
  -5  -2 -10  182.98   22.20
   5   2  10  207.28   16.40
  -5   2 -10  187.58   21.00
  -6  -2 -10  103.59   17.60
   6  -2  10  164.28   18.20
  -6   2 -10  154.48   20.00
   6   2  10  149.49   16.10
  -7  -2 -10   -3.50    6.10
   7  -2  10    8.40    4.60
   7   2  10    2.90    3.80
  -7   2 -10    6.60    7.60
  -8  -2 -10  149.39   22.80
   8  -2  10  136.69   17.20
   8   2  10  138.79   16.80
  -8   2 -10  126.99   18.30
  -9  -2 -10   11.60   10.90
   9  -2  10    8.80    6.00
  -9   2 -10   11.60   10.10
   9   2  10   10.10    5.30
 -10  -2 -10    1.90    9.90
  10  -2  10   18.10    7.10
  10   2  10   13.20    6.80
  11  -2  10   17.60    7.30
  11   2  10    4.20    5.30
 -14  -3  10    8.80   11.60
 -14   3  10   11.90   11.10
  13  -3 -10   61.29   13.30
 -13  -3  10   77.49   20.40
 -13   3  10   45.30   15.80
  12  -3 -10    4.20    5.90
 -12  -3  10    1.90    7.50
 -12   3  10    7.40    8.60
 -11  -3  10    5.90    8.00
  11  -3 -10    6.10    5.30
 -11   3  10   17.80    9.80
  10  -3 -10    7.30    6.40
 -10  -3  10   -2.10    7.70
 -10   3  10    9.80    8.60
  -9  -3  10   11.30    8.70
   9  -3 -10    0.60    4.80
  -9   3  10   12.10    8.10
   8  -3 -10   20.20    7.70
  -8  -3  10   31.10   10.60
  -8   3  10   23.30    9.60
  -7  -3  10  322.17   34.10
   7  -3 -10  257.37   26.20
  -7   3  10  300.87   30.60
   6  -3 -10   47.10    9.50
  -6  -3  10   66.29   14.10
  -6   3  10   65.69   12.80
  -5  -3  10  204.78   23.80
   5  -3 -10  183.38   15.10
   5  -3 -10  168.88   18.80
  -5   3  10  187.58   20.40
  -4  -3  10  712.33   47.90
   4  -3 -10  666.13   43.90
  -4   3  10  704.93   45.30
   3  -3 -10   63.69    9.50
  -3  -3  10   72.49   13.00
   3  -3 -10   42.50    8.60
  -3   3  10   66.09   11.50
  -2  -3  10   56.49   12.20
   2  -3 -10   67.79   10.40
   2  -3 -10   48.10    8.50
  -2   3  10   51.09   10.70
   1  -3 -10   46.50    8.60
   1  -3 -10   34.70    6.90
  -1  -3  10   55.99   11.20
  -1   3  10   58.59   10.80
   0  -3 -10  133.29   11.60
   0  -3  10  149.39   17.40
   0  -3 -10  140.19   15.30
   0   3  10  148.59   16.50
  -1  -3 -10   84.59   12.60
   1  -3  10  112.39    9.00
  -1  -3 -10  116.59    9.50
   1  -3  10  115.89   15.40
   1   3  10  120.39   13.90
   2  -3  10  262.47   17.10
  -2  -3 -10  272.57   21.70
   2  -3  10  266.17   21.60
   2   3  10  272.27   20.40
  -3  -3 -10  482.95   33.80
   3  -3  10  482.05   33.10
   3  -3  10  453.35   27.70
  -3   3 -10  507.95   33.50
   3   3  10  518.45   32.00
  -4  -3 -10   40.90   10.50
   4  -3  10   40.00    8.50
  -4   3 -10   55.69   11.50
   4   3  10   54.19    8.70
   5  -3  10  207.18   21.00
  -5  -3 -10  198.18   22.40
   5   3  10  186.98   16.40
  -5   3 -10  227.28   22.40
  -6  -3 -10  423.56   34.70
   6  -3  10  507.35   33.20
  -6   3 -10  511.05   34.20
   6   3  10  421.66   30.70
   7  -3  10   21.30    7.00
  -7  -3 -10    9.30    8.10
   7   3  10   11.50    4.80
  -7   3 -10   29.60   10.00
   8  -3  10   -0.40    3.60
  -8  -3 -10    4.30    8.60
   8   3  10    1.80    3.70
  -8   3 -10    0.00    7.60
   9  -3  10   88.69   14.30
  -9  -3 -10   97.09   19.70
   9   3  10  120.19   15.00
  -9   3 -10  106.29   17.70
 -10  -3 -10   27.60   13.40
  10  -3  10   44.60   10.40
  10   3  10   49.60   10.20
  11  -3  10   11.30    7.00
  11   3  10    3.30    4.90
 -14  -4  10    3.10    9.70
 -14   4  10   28.50   12.90
  13  -4 -10   16.10    9.50
 -13  -4  10   14.20   12.00
 -13   4  10   10.90   10.30
 -12  -4  10   13.20   10.60
  12  -4 -10   -0.70    5.80
 -12   4  10    9.20    8.40
 -11  -4  10   15.70   10.30
  11  -4 -10    6.80    6.30
 -11   4  10    3.20    8.10
  10  -4 -10   69.69   13.50
 -10  -4  10   35.30   13.10
 -10   4  10   49.50   14.50
  -9  -4  10  925.31   64.59
   9  -4 -10  868.71   57.69
  -9   4  10  863.71   60.89
  -8  -4  10   50.29   14.20
   8  -4 -10   49.20   11.10
  -8   4  10   71.69   14.80
   7  -4 -10   40.70    9.70
  -7  -4  10   27.30   10.50
  -7   4  10   44.60   10.80
   6  -4 -10  152.28   18.40
  -6  -4  10  172.98   23.90
   6  -4 -10  183.98   14.70
  -6   4  10  201.18   22.30
   5  -4 -10  436.36   33.40
  -5  -4  10  468.95   37.20
   5  -4 -10  529.55   31.40
  -5   4  10  511.85   35.10
   4  -4 -10  467.85   35.60
  -4  -4  10  707.63   44.40
   4  -4 -10  660.43   39.70
  -4   4  10  680.73   40.70
   3  -4 -10 1313.87   77.19
   3  -4 -10 1374.96   75.89
  -3  -4  10 1279.57   81.29
  -3   4  10 1338.67   78.59
   2  -4 -10  178.88   15.10
   2  -4 -10  159.78   16.60
  -2  -4  10  175.98   22.30
  -2   4  10  217.98   22.10
   1  -4 -10  126.79   14.60
  -1  -4  10   84.69   14.50
   1  -4 -10   94.09   11.40
  -1   4  10  119.59   15.30
   0  -4 -10  193.88   15.80
   0  -4 -10  213.58   18.10
   0  -4  10  224.58   15.40
   0  -4  10  250.87   20.40
   0   4  10  218.78   18.10
  -1  -4 -10  165.58   13.30
  -1  -4 -10  178.48   19.00
   1  -4  10  231.98   22.00
   1  -4  10  164.68   12.70
   1   4  10  196.48   15.70
   2  -4  10   12.40    3.30
  -2  -4 -10   11.00    3.50
   2  -4  10    8.90    4.90
  -2  -4 -10   11.30    5.80
   2   4  10   13.50    4.70
   3  -4  10   13.70    5.20
  -3  -4 -10   19.30    7.90
   3  -4  10   24.00    4.30
   3   4  10   20.30    5.30
   4  -4  10   18.70    6.30
  -4  -4 -10   33.20    9.00
   4   4  10   17.40    5.10
   5  -4  10  490.65   33.70
  -5  -4 -10  476.05   35.90
   5   4  10  494.35   32.00
  -6  -4 -10  383.86   31.70
   6  -4  10  409.16   29.10
   6   4  10  374.26   26.70
   7  -4  10    4.70    5.00
  -7  -4 -10    5.20    8.40
   7   4  10   -1.30    2.50
  -8  -4 -10  142.39   24.00
   8  -4  10  204.08   21.80
   8   4  10  194.68   19.30
   9  -4  10   18.40    6.70
  -9  -4 -10   22.80   12.60
   9   4  10   18.40    6.50
 -10  -4 -10   18.70   13.80
  10  -4  10   -0.60    4.70
  10   4  10    3.80    4.70
  13  -5 -10   19.50   10.10
 -13  -5  10   25.00   14.10
 -13   5  10   30.50   13.40
 -12  -5  10   19.20   11.60
  12  -5 -10   39.90   11.70
 -12   5  10   56.99   16.60
 -11  -5  10   -6.60    7.70
  11  -5 -10   21.00    9.30
 -11   5  10   12.70    8.40
 -10  -5  10   40.20   13.90
  10  -5 -10    8.40    7.10
 -10   5  10   13.60    9.20
  -9  -5  10  344.57   40.70
   9  -5 -10  390.86   32.40
  -9   5  10  476.85   36.90
   8  -5 -10  456.95   36.30
  -8  -5  10  521.15   42.40
  -8   5  10  531.75   39.30
  -7  -5  10  167.58   23.80
   7  -5 -10  170.88   19.70
  -7   5  10  128.99   18.40
   6  -5 -10   28.10    7.80
   6  -5 -10   30.10    6.50
  -6  -5  10   15.00    8.30
  -6   5  10   30.20    8.80
  -5  -5  10   10.00    7.90
   5  -5 -10    5.70    4.20
   5  -5 -10    5.30    4.40
  -5   5  10    9.60    5.20
   4  -5 -10 1281.67   72.69
  -4  -5  10 1362.96   77.89
   4  -5 -10 1007.50   68.79
  -4   5  10 1384.46   73.59
   3  -5 -10  511.45   34.70
  -3  -5  10  542.55   39.70
   3  -5 -10  567.74   34.20
  -3   5  10  503.85   35.60
   2  -5 -10  388.56   25.50
  -2  -5  10  339.47   29.40
   2  -5 -10  345.77   25.10
   1  -5 -10   10.60    5.40
  -1  -5  10   19.80    8.00
   1  -5 -10    9.30    4.60
  -1   5  10    0.80    3.00
   0  -5  10   34.40    5.80
   0  -5 -10   28.70    8.00
   0  -5 -10   35.30    6.60
   0  -5  10   44.60    9.80
   1  -5  10  367.76   25.70
  -1  -5 -10  324.87   24.70
   1  -5  10  335.47   21.40
  -1  -5 -10  291.27   21.10
  -2  -5 -10  299.07   21.70
   2  -5  10  232.38   19.90
  -2  -5 -10  209.28   16.00
   2  -5  10  249.68   16.90
   3  -5  10   41.30    6.20
   3  -5  10   36.70    7.80
  -3  -5 -10   29.30    9.80
   3   5  10   45.30    7.20
  -4  -5 -10   17.10    7.70
   4  -5  10   21.20    6.10
   4  -5  10   26.50    4.80
   4   5  10   24.80    5.50
  -5  -5 -10  156.38   21.30
   5  -5  10  109.89   14.60
   5   5  10  153.58   13.10
  -6  -5 -10  129.29   19.60
   6  -5  10  185.08   19.60
   6   5  10  154.08   15.90
  -7  -5 -10    3.70    7.60
   7  -5  10    7.00    5.10
   7   5  10    3.10    3.20
  -8  -5 -10   17.10   10.90
   8  -5  10   17.50    6.00
   8   5  10   21.10    6.00
  -9  -5 -10   15.90   11.60
   9  -5  10   12.90    6.90
   9   5  10   17.00    6.20
  10  -5  10  276.67   27.10
 -10  -5 -10  147.49   27.20
  10   5  10  225.58   22.80
 -13  -6  10   35.80   15.20
  13  -6 -10    9.40    8.50
 -13   6  10   12.90   11.00
 -12  -6  10    8.40   11.70
  12  -6 -10   20.80    9.50
 -12   6  10   18.50   12.00
 -11  -6  10  227.18   32.60
  11  -6 -10  282.77   30.80
 -11   6  10  285.67   33.20
  10  -6 -10  113.39   18.50
 -10  -6  10   81.89   19.20
 -10   6  10  158.08   23.70
   9  -6 -10  240.98   26.30
  -9  -6  10  260.37   33.30
  -9   6  10  262.77   29.80
   8  -6 -10   18.80    7.90
  -8  -6  10   22.90   11.70
  -8   6  10   32.20   10.70
  -7  -6  10    5.80    7.90
   7  -6 -10    1.80    5.00
   7  -6 -10    6.90    4.60
  -7   6  10    7.00    6.00
   6  -6 -10  276.57   19.30
   6  -6 -10  239.48   24.70
  -6  -6  10  283.27   31.20
  -6   6  10  267.07   26.80
   5  -6 -10   14.10    5.20
  -5  -6  10   35.70   11.10
   5  -6 -10   14.70    6.00
  -5   6  10   27.60    7.50
   4  -6 -10   49.70    9.50
  -4  -6  10   68.29   14.40
   4  -6 -10   56.39    9.20
  -3  -6  10  358.46   31.00
   3  -6 -10  391.56   27.20
   3  -6 -10  377.26   25.80
  -3   6  10  366.76   27.20
   2  -6 -10  322.57   22.40
   2  -6 -10  256.77   21.20
  -2  -6  10  292.27   29.50
  -2   6  10  308.27   23.60
  -1  -6  10  108.59   15.70
  -1  -6  10   64.49    9.20
   1  -6 -10   87.59   12.20
   1  -6 -10  116.29   12.50
  -1   6  10  130.79   15.20
   0  -6 -10   -1.60    4.40
   0  -6  10    6.60    3.30
   0  -6 -10    6.40    3.80
   0  -6  10    4.10    4.50
   0   6  10    5.90    3.60
   1  -6  10   26.30    5.10
   1  -6  10   29.30    7.50
  -1  -6 -10   21.50    5.00
  -1  -6 -10   10.20    6.10
   1   6  10   42.20    7.10
  -2  -6 -10  119.79   15.70
   2  -6  10  144.19   13.20
  -2  -6 -10  112.09   11.30
   2  -6  10  123.79   15.50
   2   6  10  125.29   12.50
   3  -6  10  193.58   19.90
  -3  -6 -10  189.98   21.90
   3  -6  10  181.58   14.20
   3   6  10  178.98   14.50
   4  -6  10    2.20    2.50
  -4  -6 -10   10.30    6.70
   4  -6  10   -0.90    3.10
   4   6  10    1.10    1.80
   5  -6  10   30.70    7.80
  -5  -6 -10   15.20    8.20
   5   6  10   25.70    5.80
   6  -6  10   -2.00    3.10
  -6  -6 -10    0.80    7.20
   6   6  10    1.80    2.50
   7  -6  10   -3.70    3.80
  -7  -6 -10    2.00    8.00
   7   6  10    0.40    2.60
   8  -6  10   88.79   13.40
  -8  -6 -10   65.09   16.50
   8   6  10   81.49   11.80
   9  -6  10    2.90    5.30
  -9  -6 -10    9.20    9.40
   9   6  10   11.70    5.70
 -10  -6 -10   61.49   18.10
  10  -6  10   56.59   12.60
  10   6  10   75.89   12.10
 -13  -7  10    2.50   12.20
  13  -7 -10   11.60   10.50
 -13   7  10    4.50    9.70
 -12  -7  10    4.50   11.00
  12  -7 -10    1.30    7.40
 -12   7  10   -3.90    7.00
 -11  -7  10    3.00    9.20
  11  -7 -10   19.10   10.20
 -11   7  10    8.10    9.20
  10  -7 -10  245.58   28.10
 -10  -7  10  183.78   28.70
 -10   7  10  292.57   32.10
   9  -7 -10   10.50    6.70
  -9  -7  10    8.00    8.90
  -9   7  10   13.70    8.50
   8  -7 -10   12.40    7.50
  -8  -7  10   28.20   12.20
  -8   7  10   32.60   10.90
   7  -7 -10  108.59   15.90
  -7  -7  10   76.09   17.00
  -7   7  10  101.49   15.80
   6  -7 -10   10.90    6.40
   6  -7 -10   12.70    5.80
  -6  -7  10   34.20   11.40
  -6   7  10   21.40    6.90
   5  -7 -10  352.76   23.90
  -5  -7  10  362.46   31.70
   5  -7 -10  348.87   27.00
  -5   7  10  346.87   26.40
  -4  -7  10   32.00   11.30
   4  -7 -10   25.00    6.50
   4  -7 -10   25.90    7.10
  -4   7  10   41.30    8.50
   3  -7 -10  252.37   19.40
  -3  -7  10  259.37   28.20
   3  -7 -10  228.98   19.80
  -3   7  10  259.57   20.50
   2  -7 -10 1841.72  106.59
  -2  -7  10 1795.22  110.89
   2  -7 -10 2068.09  107.09
  -2  -7  10 1890.41  106.19
  -2   7  10 1865.81  107.79
   1  -7 -10  305.97   21.70
  -1  -7  10  283.97   20.90
   1  -7 -10  320.17   23.10
  -1  -7  10  286.17   24.30
  -1   7  10  283.87   21.80
   0  -7 -10  430.96   28.60
   0  -7  10  457.15   31.70
   0  -7 -10  438.76   31.00
   0   7  10  452.85   29.00
   1  -7  10   26.50    7.30
  -1  -7 -10    8.00    3.70
  -1  -7 -10    2.60    4.80
   1  -7  10   13.80    4.30
   1   7  10   25.20    5.40
   2  -7  10   59.79   10.40
  -2  -7 -10   29.10    8.60
   2  -7  10   45.00    7.40
  -2  -7 -10   39.60    6.30
   2   7  10   48.90    7.20
  -3  -7 -10   33.00    8.60
   3  -7  10   57.49    8.40
   3  -7  10   43.60    8.80
   3   7  10   43.80    6.70
  -4  -7 -10  241.58   27.70
   4  -7  10  262.07   21.20
   4  -7  10  237.98   18.50
   4   7  10  276.77   18.80
   5  -7  10   71.59   11.70
  -5  -7 -10   91.99   16.70
   5   7  10   89.49   10.80
  -6  -7 -10    9.70    7.80
   6  -7  10    3.90    4.60
   6   7  10    2.90    2.60
   7  -7  10  204.08   21.20
  -7  -7 -10  166.88   24.80
   7   7  10  202.08   16.30
  -8  -7 -10   16.40    9.70
   8  -7  10   24.10    7.70
   8   7  10   35.50    7.80
   9  -7  10   13.10    7.00
  -9  -7 -10    8.30   11.10
   9   7  10    8.90    4.90
  10  -7  10   58.59   12.20
 -10  -7 -10   29.80   14.00
  10   7  10   53.19   10.00
 -12  -8  10   -1.20    9.90
  12  -8 -10   16.70    9.80
 -12   8  10   17.50   11.50
  11  -8 -10    4.90    8.30
 -11  -8  10   19.50   13.00
 -11   8  10    5.00    8.50
  10  -8 -10    0.90    7.00
 -10  -8  10   15.70   12.10
 -10   8  10   -2.80    7.30
  -9  -8  10  151.08   26.00
   9  -8 -10  126.19   19.70
  -9   8  10  178.68   24.00
   8  -8 -10   80.89   14.50
  -8  -8  10   40.50   14.00
  -8   8  10  113.79   17.60
  -7  -8  10  271.77   32.80
   7  -8 -10  287.67   28.10
   6  -8 -10   16.70    7.30
   6  -8 -10   31.20    7.70
  -6  -8  10   30.00   11.60
  -6   8  10   42.80    9.50
   5  -8 -10   13.80    6.10
   5  -8 -10    9.50    5.40
  -5  -8  10   14.70    8.10
  -5   8  10   18.60    6.20
   4  -8 -10  240.38   17.90
   4  -8 -10  203.48   21.50
  -4  -8  10  206.88   25.40
  -4   8  10  221.98   18.80
   3  -8 -10  346.17   24.00
   3  -8 -10  311.67   24.40
  -3  -8  10  308.17   32.20
  -3   8  10  331.37   24.60
   2  -8 -10  176.38   17.70
  -2  -8  10  150.68   20.20
  -2  -8  10  176.48   17.20
   2  -8 -10  181.38   16.00
  -2   8  10  175.68   18.60
   1  -8 -10   30.50    8.00
  -1  -8  10   26.70    6.00
  -1  -8  10   30.20    8.00
   1  -8 -10   30.80    6.90
  -1   8  10   30.50    6.40
   0  -8 -10   -0.20    3.00
   0  -8  10    5.90    4.80
   0  -8  10   -0.80    2.50
   0  -8 -10    8.20    5.50
   0   8  10    8.60    3.40
   1  -8  10  118.59   14.60
  -1  -8 -10   96.09   14.60
  -1  -8 -10  103.89   11.20
   1  -8  10  101.99   11.90
   1   8  10   83.79    9.70
  -2  -8 -10    8.40    3.40
   2  -8  10    6.10    4.40
   2  -8  10    5.30    3.60
  -2  -8 -10    6.90    5.60
   2   8  10    5.60    2.80
   3  -8  10   68.69   11.00
   3  -8  10   57.99    9.10
  -3  -8 -10   56.49   11.70
   3   8  10   60.79    7.90
   4  -8  10  487.85   31.20
   4  -8  10  499.25   33.10
  -4  -8 -10  426.16   34.50
   4   8  10  460.95   29.40
  -5  -8 -10   31.60   11.00
   5  -8  10   29.10    8.00
   5   8  10   36.50    6.50
  -6  -8 -10   44.60   13.50
   6  -8  10   68.19   11.80
   6   8  10   61.89    9.10
  -7  -8 -10    6.40    8.90
   7  -8  10   17.10    7.10
   7   8  10   23.20    5.90
  -8  -8 -10   10.10   11.20
   8  -8  10    3.40    5.20
   8   8  10    2.20    2.80
   9  -8  10   31.90    9.50
  -9  -8 -10   21.20   13.70
   9   8  10   19.80    6.50
  12  -9 -10   42.20   13.40
 -12  -9  10   28.40   15.60
 -12   9  10   17.90   11.70
 -11  -9  10    4.60    9.40
  11  -9 -10    2.20    8.70
 -11   9  10   45.00   14.30
  10  -9 -10  179.98   24.10
 -10  -9  10  169.78   29.00
 -10   9  10  208.08   27.10
  -9  -9  10   -0.70    9.70
   9  -9 -10   10.40    7.20
  -9   9  10    4.10    7.60
  -8  -9  10    8.40   10.50
   8  -9 -10   -0.10    5.30
  -8   9  10   -0.20    3.40
  -7  -9  10  303.37   35.20
   7  -9 -10  282.67   28.80
  -7   9  10  307.17   26.20
   6  -9 -10  174.98   20.90
   6  -9 -10  189.38   15.20
  -6  -9  10  203.58   27.20
  -6   9  10  128.29   17.60
  -5  -9  10    6.30    9.00
   5  -9 -10    0.90    4.20
   5  -9 -10    3.40    5.30
  -5   9  10    4.60    4.40
   4  -9 -10  137.19   15.80
  -4  -9  10  162.58   22.20
   4  -9 -10  160.98   18.00
  -4   9  10  141.29   15.90
   3  -9 -10    0.30    3.50
  -3  -9  10   -3.20    5.40
  -3  -9  10    4.50    3.80
   3  -9 -10    3.30    4.80
  -3   9  10    0.60    3.50
   2  -9 -10   12.40    5.70
   2  -9 -10   13.60    6.00
  -2  -9  10   13.50    4.70
  -2  -9  10   35.40    9.70
  -2   9  10   29.70    6.90
  -1  -9  10   76.59   12.00
   1  -9 -10   88.89   13.20
   1  -9 -10   68.79   10.30
  -1  -9  10   65.59    9.70
  -1   9  10   67.79    8.60
   0  -9 -10   69.59   10.00
   0  -9 -10  108.49   14.90
   0  -9  10   74.69   12.20
   0  -9  10   81.89   10.90
   0   9  10   87.09    9.30
  -1  -9 -10  125.69   12.70
  -1  -9 -10  104.09   14.90
   1  -9  10   94.59   11.80
   1  -9  10  108.39   14.00
   1   9  10  100.39   10.00
  -2  -9 -10   -4.00    2.40
  -2  -9 -10    3.10    5.50
   2  -9  10    8.90    4.10
   2  -9  10   -4.60    2.70
   2   9  10    2.60    2.30
  -3  -9 -10   62.99   12.70
   3  -9  10   88.09   12.30
   3  -9  10   82.09   11.20
   3   9  10   88.69    9.20
   4  -9  10  108.59   13.40
   4  -9  10   89.69   13.00
  -4  -9 -10   78.99   15.80
   4   9  10   98.89   10.40
   5  -9  10  151.18   17.90
  -5  -9 -10  124.79   19.60
   5   9  10  144.69   12.20
   6  -9  10  100.59   14.50
  -6  -9 -10   79.69   16.40
   6   9  10   85.59   11.20
  -7  -9 -10    3.80    8.80
   7  -9  10   14.70    7.30
  -8  -9 -10   -7.90    9.50
   8  -9  10    2.70    5.20
  -9  -9 -10   18.90   13.00
   9  -9  10   16.60    7.70
 -12 -10  10   -1.90   12.00
 -12  10  10   -0.80    9.50
  11 -10 -10  100.39   19.10
 -11 -10  10   93.09   22.90
 -11  10  10  109.29   21.30
  10 -10 -10   27.10   10.10
 -10 -10  10   12.60   11.40
 -10  10  10   15.90   10.10
  -9 -10  10  287.47   37.90
   9 -10 -10  408.66   32.80
   8 -10 -10   25.10    9.10
  -8 -10  10   -1.60   10.60
  -8  10  10   15.80    8.30
   7 -10 -10  284.47   28.40
  -7 -10  10  203.68   29.30
  -7  10  10  238.88   24.80
   6 -10 -10  590.44   40.30
  -6 -10  10  641.64   48.40
   6 -10 -10  603.44   42.50
  -6  10  10  591.24   40.40
  -5 -10  10    7.90    6.10
   5 -10 -10   11.60    5.90
   5 -10 -10    7.50    5.50
  -5 -10  10    4.90    8.80
  -5  10  10   27.80    7.30
   4 -10 -10   23.20    7.80
  -4 -10  10   25.50   10.90
  -4 -10  10   16.90    6.60
   4 -10 -10   35.50    8.20
  -4  10  10   15.00    5.40
   3 -10 -10   88.89   12.60
  -3 -10  10   66.89   10.90
   3 -10 -10   85.39   12.40
  -3 -10  10   78.79   14.40
  -3  10  10   79.79   11.50
   2 -10 -10   14.60    5.90
  -2 -10  10   34.90    7.50
  -2 -10  10   34.50    9.70
   2 -10 -10   29.50    8.30
  -2  10  10   39.40    7.90
  -1 -10  10    8.70    4.90
  -1 -10  10    8.80    4.20
   1 -10 -10   -2.70    4.70
   1 -10 -10    3.40    4.00
   0 -10  10  132.19   15.60
   0 -10 -10  139.09   16.90
   0 -10 -10  146.69   14.90
   0 -10  10  107.69   13.40
  -1 -10 -10   43.50    7.60
  -1 -10 -10   37.90    9.40
   1 -10  10   44.70    8.20
   1 -10  10   30.80    7.70
  -2 -10 -10   83.69   10.50
  -2 -10 -10   85.99   14.00
   2 -10  10   96.99   13.50
   3 -10  10    3.30    3.80
   3 -10  10    6.20    4.60
  -3 -10 -10   -3.90    4.90
   4 -10  10   13.70    6.00
  -4 -10 -10   19.10    8.70
   4 -10  10   19.60    6.90
   5 -10  10  116.99   18.60
   5 -10  10   69.69   12.20
  -5 -10 -10   84.49   15.60
   6 -10  10   58.09   11.30
  -6 -10 -10   55.19   14.00
  -7 -10 -10   62.49   16.40
   7 -10  10   82.09   13.20
   8 -10  10  212.78   22.40
  -8 -10 -10  163.98   25.90
  11 -11 -10   10.10    9.10
 -11 -11  10  -16.00   11.90
 -11  11  10   16.30   11.30
 -10 -11  10   84.59   21.50
  10 -11 -10  124.09   20.10
 -10  11  10  112.39   20.10
   9 -11 -10    4.20    6.90
  -9 -11  10    0.00   12.70
  -9  11  10    2.30    8.00
  -8 -11  10    5.80   12.50
   8 -11 -10   12.00    7.80
  -8  11  10   22.00    9.20
   7 -11 -10   44.90   11.50
  -7 -11  10   34.00   14.40
  -6 -11  10    8.50   10.30
  -6 -11  10   11.70    6.10
   6 -11 -10   -2.90    4.70
   5 -11 -10    9.20    6.50
  -5 -11  10   13.70    6.70
  -5 -11  10    5.80    9.60
   5 -11 -10   15.00    6.50
  -4 -11  10    3.60    5.00
   4 -11 -10   15.30    6.80
   4 -11 -10    6.70    5.70
  -4 -11  10    5.60    8.70
   3 -11 -10   14.30    6.40
  -3 -11  10   16.70    6.40
   3 -11 -10   15.00    7.30
  -3 -11  10   15.70    8.50
   2 -11 -10   14.60    6.10
   2 -11 -10    9.40    7.20
  -2 -11  10   11.50    4.90
  -2 -11  10   17.20    6.90
   1 -11 -10  123.79   15.90
  -1 -11  10   83.39   11.80
   1 -11 -10   94.29   12.60
  -1 -11  10   95.79   13.40
   0 -11 -10  146.59   15.10
   0 -11 -10  132.09   17.10
   0 -11  10  113.79   14.80
   0 -11  10  119.79   14.40
  -1 -11 -10  232.48   23.70
   1 -11  10  216.18   18.90
  -1 -11 -10  228.58   18.00
   1 -11  10  229.48   18.80
  -2 -11 -10   51.89    8.60
   2 -11  10   74.79   11.20
   2 -11  10   57.09   10.20
  -2 -11 -10   60.29   12.30
  -3 -11 -10   77.79   14.00
   3 -11  10   72.79   11.10
  -4 -11 -10   18.80    8.70
   4 -11  10   16.80    6.40
   4 -11  10   17.80    6.50
   5 -11  10   72.49   12.20
   5 -11  10   90.89   13.50
  -5 -11 -10   56.89   14.10
   6 -11  10   16.90    7.80
  -6 -11 -10   18.10   10.00
   7 -11  10   17.80    7.60
  -7 -11 -10   10.10    9.20
  -8 -11 -10   55.59   16.60
   8 -11  10   77.89   13.30
  10 -12 -10   -5.00    7.00
 -10 -12  10    5.00   14.60
   9 -12 -10   18.20    9.50
  -9 -12  10   26.20   16.50
  -8 -12  10  181.58   28.00
   8 -12 -10  221.48   25.50
  -8 -12  10  180.58   23.20
   7 -12 -10   34.90   10.70
  -7 -12  10   28.00   13.20
  -7 -12  10   12.40    7.10
  -6 -12  10   41.00   13.70
  -6 -12  10    6.20    5.90
   6 -12 -10    7.50    6.70
  -5 -12  10   10.10    6.10
   5 -12 -10   12.10    6.50
   5 -12 -10    7.80    6.30
  -5 -12  10   13.10    9.20
   4 -12 -10    4.60    5.50
  -4 -12  10   -2.00    7.50
  -4 -12  10   -3.90    3.30
   4 -12 -10   -2.20    4.90
   3 -12 -10   46.60   10.60
  -3 -12  10   55.29   10.80
  -3 -12  10   57.19   11.90
   3 -12 -10   41.10    9.90
  -2 -12  10    3.30    4.20
   2 -12 -10    0.90    5.20
   2 -12 -10    4.60    4.90
  -2 -12  10   11.80    6.00
   1 -12 -10   80.49   12.70
  -1 -12  10   73.59   11.60
   1 -12 -10   74.19   11.60
  -1 -12  10   79.29   11.90
   0 -12 -10  321.17   26.30
   0 -12 -10  355.96   25.40
   0 -12  10  338.77   25.10
   0 -12  10  334.07   25.40
  -1 -12 -10    7.00    7.10
   1 -12  10   11.50    5.80
   1 -12  10    3.90    5.00
  -1 -12 -10    8.20    5.00
   2 -12  10  136.69   16.30
  -2 -12 -10  121.59   17.60
   2 -12  10  117.09   14.50
  -2 -12 -10  129.49   14.20
   3 -12  10   37.70    8.40
   3 -12  10   37.60    8.80
  -3 -12 -10   25.40    9.30
   4 -12  10   67.99   11.60
   4 -12  10  106.39   14.80
  -4 -12 -10   93.09   16.20
  -5 -12 -10   -1.20    7.30
   5 -12  10   -6.00    4.00
   5 -12  10    2.10    4.80
  -6 -12 -10   91.89   18.10
   6 -12  10  112.29   15.30
   7 -12  10   10.00    6.00
  -7 -12 -10   14.30   10.70
 -10 -13  10   -0.80    6.80
  10 -13 -10   -4.30    8.90
 -10 -13  10    9.60   13.90
   9 -13 -10   -0.40    7.60
  -9 -13  10   25.10   16.10
  -9 -13  10    1.00    7.00
  -8 -13  10   15.10    8.70
  -8 -13  10   36.90   15.80
   8 -13 -10   24.50   11.00
   7 -13 -10   90.89   16.50
  -7 -13  10   72.69   14.70
  -7 -13  10  104.79   20.90
  -6 -13  10    0.00    5.40
   6 -13 -10   12.00    7.50
  -6 -13  10   22.30   11.80
   5 -13 -10   25.30    8.70
  -5 -13  10   12.20    7.00
  -5 -13  10   26.90   11.80
   5 -13 -10   26.70    8.40
   4 -13 -10   11.20    7.00
  -4 -13  10   38.60   11.30
  -4 -13  10   14.10    7.00
   4 -13 -10    9.80    6.90
   3 -13 -10    6.30    5.90
  -3 -13  10    8.30    5.70
   3 -13 -10   11.80    6.50
  -3 -13  10    9.80    6.20
   2 -13 -10   46.00    9.80
  -2 -13  10   71.69   11.80
  -2 -13  10   47.30    9.60
   2 -13 -10   71.39   12.10
  -1 -13  10   32.30    7.40
   1 -13 -10   14.50    6.50
  -1 -13  10   20.90    6.70
   1 -13 -10   14.90    7.70
   0 -13 -10   22.50    8.60
   0 -13  10   20.80    7.30
   0 -13 -10   16.90    6.20
   0 -13  10   20.30    6.60
  -1 -13 -10 1009.30   60.09
   1 -13  10  993.90   59.79
  -1 -13 -10  974.10   62.29
   1 -13  10 1001.10   61.09
   2 -13  10  236.18   23.00
   2 -13  10  230.88   19.10
  -2 -13 -10  193.98   19.60
  -2 -13 -10  218.48   24.50
   3 -13  10   32.60    8.60
   3 -13  10   36.20    8.30
  -3 -13 -10   32.90   11.20
   4 -13  10    5.30    5.10
   4 -13  10   -0.80    4.10
  -4 -13 -10   -6.50    6.40
   5 -13  10   94.99   13.40
  -5 -13 -10   38.00   12.40
   5 -13  10   63.69   12.60
  -6 -13 -10   11.30   10.50
   6 -13  10   23.50    8.30
   7 -13  10   -2.80    5.20
   9 -14 -10   -2.60    8.40
  -9 -14  10    0.70    6.30
  -8 -14  10   -7.30    5.20
   8 -14 -10   -1.60    6.70
  -7 -14  10   31.90   10.20
  -7 -14  10   18.00   14.30
   7 -14 -10   28.90   11.10
  -6 -14  10   66.99   13.30
  -6 -14  10  106.59   20.40
   6 -14 -10   85.59   15.70
  -5 -14  10  214.68   25.90
   5 -14 -10  175.98   22.20
  -5 -14  10  173.58   21.60
   4 -14 -10   21.00    8.00
  -4 -14  10   47.30   11.60
   4 -14 -10   46.30   11.30
  -4 -14  10   48.70   10.90
  -3 -14  10   54.49   10.70
   3 -14 -10   48.90   10.90
  -3 -14  10   60.19   10.90
   3 -14 -10   47.30   10.30
   2 -14 -10  100.49   15.10
  -2 -14  10  117.89   15.10
  -2 -14  10   91.79   13.00
   2 -14 -10  104.79   15.40
   1 -14 -10    6.50    6.70
  -1 -14  10    5.40    5.00
   1 -14 -10   16.00    6.80
  -1 -14  10   13.20    5.90
   0 -14  10   40.50    8.30
   0 -14 -10   17.30    7.10
   0 -14  10   50.09    9.80
   0 -14 -10   37.70   10.40
  -1 -14 -10   48.70    9.30
   1 -14  10   38.20    8.30
   1 -14  10   29.20    8.20
  -1 -14 -10   42.80   10.70
   2 -14  10    7.30    5.70
   2 -14  10    4.60    5.00
  -2 -14 -10   15.40    8.70
  -2 -14 -10    4.20    5.20
   3 -14  10   -0.10    5.00
   3 -14  10    5.00    4.90
  -3 -14 -10   -4.40    6.30
   4 -14  10   -1.40    4.30
  -4 -14 -10   -0.10    7.80
   4 -14  10   11.70    7.40
   5 -14  10   -4.80    3.90
  -5 -14 -10   -3.30    7.60
   5 -14  10    0.40    4.00
   6 -14  10    8.50    6.30
  -8 -15  10   89.69   16.90
   8 -15 -10   93.09   18.80
   7 -15 -10  351.76   38.30
  -7 -15  10  401.26   33.00
  -6 -15  10   29.60   10.40
   6 -15 -10   43.60   12.40
  -5 -15  10   60.49   13.00
   5 -15 -10   42.30   11.60
   4 -15 -10   72.99   12.70
   4 -15 -10   77.39   14.60
  -4 -15  10   82.59   13.40
   3 -15 -10   36.80   10.30
  -3 -15  10   40.60   10.20
   3 -15 -10   35.90   10.30
   2 -15 -10    0.90    5.50
  -2 -15  10   -0.10    5.10
   2 -15 -10   11.10    7.70
   1 -15 -10  161.28   18.80
   1 -15 -10  184.18   21.50
  -1 -15  10  152.38   19.00
   0 -15 -10   20.60    7.40
   0 -15  10   33.60    8.90
   0 -15 -10   31.90   10.10
   0 -15  10   44.30   10.10
  -1 -15 -10   16.70    6.70
  -1 -15 -10   -2.10    6.00
   1 -15  10   13.30    6.10
   1 -15  10    7.70    5.70
  -2 -15 -10   38.70   11.30
   2 -15  10   20.60    6.90
  -2 -15 -10   53.29    9.90
   2 -15  10   30.70    8.80
   3 -15  10   49.10    9.40
  -3 -15 -10   25.30   10.60
   3 -15  10   52.29   11.40
  -4 -15 -10    9.70    9.50
   4 -15  10    1.00    5.30
   4 -15  10   -2.00    5.60
   5 -15  10   15.80    7.10
   6 -16 -10  167.58   23.00
  -6 -16  10  127.99   19.40
   5 -16 -10   78.39   15.70
  -4 -16  10    0.30    5.80
   4 -16 -10   28.20    9.90
   4 -16 -10   25.90    9.90
   3 -16 -10    4.40    6.90
  -3 -16  10   24.60    9.10
   3 -16 -10   22.40    8.40
   2 -16 -10   -7.30    4.90
  -2 -16  10   -3.20    4.60
   2 -16 -10   -1.60    6.30
   1 -16 -10   10.70    7.30
  -1 -16  10   39.50    9.80
   1 -16 -10   13.30    8.80
   0 -16 -10   18.60    9.20
   0 -16  10   19.00    7.20
   0 -16 -10    8.80    6.80
   1 -16  10   16.10    7.40
  -1 -16 -10   20.80    9.70
  -1 -16 -10   16.90    8.00
  -2 -16 -10   49.40   12.90
  -2 -16 -10   64.09   14.00
   2 -16  10   87.19   14.10
   3 -16  10   17.20    8.20
  -3 -16 -10    7.10    8.80
   4 -17 -10   10.00    7.50
  -4 -17  10    2.20    6.40
   3 -17 -10    2.60    7.00
   3 -17 -10    0.50    7.40
  -3 -17  10    9.00    6.80
   2 -17 -10    9.40    8.00
   2 -17 -10   21.60    9.70
  -2 -17  10   14.30    7.50
  -1 -17  10  169.48   20.50
   1 -17 -10  153.78   20.80
   1 -17 -10  146.39   19.50
   0 -17 -10  129.49   18.80
   0 -17  10   96.69   15.50
   0 -17 -10  124.29   17.10
  -1 -17 -10    5.70    8.30
  -1 -17 -10    9.50    7.20
   1 -17  10    6.50    6.80
 -14   0  11   -4.70    9.40
 -13   0  11   47.40   15.90
 -12   0  11   10.80   10.30
 -11   0  11  180.88   27.90
 -10   0  11   13.00   10.30
  -9   0  11   34.80   11.40
  -8   0  11   18.10    8.60
  -7   0  11  134.59   20.40
  -6   0  11   58.39   12.50
  -5   0  11  102.89   16.20
  -4   0  11   10.80    6.20
  -3   0  11   15.00    6.80
   2   0 -11   -5.10    4.40
  -2   0  11    2.50    5.60
   1   0 -11 1035.50   64.59
  -1   0  11 1189.68   69.49
   0   0 -11    4.00    4.80
   0   0  11    0.50    3.90
   1   0  11  309.87   24.50
  -1   0 -11  304.37   23.50
   2   0  11   28.90    7.80
  -2   0 -11    7.30    6.50
  -3   0 -11   28.60    9.10
   3   0  11   17.40    6.20
  -4   0 -11    1.90    6.50
   4   0  11   -0.50    3.00
  -5   0 -11  320.37   26.40
   5   0  11  306.07   24.00
   6   0  11    1.40    3.70
  -6   0 -11    5.00    8.30
  -7   0 -11   48.60   13.80
   7   0  11   74.39   12.60
  -8   0 -11    1.20    8.30
   8   0  11    0.90    4.00
   9   0  11    6.00    5.30
  -9   0 -11    3.50   10.60
  10   0  11   -2.80    4.30
 -10   0 -11   -5.50    9.80
 -14  -1  11   68.39   18.70
 -14   1  11   53.79   17.80
 -13  -1  11   11.50   11.50
 -13   1  11   25.10   13.70
 -12  -1  11   92.49   20.70
 -12   1  11  102.99   21.20
 -11  -1  11   41.70   15.10
 -11   1  11   59.89   15.20
 -10  -1  11  124.19   20.80
 -10   1  11  110.59   20.60
  -9  -1  11  121.89   19.90
  -9   1  11  125.09   21.10
  -8  -1  11  591.64   45.70
   8  -1 -11  580.84   40.40
  -8   1  11  608.14   45.50
   7  -1 -11   50.59   10.40
  -7  -1  11   48.20   12.60
  -7   1  11   53.49   12.80
   6  -1 -11  106.29   14.30
  -6  -1  11  145.79   20.00
  -6   1  11  117.59   17.40
   5  -1 -11  109.69   13.70
  -5  -1  11   87.29   15.20
  -5   1  11   97.69   16.10
  -4  -1  11  124.09   17.80
   4  -1 -11  103.99   13.30
  -4   1  11  117.19   15.80
  -3  -1  11  134.69   18.80
   3  -1 -11  163.88   16.60
  -3   1  11  135.19   18.10
   2  -1 -11  312.07   23.10
  -2  -1  11  327.37   31.80
  -2   1  11  298.87   26.50
   1  -1 -11 1204.08   71.29
  -1  -1  11 1244.58   75.79
  -1   1  11 1230.08   75.19
   1   1 -11 1222.78   71.69
   0  -1 -11   -0.50    4.90
   0  -1  11    8.80    5.50
   0   1 -11    7.80    5.40
   0   1  11    7.90    5.20
   1  -1  11   41.40   10.00
  -1  -1 -11   55.59   10.30
   1   1  11   35.70    8.90
  -1   1 -11   40.00    9.10
  -2  -1 -11   66.39   11.80
   2  -1  11   64.89    5.60
   2  -1  11   68.09   11.80
   2   1  11   80.79   12.10
  -2   1 -11   73.19   12.30
   3  -1  11  428.26   29.70
  -3  -1 -11  398.06   29.90
  -3   1 -11  393.36   29.40
   3   1  11  392.86   28.60
  -4  -1 -11  126.89   17.60
   4  -1  11  130.09   16.40
  -4   1 -11  141.99   18.10
   4   1  11  148.39   16.80
  -5  -1 -11   24.20    9.60
   5  -1  11   14.00    5.50
  -5   1 -11   20.50    9.10
   5   1  11   15.90    5.80
   6  -1  11  206.98   21.40
  -6  -1 -11  185.18   23.50
   6   1  11  186.08   19.50
  -6   1 -11  202.98   23.10
  -7  -1 -11   71.09   15.50
   7  -1  11  103.99   14.10
   7   1  11  107.79   14.60
  -7   1 -11  112.69   18.20
   8  -1  11   12.20    5.50
  -8  -1 -11   14.40   10.70
  -8   1 -11    9.10    9.50
   8   1  11    7.60    5.20
   9  -1  11   31.10    9.30
  -9  -1 -11   16.60   10.90
   9   1  11   30.70    9.00
  -9   1 -11   32.80   12.60
  10  -1  11    9.20    6.80
 -10  -1 -11   23.70   13.20
 -10   1 -11   18.90   11.80
  10   1  11   23.90    8.20
 -14  -2  11    9.00   12.00
 -14   2  11   22.90   13.30
 -13  -2  11   72.79   18.40
 -13   2  11   63.99   18.40
 -12  -2  11   32.30   13.10
 -12   2  11   41.20   14.70
 -11  -2  11   17.10   11.20
  11  -2 -11   41.60   10.90
 -11   2  11   14.20    9.90
 -10  -2  11   38.00   12.90
  10  -2 -11   34.00    9.90
 -10   2  11   35.80   13.00
   9  -2 -11    5.10    5.70
  -9  -2  11   13.80    8.70
  -9   2  11    1.20    7.00
   8  -2 -11  105.69   15.10
  -8  -2  11  117.59   19.80
  -8   2  11   95.99   17.30
  -7  -2  11   74.99   15.60
   7  -2 -11   64.59   11.30
  -7   2  11   88.09   15.90
  -6  -2  11  101.09   18.00
   6  -2 -11  107.49   14.50
  -6   2  11  118.79   17.70
   5  -2 -11   19.60    6.80
  -5  -2  11   30.90    9.80
  -5   2  11   30.10    9.20
  -4  -2  11  167.68   21.10
   4  -2 -11  206.08   19.20
   4  -2 -11  137.79   16.30
  -4   2  11  152.68   18.80
   3  -2 -11   70.99   10.90
  -3  -2  11   73.09   13.80
   3  -2 -11   42.80    8.50
  -3   2  11   71.29   13.40
  -2  -2  11 1521.15   89.89
   2  -2 -11 1482.75   83.79
   2  -2 -11 1465.85   83.99
  -2   2  11 1413.16   87.79
  -1  -2  11  350.06   28.70
   1  -2 -11  383.26   26.00
   1  -2 -11  311.77   23.00
  -1   2  11  355.06   27.80
   0  -2  11  247.08   24.10
   0  -2 -11  216.28   19.20
   0   2  11  265.57   24.60
   0   2 -11  250.27   20.10
  -1  -2 -11   75.69   12.30
   1  -2  11  103.59   15.10
   1  -2  11   79.09    8.00
   1   2  11  103.29   14.00
  -1   2 -11   84.39   12.60
   2  -2  11  925.11   60.29
   2  -2  11 1002.00   54.29
  -2  -2 -11  979.50   59.99
  -2   2 -11  992.50   59.79
   2   2  11  979.70   59.59
  -3  -2 -11   31.50    9.90
   3  -2  11   27.60    7.50
   3   2  11   39.60    8.30
  -3   2 -11   19.90    8.20
   4  -2  11   24.50    7.00
  -4  -2 -11   14.20    8.30
  -4   2 -11   16.50    8.20
   4   2  11   19.20    6.00
   5  -2  11   64.49   10.80
  -5  -2 -11   54.09   12.90
  -5   2 -11   47.30   12.40
   5   2  11   62.19   10.30
  -6  -2 -11   24.00   10.30
   6  -2  11   15.00    6.50
  -6   2 -11   28.60    9.90
   6   2  11   23.70    6.80
   7  -2  11   80.89   12.80
  -7  -2 -11   81.59   16.30
   7   2  11   79.09   12.30
  -7   2 -11   87.79   15.40
  -8  -2 -11   -1.80    8.70
   8  -2  11    3.10    4.70
   8   2  11   -1.70    3.60
  -8   2 -11    3.00    8.30
  -9  -2 -11   50.89   14.90
   9  -2  11   65.39   12.80
   9   2  11   45.80   10.40
  -9   2 -11   61.69   14.60
  10  -2  11    6.50    6.30
 -10  -2 -11   11.70   11.80
  10   2  11    8.10    5.80
  13  -3 -11    3.90    6.80
 -13  -3  11    7.00   10.20
 -13   3  11   16.00   11.00
 -12  -3  11   -6.70    6.50
  12  -3 -11    3.40    6.50
 -12   3  11    4.50    9.70
  11  -3 -11   21.00    8.10
 -11  -3  11   12.80    9.40
 -11   3  11   14.20   10.70
 -10  -3  11    6.20    8.40
  10  -3 -11   22.70    8.50
 -10   3  11   20.40   10.60
   9  -3 -11  197.88   22.80
  -9  -3  11  176.58   26.70
  -9   3  11  191.78   26.00
  -8  -3  11   13.10    9.20
   8  -3 -11    9.40    6.40
  -8   3  11   14.10    8.90
   7  -3 -11    6.30    5.40
  -7  -3  11   14.30    8.50
  -7   3  11    9.70    7.40
  -6  -3  11  172.08   22.50
   6  -3 -11  154.58   18.60
  -6   3  11  177.58   21.00
  -5  -3  11   84.79   15.20
   5  -3 -11   53.29   10.70
   5  -3 -11   89.39   11.90
  -5   3  11   83.09   13.40
  -4  -3  11   82.39   14.90
   4  -3 -11  107.69   13.50
   4  -3 -11   81.89   12.60
  -4   3  11  113.49   15.10
   3  -3 -11  613.74   36.80
   3  -3 -11  558.84   37.30
  -3  -3  11  585.44   42.10
  -3   3  11  507.05   38.60
   2  -3 -11   34.30    7.40
   2  -3 -11   42.00    8.20
  -2  -3  11   34.30   10.30
  -2   3  11   62.29   12.50
   1  -3 -11  480.35   32.50
  -1  -3  11  527.55   37.90
   1  -3 -11  509.65   33.80
  -1   3  11  540.55   36.60
   0  -3 -11   -3.20    4.50
   0  -3 -11    2.90    3.10
   0  -3  11    4.60    4.80
   0   3  11    3.40    4.20
   1  -3  11   63.39   11.90
  -1  -3 -11   45.90    6.50
  -1  -3 -11   80.79   13.00
   1  -3  11   50.69    6.50
   1   3  11   67.99   10.70
   2  -3  11   59.89    6.90
  -2  -3 -11   46.60   10.90
   2  -3  11   58.39   10.80
   2   3  11   77.19   11.30
  -3  -3 -11  159.38   19.30
   3  -3  11  146.59   17.80
   3   3  11  175.08   17.20
  -3   3 -11  159.38   19.20
  -4  -3 -11   47.70   11.00
   4  -3  11   43.30    9.60
   4   3  11   53.19    8.90
  -4   3 -11   42.80   11.00
  -5  -3 -11  474.85   37.00
   5  -3  11  491.55   34.50
   5   3  11  491.95   33.10
  -5   3 -11  509.65   35.80
   6  -3  11  743.13   47.30
  -6  -3 -11  726.43   50.09
   6   3  11  684.33   45.00
  -6   3 -11  722.83   47.90
   7  -3  11   42.80    9.60
  -7  -3 -11   37.10   12.80
   7   3  11   23.50    7.10
  -7   3 -11   28.00   10.40
   8  -3  11  219.38   23.40
  -8  -3 -11  148.99   24.20
  -8   3 -11  215.28   25.00
   8   3  11  182.08   20.20
   9  -3  11   14.10    6.50
  -9  -3 -11   23.80   13.20
   9   3  11   43.10    9.50
  -9   3 -11   30.30   12.40
 -10  -3 -11    6.50   12.90
  10  -3  11   29.50    9.20
  10   3  11   16.20    7.50
  13  -4 -11  219.78   27.00
 -13   4  11  227.28   32.30
  12  -4 -11    9.50    7.70
 -12  -4  11   17.00   10.60
 -12   4  11   18.40   11.70
  11  -4 -11   15.60    8.50
 -11  -4  11   28.30   12.90
 -11   4  11   25.40   11.80
  10  -4 -11  199.78   24.60
 -10  -4  11  182.28   28.00
 -10   4  11  208.88   27.40
   9  -4 -11  151.78   20.70
  -9  -4  11  172.28   26.10
  -9   4  11  233.48   27.90
   8  -4 -11  638.04   45.90
  -8  -4  11  697.73   51.89
  -8   4  11  685.93   48.80
   7  -4 -11  301.77   26.80
  -7  -4  11  351.56   36.10
  -7   4  11  364.36   29.60
   6  -4 -11   12.20    5.90
   6  -4 -11   17.80    7.00
  -6  -4  11    4.40    6.80
  -6   4  11   32.20    9.20
   5  -4 -11  312.97   26.30
   5  -4 -11  371.86   24.50
  -5  -4  11  312.77   33.40
  -5   4  11  379.86   28.30
   4  -4 -11 1281.37   87.79
   4  -4 -11 1733.83   92.39
  -4  -4  11 1686.53   96.69
  -4   4  11 1743.33   93.19
   3  -4 -11   59.99   10.70
  -3  -4  11  113.19   18.00
   3  -4 -11   98.89   12.70
  -3   4  11   99.99   14.30
   2  -4 -11   18.00    6.60
   2  -4 -11   11.20    5.10
  -2  -4  11   37.60   10.90
  -2   4  11   14.20    7.20
  -1  -4  11   16.10    6.60
   1  -4 -11   20.20    5.60
   1  -4 -11   12.50    6.50
  -1   4  11   13.00    6.60
   0  -4  11  106.89   11.00
   0  -4  11  134.39   17.50
   0  -4 -11  127.69   15.50
   0  -4 -11  116.39   12.80
   0   4  11  141.19   16.20
   1  -4  11  179.08   20.20
  -1  -4 -11  154.28   13.70
  -1  -4 -11  172.18   19.50
   1  -4  11  187.28   13.30
   1   4  11  248.08   21.40
   2  -4  11   22.00    7.30
   2  -4  11    6.80    2.90
  -2  -4 -11    9.90    6.50
   2   4  11    2.60    3.50
  -3  -4 -11   27.60    9.40
   3  -4  11   46.30    9.60
   3   4  11   36.20    7.50
  -4  -4 -11  119.29   17.60
   4  -4  11   97.69   13.80
   4   4  11  126.09   13.80
   5  -4  11  247.98   20.80
  -5  -4 -11  208.68   25.80
   5   4  11  243.28   19.10
  -6  -4 -11  205.78   25.50
   6  -4  11  156.08   18.90
   6   4  11  204.08   16.90
  -7  -4 -11   13.40    9.90
   7  -4  11   13.30    6.20
   7   4  11    8.00    4.50
   8  -4  11    5.50    5.50
  -8  -4 -11   10.10   10.90
   8   4  11    6.10    4.50
  -9  -4 -11   14.50   11.70
   9  -4  11   18.60    7.60
   9   4  11    8.70    5.60
 -10  -4 -11   66.29   17.90
  10  -4  11   77.49   14.50
  10   4  11   75.79   12.80
  13  -5 -11    4.30    8.20
 -13  -5  11   26.20   13.50
 -13   5  11   20.90   13.00
  12  -5 -11   38.90   12.40
 -12  -5  11   27.50   14.20
 -12   5  11   61.99   17.00
  11  -5 -11  267.57   29.80
 -11  -5  11  234.18   33.30
 -11   5  11  282.57   34.50
 -10  -5  11  236.58   32.30
  10  -5 -11  301.57   31.10
 -10   5  11  373.16   37.40
   9  -5 -11  652.13   49.90
  -9  -5  11  767.52   57.09
  -9   5  11  813.12   54.59
   8  -5 -11   16.00    8.10
  -8  -5  11   20.80   10.60
  -8   5  11   26.10   10.30
  -7  -5  11   44.80   13.80
   7  -5 -11   34.10    9.10
  -7   5  11   33.00    9.90
  -6  -5  11  135.39   21.30
   6  -5 -11  118.99   17.00
   6  -5 -11  148.39   15.30
  -6   5  11  124.39   17.40
   5  -5 -11   54.59    9.40
  -5  -5  11   42.80   11.80
   5  -5 -11   62.39   11.10
  -5   5  11   64.19   11.50
   4  -5 -11  253.97   21.10
  -4  -5  11  273.87   30.00
  -4   5  11  241.58   21.30
   3  -5 -11  311.77   24.80
   3  -5 -11  347.67   24.30
  -3  -5  11  359.26   29.80
  -3   5  11  316.27   25.90
  -2  -5  11   70.29   14.60
   2  -5 -11   79.79   10.80
   2  -5 -11   56.49   10.60
  -2   5  11   87.19   13.80
   1  -5 -11   11.50    4.80
  -1  -5  11    5.50    5.40
   1  -5 -11    0.40    4.40
  -1   5  11   -1.40    3.10
   0  -5 -11   32.00    8.40
   0  -5  11   31.30    5.50
   0  -5 -11   16.00    5.20
   0  -5  11   23.20    7.30
   0   5  11   21.50    5.90
  -1  -5 -11  150.48   14.30
   1  -5  11  126.79   11.50
  -1  -5 -11  143.99   18.10
   1  -5  11  153.48   17.80
   1   5  11  193.28   18.10
   2  -5  11  202.18   21.00
  -2  -5 -11  216.98   22.60
   2  -5  11  191.78   14.50
   2   5  11  181.98   15.90
  -3  -5 -11   44.10   10.60
   3  -5  11   59.09    7.60
   3  -5  11   47.90    9.80
   3   5  11   51.79    8.30
  -4  -5 -11   18.60    8.40
   4  -5  11   12.50    5.80
   4   5  11    7.20    4.20
  -5  -5 -11  121.29   18.80
   5  -5  11  115.99   15.30
   5   5  11  102.09   12.50
   6  -5  11   37.10    9.40
  -6  -5 -11   41.50   12.70
   6   5  11   31.60    7.40
  -7  -5 -11   -3.00    7.50
   7  -5  11    2.60    4.50
   7   5  11    9.70    4.80
  -8  -5 -11  128.39   22.30
   8  -5  11  159.08   20.10
   8   5  11  175.88   18.40
   9  -5  11   16.60    8.10
  -9  -5 -11   28.70   12.90
   9   5  11   27.70    8.00
  10  -5  11  137.39   19.70
  10   5  11  133.19   17.40
 -13  -6  11   42.20   16.10
  13  -6 -11   64.19   15.30
 -13   6  11   63.89   18.70
  12  -6 -11   86.69   17.00
 -12  -6  11   61.69   19.00
 -12   6  11  137.99   23.90
 -11  -6  11  125.79   24.90
  11  -6 -11  194.08   24.80
 -11   6  11  219.48   29.50
 -10  -6  11  150.98   26.00
  10  -6 -11  248.88   28.30
 -10   6  11  214.58   27.80
  -9  -6  11  189.88   28.80
   9  -6 -11  248.88   28.10
  -9   6  11  271.97   30.60
   8  -6 -11  137.39   18.80
  -8  -6  11  115.59   21.60
  -8   6  11  137.49   20.10
   7  -6 -11  205.78   23.50
  -7  -6  11  230.28   29.40
   7  -6 -11  235.08   18.10
  -7   6  11  254.07   27.00
   6  -6 -11   13.80    6.60
   6  -6 -11   21.30    6.40
  -6  -6  11   23.60   10.30
  -6   6  11   15.20    7.30
   5  -6 -11   47.80    9.00
   5  -6 -11   51.39   10.70
  -5  -6  11   59.29   13.90
  -5   6  11   50.39   10.30
   4  -6 -11   46.70    9.40
  -4  -6  11   47.30   12.50
   3  -6 -11  218.78   18.10
   3  -6 -11  216.08   21.00
  -3  -6  11  276.97   29.10
  -3   6  11  163.08   19.80
  -2  -6  11  589.84   43.30
   2  -6 -11  627.24   39.20
   2  -6 -11  617.54   39.20
  -2   6  11  571.84   40.30
  -1  -6  11    0.80    1.70
   1  -6 -11    6.60    4.40
  -1  -6  11    8.40    5.30
   1  -6 -11    4.40    5.30
  -1   6  11   19.70    6.50
   0  -6  11    8.70    3.50
   0  -6 -11   13.10    6.20
   0  -6 -11   16.10    5.10
   0  -6  11   14.80    6.60
   0   6  11    9.80    4.40
   1  -6  11   30.50    7.90
  -1  -6 -11   23.70    5.60
  -1  -6 -11   27.10    8.20
   1  -6  11   26.50    5.40
   1   6  11   17.40    5.20
  -2  -6 -11  198.98   22.40
   2  -6  11  186.38   20.50
   2  -6  11  175.68   14.20
   2   6  11  174.88   14.80
   3  -6  11   33.10    6.10
   3  -6  11   26.70    7.80
  -3  -6 -11   27.90    8.90
  -4  -6 -11  435.56   34.00
   4  -6  11  448.36   32.10
  -5  -6 -11    7.40    7.90
   5  -6  11   15.60    6.20
   5   6  11    9.00    4.20
  -6  -6 -11    2.50    7.70
   6  -6  11    2.80    4.70
   6   6  11    3.80    3.10
   7  -6  11  146.09   18.40
  -7  -6 -11  146.39   22.30
   7   6  11  145.79   16.20
   8  -6  11   14.70    7.10
  -8  -6 -11   15.10   10.80
   8   6  11    8.80    5.20
   9  -6  11    8.90    6.40
  -9  -6 -11   -5.70    8.70
   9   6  11    6.50    4.70
 -13  -7  11   37.00   16.60
 -13   7  11   97.09   21.80
  12  -7 -11    8.30    9.20
 -12  -7  11    6.60   10.60
 -12   7  11   20.10   12.40
  11  -7 -11  576.64   44.90
 -11   7  11  560.64   46.40
  10  -7 -11   95.39   18.00
 -10  -7  11   60.99   18.00
 -10   7  11  129.89   21.50
   9  -7 -11    6.70    7.20
  -9  -7  11   -6.80    7.50
  -9   7  11   13.70    8.10
  -8  -7  11   26.80   12.00
   8  -7 -11   23.80    8.90
  -8   7  11   15.20    8.30
  -7  -7  11   85.49   18.10
   7  -7 -11   61.09   12.40
  -7   7  11   77.99   13.90
   6  -7 -11  279.87   20.80
  -6  -7  11  277.77   32.90
   6  -7 -11  299.07   24.70
  -6   7  11  274.47   23.90
   5  -7 -11   84.69   11.60
   5  -7 -11   56.79   10.90
  -5  -7  11   68.79   15.90
  -5   7  11   42.30    9.30
   4  -7 -11   44.80    8.80
   4  -7 -11   60.19   11.10
  -4  -7  11   72.59   15.00
  -4   7  11   72.69   11.70
  -3  -7  11   47.50   13.20
   3  -7 -11  114.79   14.30
   3  -7 -11   92.29   13.20
  -3   7  11  100.09   14.40
   2  -7 -11  239.28   20.30
  -2  -7  11  271.57   28.30
  -2  -7  11  249.78   19.60
   2  -7 -11  272.47   21.20
  -2   7  11  289.27   22.40
  -1  -7  11   50.19    7.90
   1  -7 -11   64.09    9.60
   1  -7 -11   55.19   10.50
  -1  -7  11   37.80    9.50
  -1   7  11   61.59   10.10
   0  -7  11   17.20    6.30
   0  -7 -11    6.00    5.50
   0  -7  11    7.70    3.70
   0  -7 -11    6.40    3.90
   0   7  11    9.60    4.10
  -1  -7 -11  298.47   24.20
   1  -7  11  287.67   23.70
   1  -7  11  301.07   21.10
  -1  -7 -11  261.97   20.50
   1   7  11  347.47   22.00
   2  -7  11   71.29    9.30
   2  -7  11   48.50   10.10
  -2  -7 -11   39.40    9.80
   2   7  11   60.09    8.60
   3  -7  11  542.25   36.10
  -3  -7 -11  474.25   36.40
   3  -7  11  504.85   32.70
   3   7  11  534.05   32.70
   4  -7  11  238.08   20.80
  -4  -7 -11  223.58   25.10
   4   7  11  241.28   18.00
  -5  -7 -11   79.09   16.00
   5  -7  11  114.59   15.40
   5   7  11  118.99   12.90
   6  -7  11   75.29   12.90
  -6  -7 -11   95.89   17.90
  -7  -7 -11   20.50   11.90
   7  -7  11   22.20    7.90
   7   7  11   37.00    7.60
   8  -7  11   30.20    9.40
  -8  -7 -11   18.60   12.40
   8   7  11   19.50    6.20
   9  -7  11   11.60    7.50
  -9  -7 -11    9.10   11.60
   9   7  11   10.20    5.20
  12  -8 -11   18.70   11.20
 -12  -8  11    8.90   12.80
 -12   8  11   17.40    9.90
  11  -8 -11   -0.40    7.60
 -11  -8  11    0.50    9.50
 -11   8  11   16.80   10.20
 -10  -8  11   19.80   12.20
  10  -8 -11   49.70   14.00
 -10   8  11   44.00   13.40
  -9  -8  11   15.40   12.00
   9  -8 -11   -2.50    5.90
  -9   8  11   13.90    9.00
   8  -8 -11    4.20    6.60
  -8  -8  11   -8.00    7.40
  -8   8  11    0.10    5.70
  -7  -8  11   -5.00    8.20
   7  -8 -11    7.60    7.20
  -7   8  11   -2.60    2.90
   6  -8 -11    5.80    5.50
   6  -8 -11    3.10    5.70
  -6  -8  11    3.00    9.10
  -6   8  11   12.00    6.30
   5  -8 -11  160.38   19.50
   5  -8 -11  178.08   15.30
  -5  -8  11  167.28   24.60
  -5   8  11  155.78   18.30
   4  -8 -11   52.19   10.20
   4  -8 -11   48.10    9.80
  -4  -8  11   66.49   14.90
  -4   8  11   53.49   10.00
   3  -8 -11  144.79   17.30
   3  -8 -11  167.58   18.20
  -3  -8  11  157.58   22.20
  -3   8  11  178.38   19.00
   2  -8 -11   51.39    9.50
   2  -8 -11   43.60    9.60
  -2  -8  11   30.10    9.80
  -2  -8  11   37.40    7.80
  -2   8  11   49.60    9.40
   1  -8 -11   45.90    8.80
  -1  -8  11   43.80   10.30
   1  -8 -11   55.69   10.70
  -1  -8  11   65.99    9.70
  -1   8  11   47.70    8.20
   0  -8  11    0.20    1.90
   0  -8 -11   12.90    6.90
   0  -8  11    9.90    5.00
   0  -8 -11   11.20    4.60
   0   8  11   14.40    4.50
  -1  -8 -11   36.60    9.50
  -1  -8 -11   21.30    5.60
   1  -8  11   13.90    4.80
   1  -8  11   24.40    7.70
   1   8  11   19.10    4.80
   2  -8  11   57.29   11.10
   2  -8  11   41.20    7.90
   2   8  11   40.50    6.80
  -3  -8 -11  245.58   26.80
   3  -8  11  297.87   21.10
   3  -8  11  262.77   22.30
   3   8  11  275.37   19.40
   4  -8  11  267.37   22.60
  -4  -8 -11  258.27   29.10
   4   8  11  280.97   19.70
  -5  -8 -11    1.60    7.70
   5  -8  11   15.90    6.50
   5   8  11    4.80    3.40
   6  -8  11   -3.60    4.00
  -6  -8 -11   -0.80    7.10
   6   8  11    9.10    3.90
  -7  -8 -11    4.40    8.30
   7  -8  11    5.90    5.40
   7   8  11    0.90    3.30
  -8  -8 -11  128.79   23.20
   8  -8  11  162.58   19.90
  -9  -8 -11    2.30   10.80
   9  -8  11    0.70    5.90
   9   8  11    0.50    4.00
  12  -9 -11   34.60   12.20
 -12  -9  11   16.20   13.20
 -12   9  11   42.60   14.50
  11  -9 -11   29.10   11.10
 -11  -9  11    6.60   11.20
 -11   9  11   19.10   10.80
 -10  -9  11   42.40   16.80
  10  -9 -11   38.20   11.70
 -10   9  11   46.50   14.10
  -9  -9  11   11.20   11.90
   9  -9 -11   35.50   11.80
  -9   9  11   55.39   14.80
  -8  -9  11   12.80   11.80
   8  -9 -11   11.70    7.20
  -8   9  11    3.60    4.30
   7  -9 -11    0.40    5.70
  -7  -9  11   -0.20    9.30
  -7   9  11    4.50    6.10
   6  -9 -11  185.08   22.60
  -6  -9  11  273.27   31.90
   6  -9 -11  220.68   17.80
  -6   9  11  187.08   21.40
   5  -9 -11   21.00    7.30
  -5  -9  11   24.00   11.30
   5  -9 -11   27.70    8.40
  -5   9  11   29.70    8.10
  -4  -9  11   11.80    9.60
   4  -9 -11   12.90    6.30
   4  -9 -11    5.70    5.00
  -4   9  11    9.40    5.40
  -3  -9  11  671.13   43.90
  -3  -9  11  587.34   47.30
   3  -9 -11  735.93   44.10
   3  -9 -11  693.43   44.90
  -3   9  11  724.73   44.70
  -2  -9  11  108.39   16.30
   2  -9 -11   87.69   13.50
  -2  -9  11  106.29   13.30
   2  -9 -11  104.99   14.00
  -2   9  11  102.49   13.10
  -1  -9  11   38.20    7.60
   1  -9 -11   65.89   11.40
  -1  -9  11   51.59   10.70
   1  -9 -11   45.00    8.80
  -1   9  11   59.99    8.60
   0  -9 -11  224.18   24.00
   0  -9 -11  234.98   18.90
   0  -9  11  244.48   18.90
   0  -9  11  253.67   21.20
   0   9  11  253.27   17.90
  -1  -9 -11  109.79   12.60
   1  -9  11  116.39   15.30
   1  -9  11  107.59   13.40
  -1  -9 -11  121.19   17.10
   1   9  11  120.49   10.40
   2  -9  11   29.10    7.70
  -2  -9 -11    7.40    6.50
   2  -9  11   35.10    7.40
   3  -9  11   52.79   10.10
  -3  -9 -11   57.89   13.20
   3  -9  11   60.89   10.20
   3   9  11   67.59    8.50
  -4  -9 -11  129.69   19.80
   4  -9  11  162.48   18.40
   4   9  11  155.18   12.90
  -5  -9 -11   27.00   11.40
   5  -9  11   20.80    7.30
   5   9  11   13.10    7.00
   6  -9  11   20.50    7.60
  -6  -9 -11   19.60   10.70
  -7  -9 -11   34.40   14.00
   7  -9  11   31.80    9.00
   8  -9  11  171.18   20.80
  -8  -9 -11  123.69   23.20
  11 -10 -11   56.79   14.80
 -11 -10  11   64.59   21.00
 -11  10  11  110.89   20.30
  10 -10 -11   55.49   14.20
 -10 -10  11   34.40   16.30
 -10  10  11   26.80   11.10
  -9 -10  11    0.80   13.70
   9 -10 -11    3.70    7.10
  -9  10  11    2.00    6.80
  -8 -10  11   41.00   15.10
   8 -10 -11   22.30    9.90
  -8  10  11   37.00   10.90
   7 -10 -11  352.06   30.80
  -7 -10  11  392.26   40.80
  -7  10  11  362.36   29.30
  -6 -10  11  143.19   24.20
   6 -10 -11  112.99   17.50
   6 -10 -11  142.09   22.90
  -6  10  11  152.08   18.40
   5 -10 -11   28.40    8.10
  -5 -10  11   39.80   13.80
   5 -10 -11   33.60    9.10
  -5  10  11   27.60    8.00
  -4 -10  11  357.16   26.10
   4 -10 -11  258.17   22.60
   4 -10 -11  337.37   26.30
  -4 -10  11  389.96   36.60
   3 -10 -11   68.69   12.10
   3 -10 -11   92.39   13.50
  -3 -10  11   93.09   16.50
  -3 -10  11   60.29   10.70
  -3  10  11   80.19   14.10
  -2 -10  11  188.58   21.30
   2 -10 -11  166.98   19.10
   2 -10 -11  176.18   18.50
  -2 -10  11  143.99   16.60
   1 -10 -11  170.68   19.50
  -1 -10  11  135.99   15.60
   1 -10 -11  192.38   18.80
  -1 -10  11  162.58   18.90
   0 -10 -11   24.00    8.40
   0 -10  11   32.50    7.30
   0 -10 -11   30.90    7.10
   0 -10  11   23.80    7.80
  -1 -10 -11   10.30    4.80
   1 -10  11   17.50    6.30
  -1 -10 -11   18.10    8.40
   1 -10  11   20.50    5.80
   2 -10  11   42.30    9.30
  -2 -10 -11   26.60    9.20
   2 -10  11   28.40    7.10
  -3 -10 -11   67.49   13.90
   3 -10  11   62.09   10.20
   3 -10  11   67.19   11.60
   4 -10  11   50.99   10.00
   4 -10  11   56.59   10.30
  -4 -10 -11   38.90   11.30
   5 -10  11   29.10    8.60
  -5 -10 -11   24.50   10.80
   6 -10  11   33.20    9.10
  -6 -10 -11   18.90   11.10
  -7 -10 -11   73.59   18.20
   7 -10  11   70.39   12.70
  -8 -10 -11   14.80   12.30
   8 -10  11   14.60    7.30
  11 -11 -11    7.80    9.00
 -11 -11  11   20.50   16.40
 -11  11  11    6.10   10.10
 -10 -11  11    9.50   14.50
  10 -11 -11   26.30   10.50
 -10  11  11   39.70   13.00
   9 -11 -11   23.60   11.00
  -9 -11  11   29.80   17.20
  -9  11  11   43.20   18.50
  -8 -11  11   34.70   16.10
   8 -11 -11   26.80   10.60
   7 -11 -11   81.09   15.50
  -7 -11  11   84.29   20.00
  -6 -11  11  188.78   27.50
   6 -11 -11  205.38   23.40
  -6 -11  11  194.58   22.90
  -5 -11  11   33.60    8.80
   5 -11 -11   62.29   10.70
  -5 -11  11   43.50   14.20
   5 -11 -11   84.79   13.90
   4 -11 -11   21.90    7.70
  -4 -11  11   22.70   10.90
  -4 -11  11   22.20    7.40
   4 -11 -11   17.60    6.80
   3 -11 -11  263.47   22.20
  -3 -11  11  243.98   21.20
  -3 -11  11  245.48   27.00
   3 -11 -11  263.97   22.00
  -2 -11  11    7.40    5.40
   2 -11 -11    9.70    6.90
  -2 -11  11   18.20    7.70
   2 -11 -11    7.50    5.10
   1 -11 -11  119.69   15.10
   1 -11 -11  121.39   16.70
  -1 -11  11  108.59   14.30
  -1 -11  11  133.29   16.50
   0 -11 -11  125.59   14.80
   0 -11 -11  130.69   17.50
   0 -11  11  125.19   14.80
   0 -11  11  124.49   15.90
  -1 -11 -11   95.49   12.40
   1 -11  11   86.59   12.70
   1 -11  11   74.99   11.30
  -1 -11 -11   89.89   15.10
   2 -11  11    2.90    3.20
  -2 -11 -11    1.70    6.70
   2 -11  11   16.60    6.30
   3 -11  11   17.30    6.50
  -3 -11 -11   14.90    8.70
   3 -11  11    8.50    5.60
   4 -11  11   49.10    9.70
  -4 -11 -11   32.60   11.50
   4 -11  11   45.90    9.80
   5 -11  11   10.10    6.20
  -5 -11 -11    9.80    9.50
  -6 -11 -11   19.70   10.80
   6 -11  11   15.10    7.10
  -7 -11 -11   17.40   12.00
   7 -11  11   28.60    9.10
  10 -12 -11   13.40   10.00
 -10 -12  11   40.10   18.00
   9 -12 -11   27.60   11.70
  -9 -12  11   33.80   16.60
  -8 -12  11    2.50    6.30
   8 -12 -11   -1.20    6.20
  -8 -12  11    2.00   13.00
  -7 -12  11   28.50   13.80
  -7 -12  11   41.30   11.00
   7 -12 -11    1.90    7.20
  -6 -12  11   30.70   12.70
   6 -12 -11   24.20    9.20
  -6 -12  11   33.00    9.90
  -5 -12  11   50.29   15.00
  -5 -12  11   39.60   10.40
   5 -12 -11   56.69   10.50
   5 -12 -11   68.39   13.00
  -4 -12  11   19.50    9.30
  -4 -12  11    2.90    5.10
   4 -12 -11    7.70    6.70
   4 -12 -11   -2.40    4.40
   3 -12 -11   70.29   12.50
  -3 -12  11   83.99   14.60
  -3 -12  11   63.19   11.30
   3 -12 -11   61.49   11.80
   2 -12 -11   64.09   11.60
  -2 -12  11   61.89   10.50
   2 -12 -11   52.59   11.60
  -2 -12  11   65.69   12.10
  -1 -12  11    8.60    5.80
   1 -12 -11    7.40    6.80
  -1 -12  11    9.50    4.90
   1 -12 -11   11.80    5.90
   0 -12  11   75.79   12.40
   0 -12  11   94.99   13.20
   0 -12 -11   91.89   14.90
   0 -12 -11   93.19   13.10
   1 -12  11  837.72   52.19
   1 -12  11  837.82   52.19
  -1 -12 -11  850.31   54.79
  -1 -12 -11  820.62   51.49
   2 -12  11   40.00    9.40
  -2 -12 -11   37.10   11.10
   2 -12  11   28.60    7.80
   3 -12  11   63.19   10.60
  -3 -12 -11   51.79   13.20
   3 -12  11   26.80    8.10
  -4 -12 -11   -5.60    6.60
   4 -12  11   -1.40    4.90
   4 -12  11    8.80    6.00
   5 -12  11   14.50    7.20
  -5 -12 -11    4.10    9.00
  -6 -12 -11   54.49   15.40
   6 -12  11   43.60   10.40
   7 -12  11   -5.90    5.10
  -9 -13  11   12.00    8.70
  -9 -13  11    9.90   13.90
   9 -13 -11   16.20   11.20
   8 -13 -11  174.78   23.90
  -8 -13  11  113.79   19.40
  -8 -13  11  146.29   27.10
  -7 -13  11   11.50   12.60
   7 -13 -11   -0.10    7.40
  -7 -13  11   12.10    7.70
  -6 -13  11    6.80   10.60
  -6 -13  11   -3.60    5.30
   6 -13 -11    5.40    6.60
  -5 -13  11   46.40   13.90
   5 -13 -11   25.60    9.50
   5 -13 -11   27.00    9.30
  -5 -13  11   28.70    8.70
  -4 -13  11  133.99   16.80
   4 -13 -11   91.39   15.00
  -4 -13  11  131.89   19.20
   4 -13 -11  100.49   15.80
  -3 -13  11   15.90    7.30
   3 -13 -11   21.40    7.90
   3 -13 -11   14.80    7.30
  -3 -13  11   40.70   10.30
   2 -13 -11  142.59   18.50
   2 -13 -11  120.29   16.80
  -2 -13  11  135.99   17.40
  -2 -13  11  165.08   18.00
   1 -13 -11   39.80    9.40
   1 -13 -11   51.49   11.20
  -1 -13  11   50.99   10.00
  -1 -13  11   28.80    8.00
   0 -13  11  450.55   32.90
   0 -13 -11  467.55   34.60
   0 -13 -11  460.15   33.00
   0 -13  11  493.75   32.90
  -1 -13 -11    3.00    5.10
   1 -13  11   -1.00    4.80
  -1 -13 -11   12.80    7.90
   1 -13  11   13.60    6.10
   2 -13  11   58.09   11.10
   2 -13  11   55.39   10.10
  -2 -13 -11   73.29   14.60
   3 -13  11   65.99   11.30
  -3 -13 -11  101.79   17.40
   3 -13  11   96.59   14.00
   4 -13  11   -3.30    4.70
   4 -13  11   -2.80    4.30
  -4 -13 -11   -2.70    7.70
  -5 -13 -11   24.10   11.10
   5 -13  11   22.20    7.80
   6 -13  11   -6.00    5.30
  -6 -13 -11    1.80    9.60
   8 -14 -11   80.79   17.90
  -8 -14  11   94.59   17.50
  -8 -14  11  104.89   25.70
  -7 -14  11   82.29   15.80
   7 -14 -11   55.59   13.60
  -7 -14  11   71.49   18.20
  -6 -14  11  191.98   23.80
  -6 -14  11  252.37   30.80
   6 -14 -11  231.38   28.10
   5 -14 -11   72.09   14.80
  -5 -14  11   54.39   14.20
  -5 -14  11   50.29   11.30
   4 -14 -11   10.40    7.30
  -4 -14  11   24.70    9.10
   4 -14 -11   17.50    7.30
  -4 -14  11   30.30    9.30
  -3 -14  11   38.80   10.00
   3 -14 -11   41.80   10.50
   3 -14 -11   27.00   10.00
  -3 -14  11   37.40    9.40
  -2 -14  11   15.40    6.40
   2 -14 -11   15.40    7.70
   2 -14 -11    9.80    5.80
  -2 -14  11    6.50    5.80
   1 -14 -11   44.70   11.10
   1 -14 -11   60.99   11.30
  -1 -14  11   55.59   10.40
   0 -14  11   13.40    6.10
   0 -14 -11    8.80    7.00
   0 -14  11   11.80    5.90
   0 -14 -11   -4.70    5.20
  -1 -14 -11   42.30   11.60
   1 -14  11   52.59    9.60
  -1 -14 -11   61.89   10.60
   1 -14  11   68.59   11.50
   2 -14  11   50.59    9.80
   2 -14  11   59.69   11.00
  -2 -14 -11   63.79   14.30
   3 -14  11   29.00    8.00
   3 -14  11   38.40    9.80
  -3 -14 -11   21.50   10.00
  -4 -14 -11    2.80    8.70
   4 -14  11   13.20    6.20
   4 -14  11   -0.50    4.30
   5 -14  11   12.60    7.20
  -5 -14 -11   -7.50    8.00
   7 -15 -11   51.79   14.90
  -7 -15  11   38.20   10.30
   6 -15 -11  327.57   34.00
  -6 -15  11  352.96   30.00
   5 -15 -11  145.19   21.10
  -5 -15  11  174.18   21.70
   4 -15 -11   61.59   13.00
  -4 -15  11   73.69   13.40
   4 -15 -11   39.10   10.50
   3 -15 -11   11.70    8.10
  -3 -15  11    1.60    5.60
   3 -15 -11    4.40    7.60
   2 -15 -11   66.39   12.80
   2 -15 -11   52.09   12.20
  -2 -15  11   52.59   14.20
  -2 -15  11   49.99   10.80
   1 -15 -11   20.80    8.90
   1 -15 -11    7.60    6.30
  -1 -15  11   10.60    5.50
  -1 -15  11    2.10    4.80
   0 -15  11   41.10    9.00
   0 -15 -11   56.09   13.00
   0 -15  11   55.79   11.50
   0 -15 -11   50.09   10.30
   1 -15  11   18.50    6.70
  -1 -15 -11    7.90    6.50
  -1 -15 -11    3.20    7.40
   1 -15  11   11.80    6.80
   2 -15  11   75.39   11.80
   2 -15  11   71.89   13.00
  -2 -15 -11   85.59   16.30
   3 -15  11   14.70    6.50
  -3 -15 -11   19.00   10.80
   3 -15  11   14.80    7.50
   4 -15  11    0.90    5.50
   5 -16 -11   37.30   11.80
  -5 -16  11   30.20   10.60
   4 -16 -11    6.30    7.30
   4 -16 -11    8.20   10.00
  -4 -16  11    0.70    5.30
  -3 -16  11   26.10    9.30
   3 -16 -11   17.60    8.90
   3 -16 -11    7.40    7.50
   2 -16 -11    6.50    7.20
   2 -16 -11    1.70    8.00
  -2 -16  11   -2.50    5.50
   1 -16 -11   37.40   11.30
   1 -16 -11   16.30    8.90
  -1 -16  11   28.50    9.30
   0 -16 -11   28.60    9.30
   0 -16 -11   24.70   11.30
   0 -16  11   18.10    8.00
   1 -16  11   60.99   12.00
  -1 -16 -11   48.90   11.50
  -1 -16 -11   50.69   13.30
   2 -16  11   14.10    7.20
  -2 -16 -11   14.70   10.50
 -13   0  12    7.70   11.40
 -12   0  12   40.90   15.00
 -11   0  12   20.30   12.20
 -10   0  12   45.40   14.00
  -9   0  12    2.30    6.20
  -8   0  12 2385.06  141.39
  -7   0  12   31.50   10.40
  -6   0  12  488.05   37.90
  -5   0  12    3.60    5.80
  -4   0  12  509.35   38.10
  -3   0  12    6.10    6.20
   2   0 -12  807.32   50.79
  -2   0  12  834.72   55.29
   1   0 -12   -6.20    5.60
  -1   0  12   -2.40    4.70
   0   0 -12    4.20    5.30
   0   0  12   -5.70    3.30
  -1   0 -12    4.90    5.30
   1   0  12   -0.90    3.60
  -2   0 -12   23.20    8.50
   2   0  12   21.90    7.40
  -3   0 -12    5.80    6.80
   3   0  12   22.00    7.10
  -4   0 -12  379.46   29.90
   4   0  12  365.56   28.20
   5   0  12    7.50    4.70
  -5   0 -12   -2.00    7.50
   6   0  12  236.58   23.50
  -6   0 -12  203.38   26.20
  -7   0 -12    5.40    9.90
   7   0  12    5.40    5.60
  -8   0 -12   38.00   13.90
   8   0  12   11.80    6.60
   9   0  12    2.00    4.90
  -9   0 -12   -7.20    9.20
  10   0  12   40.70   10.40
 -13  -1  12   46.60   15.10
 -13   1  12   29.50   14.10
 -12  -1  12   21.10   11.50
 -12   1  12   14.50   11.10
 -11  -1  12   48.50   15.40
 -11   1  12   47.70   15.60
 -10  -1  12   60.19   17.00
 -10   1  12   60.79   15.70
  -9  -1  12  267.37   33.10
  -9   1  12  196.88   26.70
  -8  -1  12  293.37   35.00
  -8   1  12  340.77   35.80
  -7  -1  12  222.98   26.30
  -7   1  12  198.18   24.80
  -6  -1  12    7.70    7.40
  -6   1  12   18.60    8.10
  -5  -1  12  533.05   40.70
  -5   1  12  563.34   40.50
  -4  -1  12    1.90    5.70
  -4   1  12    8.70    6.30
   3  -1 -12  138.99   16.50
  -3  -1  12  136.39   19.30
  -3   1  12  158.48   20.30
   2  -1 -12 1136.99   65.09
  -2  -1  12 1079.39   69.59
  -2   1  12 1024.40   68.49
   1  -1 -12 1212.68   74.49
  -1  -1  12 1344.97   79.29
   1   1 -12 1277.97   75.19
  -1   1  12 1280.67   78.39
   0  -1 -12   50.79   10.60
   0  -1  12   58.09   11.60
   0   1 -12   55.59   10.90
   0   1  12   55.19   10.90
  -1  -1 -12   84.99   14.00
   1  -1  12   74.59   13.10
   1   1  12  101.49   14.80
  -1   1 -12   91.09   13.10
   2  -1  12   13.60    6.00
  -2  -1 -12   11.50    6.90
  -2   1 -12   11.80    7.00
   2   1  12   27.40    7.90
  -3  -1 -12  100.79   15.90
   3  -1  12  148.09   17.90
  -3   1 -12  111.59   17.20
   3   1  12  155.68   17.70
  -4  -1 -12    9.00    8.10
   4  -1  12    8.60    5.20
   4   1  12    1.50    3.60
  -4   1 -12   13.60    8.50
  -5  -1 -12    0.20    8.10
   5  -1  12    0.70    4.00
   5   1  12   -1.10    3.70
  -5   1 -12    1.90    7.70
   6  -1  12  263.17   23.20
  -6  -1 -12  305.47   31.80
   6   1  12  257.77   22.70
  -6   1 -12  314.17   31.70
   7  -1  12  181.38   20.00
  -7  -1 -12  102.69   18.30
  -7   1 -12  114.49   19.10
   7   1  12  154.98   18.30
  -8  -1 -12    8.70   11.10
   8  -1  12    2.00    4.60
  -8   1 -12   20.20   10.70
   8   1  12    6.50    5.00
  -9  -1 -12   63.59   17.70
   9  -1  12   60.19   12.30
   9   1  12   38.50   10.10
  -9   1 -12   47.50   14.10
  10  -1  12    7.60    6.50
  10   1  12    5.70    5.80
 -13  -2  12   12.90   11.70
 -13   2  12   39.00   15.20
 -12  -2  12    8.30   10.40
 -12   2  12   12.80   10.10
 -11  -2  12   -1.70    8.00
 -11   2  12    0.00    8.00
  10  -2 -12   38.40   10.20
 -10  -2  12   33.20   13.10
 -10   2  12   35.30   12.20
  -9  -2  12   83.29   17.90
   9  -2 -12   96.29   15.00
  -9   2  12   74.09   15.70
   8  -2 -12  420.76   32.10
  -8  -2  12  418.56   36.70
  -8   2  12  408.46   35.40
   7  -2 -12   90.19   14.20
  -7  -2  12   84.39   16.00
  -7   2  12   89.19   16.20
  -6  -2  12  223.78   27.20
   6  -2 -12  262.57   24.70
  -6   2  12  223.88   25.30
   5  -2 -12  110.19   14.60
  -5  -2  12   84.69   15.60
  -5   2  12  119.39   17.10
  -4  -2  12  138.09   19.70
   4  -2 -12  143.29   16.60
   4  -2 -12  103.89   14.20
  -4   2  12  148.19   19.10
   3  -2 -12  220.08   18.90
  -3  -2  12  286.27   29.40
   3  -2 -12  219.28   18.60
  -3   2  12  210.28   23.50
  -2  -2  12  302.47   31.60
   2  -2 -12  289.17   21.90
   2  -2 -12  297.07   23.00
  -2   2  12  302.67   26.20
  -1  -2  12  725.73   50.49
   1  -2 -12  717.83   47.00
  -1   2  12  812.82   50.49
   0  -2  12   25.30    8.10
   0  -2 -12   23.10    8.00
   0   2  12   30.70    8.40
   1  -2  12   63.19   12.30
  -1  -2 -12   76.29   12.80
   1  -2  12   83.79    8.40
  -1   2 -12  105.69   14.60
   1   2  12   89.79   13.90
   2  -2  12   25.80    7.70
  -2  -2 -12   20.70    7.80
   2   2  12   14.20    5.90
  -2   2 -12   18.10    8.00
  -3  -2 -12   -1.80    5.90
   3  -2  12    3.90    4.40
  -3   2 -12   -0.90    6.30
   3   2  12    7.60    4.20
  -4  -2 -12   33.00   10.90
   4  -2  12   31.90    8.00
  -4   2 -12   38.70   11.00
   4   2  12   29.90    7.70
  -5  -2 -12    9.80    8.60
   5  -2  12    7.60    5.40
  -5   2 -12    9.30    8.30
   5   2  12   22.50    6.70
  -6  -2 -12  353.76   32.00
   6  -2  12  378.46   29.50
  -6   2 -12  447.36   33.00
   6   2  12  368.96   28.40
   7  -2  12  280.37   25.10
  -7  -2 -12  254.77   31.20
  -7   2 -12  353.06   29.20
   7   2  12  330.67   25.20
  -8  -2 -12   19.40   11.00
   8  -2  12   15.00    7.20
   8   2  12   15.00    6.30
  -8   2 -12   26.00   11.60
  -9  -2 -12  104.39   20.80
   9  -2  12   91.69   15.70
   9   2  12   63.09   12.20
  -9   2 -12   69.19   16.80
 -13  -3  12   13.20   11.60
 -13   3  12   63.59   18.60
 -12  -3  12   32.00   14.30
  12  -3 -12   30.50   10.80
 -12   3  12   30.70   14.00
 -11  -3  12    3.90    9.20
  11  -3 -12   -2.20    6.50
 -11   3  12    6.50    8.40
  10  -3 -12   75.09   15.10
 -10  -3  12   45.80   15.00
 -10   3  12   55.39   14.70
   9  -3 -12    3.20    6.20
  -9  -3  12   21.50   10.70
  -9   3  12   18.40    9.30
   8  -3 -12   14.40    7.10
  -8  -3  12   12.10    8.50
  -8   3  12    6.10    7.40
  -7  -3  12   17.70    9.80
   7  -3 -12   39.30    9.80
  -7   3  12   28.40    9.50
  -6  -3  12   82.99   16.20
   6  -3 -12  106.59   15.40
  -6   3  12  119.19   17.30
  -5  -3  12   46.40   12.30
   5  -3 -12   36.60    7.60
   5  -3 -12   64.39   11.60
  -5   3  12   74.69   12.90
  -4  -3  12  301.17   32.10
   4  -3 -12  274.77   23.10
   4  -3 -12  294.17   22.30
  -4   3  12  307.57   29.80
  -3  -3  12  319.57   32.10
   3  -3 -12  257.67   21.10
   3  -3 -12  255.87   21.40
  -3   3  12  291.87   27.90
  -2  -3  12  265.57   29.70
   2  -3 -12  266.97   20.90
   2  -3 -12  266.87   21.50
  -2   3  12  267.77   27.30
   1  -3 -12  447.96   31.90
  -1  -3  12  491.55   35.60
   1  -3 -12  448.86   30.20
  -1   3  12  453.85   33.60
   0  -3 -12  415.76   29.30
   0  -3 -12  353.16   25.50
   0  -3  12  439.16   31.40
   0   3  12  408.66   29.60
   1  -3  12  115.39   17.00
   1  -3  12   98.59    9.90
  -1  -3 -12  100.79   15.40
   1   3  12  114.59   15.00
   2  -3  12   10.70    5.70
  -2  -3 -12    7.60    6.60
   2   3  12    6.80    4.70
  -3  -3 -12  162.08   20.40
   3  -3  12  189.78   21.30
   3   3  12  193.48   18.90
  -3   3 -12  137.09   18.50
   4  -3  12  149.29   19.00
  -4  -3 -12  180.18   22.80
  -4   3 -12  183.98   21.70
   4   3  12  210.38   20.30
  -5  -3 -12  179.68   24.10
   5  -3  12  240.48   24.10
   5   3  12  212.28   18.50
  -5   3 -12  206.68   24.20
  -6  -3 -12   43.40   12.70
   6  -3  12   40.50    9.90
   6   3  12   41.90    8.90
  -6   3 -12   29.80   10.80
   7  -3  12  112.59   16.00
  -7  -3 -12  118.59   20.80
   7   3  12   95.59   13.80
  -7   3 -12  120.29   19.10
   8  -3  12   23.80    8.20
  -8  -3 -12   34.70   14.30
   8   3  12   44.70    9.60
  -8   3 -12   19.40   11.40
  -9  -3 -12   18.30   12.90
   9  -3  12    8.00    6.50
  -9   3 -12    2.10   10.80
   9   3  12   -3.00    3.60
 -13  -4  12   -8.10    9.20
  13  -4 -12   -5.00    6.40
 -13   4  12   13.20   10.90
 -12  -4  12   16.30   11.90
  12  -4 -12   55.59   13.10
 -12   4  12   37.40   14.40
 -11  -4  12   33.20   12.50
  11  -4 -12   45.60   13.00
 -11   4  12   77.59   17.80
  10  -4 -12   12.90    8.30
 -10  -4  12   26.30   12.40
 -10   4  12   46.40   14.00
   9  -4 -12  542.95   40.60
  -9  -4  12  455.35   48.50
  -9   4  12  621.84   44.80
  -8  -4  12    4.50    8.20
   8  -4 -12    8.10    6.20
  -8   4  12    9.00    8.00
  -7  -4  12   56.99   14.70
   7  -4 -12   66.09   12.60
  -7   4  12   67.09   13.40
   6  -4 -12    7.30    5.80
  -6  -4  12   17.50    9.50
   6  -4 -12    6.10    5.90
  -6   4  12    3.00    5.70
   5  -4 -12    2.30    4.80
   5  -4 -12    6.90    5.80
  -5  -4  12   11.90    7.70
  -5   4  12   22.30    8.00
   4  -4 -12   98.49   14.60
  -4  -4  12   92.29   17.90
   4  -4 -12  124.69   15.40
  -4   4  12   96.19   14.70
   3  -4 -12  277.77   21.70
  -3  -4  12  312.97   32.40
   3  -4 -12  247.58   21.90
  -3   4  12  285.27   27.20
   2  -4 -12   21.40    7.20
   2  -4 -12   16.70    6.00
  -2  -4  12   21.30    8.70
  -2   4  12   24.20    8.10
  -1  -4  12  395.66   31.70
   1  -4 -12  359.86   27.40
   1  -4 -12  399.66   29.10
  -1   4  12  475.05   31.60
   0  -4 -12   24.60    6.50
   0  -4 -12   36.30    8.90
   0  -4  12   25.20    8.20
   0  -4  12   26.60    5.20
   0   4  12   40.70    8.50
   1  -4  12   55.09   11.50
  -1  -4 -12   57.79    8.30
   1  -4  12   68.69    8.20
  -1  -4 -12   54.89   12.10
   1   4  12   90.29   12.80
   2  -4  12  172.48   12.70
   2  -4  12  174.48   19.70
  -2  -4 -12  138.09   18.40
   2   4  12  163.28   17.50
   3  -4  12   29.90    8.20
  -3  -4 -12   22.10    8.80
   3   4  12   47.00    8.70
   4  -4  12   10.00    4.70
  -4  -4 -12    0.90    7.30
   4   4  12    2.30    3.30
  -5  -4 -12  247.78   28.50
   5  -4  12  296.97   24.80
   5   4  12  331.07   23.50
   6  -4  12   65.99   12.40
  -6  -4 -12   46.20   12.70
   6   4  12   57.89   10.10
   7  -4  12   46.70   10.50
  -7  -4 -12   40.70   14.30
   7   4  12   52.69   10.00
   8  -4  12    8.90    5.80
  -8  -4 -12    6.50    9.00
   8   4  12   14.90    5.90
  -9  -4 -12   34.80   14.30
   9  -4  12   48.80   11.60
   9   4  12   50.29   10.20
  13  -5 -12  117.09   19.80
 -13  -5  12  101.49   22.90
 -13   5  12  120.09   24.00
  12  -5 -12   31.30   11.00
 -12  -5  12   17.20   11.40
 -12   5  12   52.09   16.00
  11  -5 -12   12.50    9.30
 -11  -5  12   14.60   11.70
 -11   5  12   40.10   13.90
 -10  -5  12    1.60    7.70
  10  -5 -12    4.50    6.70
 -10   5  12   10.90    9.40
  -9  -5  12   12.30   10.00
   9  -5 -12   16.70    8.50
  -9   5  12   18.50   10.50
   8  -5 -12  101.49   16.70
  -8  -5  12   68.69   17.50
  -8   5  12   83.39   16.30
  -7  -5  12    1.20    8.30
   7  -5 -12   -2.50    4.80
  -7   5  12    2.90    5.30
   6  -5 -12  172.78   21.20
  -6  -5  12  158.58   24.00
   6  -5 -12  189.48   16.20
  -6   5  12  165.28   20.90
   5  -5 -12  376.36   26.40
   5  -5 -12  352.46   28.80
  -5  -5  12  397.26   33.90
  -5   5  12  387.26   29.80
   4  -5 -12   26.70    7.80
   4  -5 -12   28.40    7.50
  -4  -5  12   58.39   13.80
  -4   5  12   39.80    9.90
   3  -5 -12   90.69   13.00
  -3  -5  12   84.49   16.70
   3  -5 -12   91.29   13.20
  -3   5  12  106.99   15.30
   2  -5 -12  113.59   15.60
   2  -5 -12   95.49   13.50
  -2  -5  12  119.69   19.40
  -2   5  12  171.58   19.60
   1  -5 -12   58.79   10.90
   1  -5 -12   32.10    7.50
  -1  -5  12   42.00   10.00
  -1   5  12   56.49   10.40
   0  -5 -12  229.78   20.80
   0  -5  12  238.18   17.40
   0  -5  12  268.17   22.50
   0  -5 -12  222.28   18.50
   0   5  12  264.37   20.60
   1  -5  12    8.00    5.50
  -1  -5 -12    8.00    7.30
   1  -5  12    5.10    3.40
  -1  -5 -12    3.60    4.10
   1   5  12    0.40    3.40
   2  -5  12  305.17   20.10
   2  -5  12  305.87   24.70
  -2  -5 -12  255.97   23.90
   2   5  12  293.87   22.20
   3  -5  12   50.99   10.50
  -3  -5 -12   40.20   11.30
   3   5  12   73.19   10.30
   4  -5  12   11.00    5.50
  -4  -5 -12    1.90    7.90
   4   5  12    6.00    3.80
  -5  -5 -12   15.50    9.20
   5  -5  12   16.60    6.80
   5   5  12    6.00    4.30
  -6  -5 -12   14.20    9.80
   6  -5  12    7.80    5.60
   6   5  12   10.00    5.10
  -7  -5 -12   54.29   15.70
   7  -5  12   38.90    9.80
   7   5  12   58.19   10.00
  -8  -5 -12   -4.60    9.50
   8  -5  12   19.20    7.90
   8   5  12    9.30    5.30
  -9  -5 -12   27.10   13.70
   9  -5  12   40.30   11.20
   9   5  12   36.80    8.90
 -13  -6  12   34.20   15.00
 -13   6  12   45.80   16.00
 -12  -6  12   16.50   12.20
  12  -6 -12   -1.70    6.30
 -12   6  12    7.70    9.80
  11  -6 -12  630.44   47.70
 -11   6  12  624.94   50.09
 -10  -6  12  110.39   21.90
  10  -6 -12  207.68   25.50
 -10   6  12  129.29   21.70
  -9  -6  12   54.79   16.70
   9  -6 -12   38.40   11.30
  -9   6  12   56.69   14.10
   8  -6 -12    2.50    6.40
  -8  -6  12   -1.10    8.20
  -8   6  12    7.00    7.10
  -7  -6  12  109.19   20.30
   7  -6 -12  130.39   18.90
   7  -6 -12  106.49   13.40
  -7   6  12   80.69   15.10
  -6  -6  12   13.40   10.30
   6  -6 -12   10.60    6.50
   6  -6 -12   17.90    7.20
  -6   6  12   13.20    7.40
   5  -6 -12  139.29   17.70
   5  -6 -12  122.89   15.00
  -5  -6  12  122.69   21.70
  -5   6  12  109.79   15.80
   4  -6 -12   13.00    6.10
   4  -6 -12   25.70    8.00
  -4  -6  12   19.40   10.40
  -4   6  12   15.10    6.30
   3  -6 -12    3.90    4.80
  -3  -6  12    4.50    7.00
   3  -6 -12    7.80    5.90
  -3   6  12   -0.50    2.70
   2  -6 -12   19.70    6.00
  -2  -6  12   11.80    7.40
   2  -6 -12   20.90    7.00
  -2   6  12    2.60    3.20
   1  -6 -12    3.10    4.00
   1  -6 -12    4.10    5.60
  -1  -6  12    4.10    5.20
  -1  -6  12    9.30    3.60
  -1   6  12   12.50    5.60
   0  -6 -12   21.30    8.00
   0  -6  12   20.40    5.20
   0  -6 -12   22.10    6.30
   0  -6  12   17.00    6.90
   0   6  12   35.80    7.80
  -1  -6 -12  692.33   42.30
   1  -6  12  825.12   47.70
   1  -6  12  746.93   42.00
  -1  -6 -12  700.83   46.10
   1   6  12  552.64   42.20
  -2  -6 -12   82.79   14.40
   2  -6  12  105.19   11.60
   2  -6  12  120.09   16.40
   3  -6  12  181.98   19.90
  -3  -6 -12  160.18   20.90
  -4  -6 -12   -2.80    7.00
   4  -6  12    2.00    4.50
   4   6  12   11.80    4.70
  -5  -6 -12   15.10    8.40
   5  -6  12   15.50    6.40
   5   6  12   21.90    5.90
  -6  -6 -12  154.58   23.50
   6  -6  12  201.88   22.50
   6   6  12  167.48   17.60
   7  -6  12   51.99   11.80
  -7  -6 -12   67.99   17.10
   7   6  12   65.89   10.70
  -8  -6 -12   -7.20    9.70
   8  -6  12    0.30    4.90
   8   6  12    2.10    3.80
  -9  -6 -12    4.70   11.30
   9  -6  12    0.70    5.20
   9   6  12   -2.00    4.00
 -12  -7  12   12.40   11.60
  12  -7 -12    8.90    9.30
 -12   7  12    7.60   10.10
  11  -7 -12   29.00   11.60
 -11  -7  12   52.29   17.60
 -11   7  12   51.79   15.40
  10  -7 -12  187.28   25.80
 -10  -7  12  139.79   25.60
 -10   7  12  192.98   26.90
  -9  -7  12   -2.10    8.50
   9  -7 -12   -3.60    5.10
  -9   7  12    6.80    7.00
  -8  -7  12   83.79   19.90
   8  -7 -12  103.49   17.40
  -8   7  12   95.49   17.00
  -7  -7  12   15.10   10.70
   7  -7 -12    9.60    7.30
  -7   7  12   13.30    7.10
   6  -7 -12   29.70    8.30
   6  -7 -12   17.20    7.30
  -6  -7  12   17.40    9.90
  -6   7  12   13.60    7.10
   5  -7 -12  115.59   16.30
  -5  -7  12  108.59   20.20
   5  -7 -12  143.99   16.00
   4  -7 -12   10.70    6.00
  -4  -7  12   26.40   11.30
   4  -7 -12    6.70    5.20
  -4   7  12   12.30    6.30
   3  -7 -12   10.60    5.80
  -3  -7  12   10.10    8.20
   3  -7 -12    7.20    6.10
  -3   7  12   15.00    6.50
  -2  -7  12    8.10    4.20
  -2  -7  12    4.90    6.10
   2  -7 -12   -0.30    5.50
  -2   7  12   11.10    5.80
   1  -7 -12   66.59   11.60
   1  -7 -12   55.69    9.70
  -1  -7  12   56.29   11.80
  -1   7  12   88.19   12.50
   0  -7  12  349.77   25.20
   0  -7 -12  382.76   28.70
   0  -7 -12  367.26   26.50
   0  -7  12  396.66   29.80
   0   7  12  410.06   27.10
   1  -7  12  193.78   15.80
  -1  -7 -12  220.98   24.30
  -1  -7 -12  186.28   16.20
   1  -7  12  238.88   23.50
   1   7  12  197.28   16.60
   2  -7  12  240.58   24.30
  -2  -7 -12  224.78   25.30
   2  -7  12  210.68   17.10
   2   7  12  230.18   17.80
  -3  -7 -12  200.48   23.70
   3  -7  12  240.38   24.20
   4  -7  12  757.82   49.99
  -4  -7 -12  729.03   51.89
   4   7  12  792.62   46.70
   5  -7  12   10.40    5.90
  -5  -7 -12   31.20   10.90
   5   7  12    0.70    2.40
   6  -7  12   52.79   11.50
  -6  -7 -12   38.60   12.40
   6   7  12   41.90    8.00
  -7  -7 -12   -3.90    8.20
   7  -7  12   -4.70    4.40
   7   7  12   -0.90    3.10
   8  -7  12   39.80   11.10
  -8  -7 -12    8.80   13.10
   8   7  12   23.80    7.20
 -12  -8  12    6.30   11.40
  12  -8 -12    6.30    9.30
 -12   8  12    6.80   10.60
 -11  -8  12  113.59   23.40
  11  -8 -12  140.29   23.00
 -11   8  12  138.59   23.10
  10  -8 -12   -2.00    6.40
 -10  -8  12    6.10   11.60
 -10   8  12    5.60    8.80
   9  -8 -12    6.00    7.40
  -9  -8  12    6.50   12.60
  -9   8  12    9.70    8.00
   8  -8 -12    0.90    7.00
  -8  -8  12    9.50   10.30
  -8   8  12   10.10    6.60
  -7  -8  12   26.20   12.90
   7  -8 -12    0.20    6.00
  -7   8  12    9.90    6.10
  -6  -8  12   28.50   12.30
   6  -8 -12   20.70    7.80
   6  -8 -12   30.70    9.20
  -6   8  12   26.70    8.00
   5  -8 -12   12.90    6.70
  -5  -8  12   11.00    9.70
   5  -8 -12    3.40    5.60
  -5   8  12    8.20    6.00
   4  -8 -12    5.80    4.30
   4  -8 -12   14.60    6.50
  -4  -8  12   29.10   11.80
  -4   8  12   10.80    6.00
   3  -8 -12  450.35   31.00
  -3  -8  12  375.46   34.60
   3  -8 -12  425.96   31.40
  -3   8  12  459.75   32.30
  -2  -8  12   19.50    8.30
   2  -8 -12   18.40    7.70
   2  -8 -12    7.90    5.60
  -2  -8  12   18.40    5.60
  -2   8  12   28.20    8.00
  -1  -8  12    0.70    4.90
  -1  -8  12   10.90    4.70
   1  -8 -12   10.30    5.10
   1  -8 -12    5.20    6.20
  -1   8  12   11.60    4.80
   0  -8 -12   85.09   11.90
   0  -8 -12   89.29   14.90
   0  -8  12   99.89   12.10
   0  -8  12  104.29   15.30
   0   8  12  124.29   13.60
   1  -8  12  540.25   33.80
   1  -8  12  532.55   36.80
  -1  -8 -12  497.45   33.80
  -1  -8 -12  494.65   36.70
   1   8  12  531.55   33.30
   2  -8  12  153.28   18.50
   2  -8  12  171.48   16.40
  -2  -8 -12  154.68   20.90
   2   8  12  137.19   14.30
   3  -8  12  334.17   26.50
  -3  -8 -12  309.07   27.60
   3   8  12  346.57   23.30
   4  -8  12   52.49   10.80
  -4  -8 -12   42.30   11.90
   4   8  12   49.99    7.90
  -5  -8 -12   19.80    9.70
   5  -8  12   22.40    8.10
   5   8  12   28.60    6.40
   6  -8  12   27.80    9.40
  -6  -8 -12   19.20   10.70
   6   8  12   38.60    7.60
  -7  -8 -12  -10.60    8.40
   7  -8  12    1.30    5.60
   7   8  12    2.00    3.30
   8  -8  12  130.19   18.90
  -8  -8 -12   66.99   18.50
  11  -9 -12   80.99   17.60
 -11  -9  12   92.19   23.40
 -11   9  12   84.19   18.90
  10  -9 -12   18.30   10.80
 -10  -9  12   16.10   13.80
 -10   9  12    8.50    9.40
  -9  -9  12    6.10   12.70
   9  -9 -12   19.00    9.20
  -9   9  12   17.40    9.00
  -8  -9  12   18.80   12.30
   8  -9 -12   39.90   12.00
  -8   9  12    0.20    3.50
  -7  -9  12   89.09   20.20
   7  -9 -12   60.79   13.70
  -7   9  12   67.29   12.70
   6  -9 -12  545.35   40.40
   6  -9 -12  546.85   36.00
  -6  -9  12  541.95   46.00
  -6   9  12  574.04   39.20
   5  -9 -12    4.20    5.80
   5  -9 -12    0.60    4.50
  -5  -9  12   12.90   10.10
  -5   9  12    5.10    5.40
  -4  -9  12  398.66   40.00
   4  -9 -12  384.76   30.70
  -4   9  12  435.66   30.80
  -3  -9  12  349.07   27.90
   3  -9 -12  414.76   29.40
  -3  -9  12  440.06   34.70
   3  -9 -12  397.66   29.70
  -3   9  12  397.76   29.70
  -2  -9  12  395.56   32.10
   2  -9 -12  453.35   30.60
  -2  -9  12  393.16   28.40
   2  -9 -12  407.26   29.60
  -2   9  12  382.96   28.50
   1  -9 -12  199.68   21.50
  -1  -9  12  187.88   16.20
   1  -9 -12  200.58   19.70
  -1  -9  12  200.88   22.70
  -1   9  12  174.98   15.50
   0  -9  12    4.90    3.10
   0  -9  12   16.20    6.70
   0  -9 -12   24.50    7.00
   0  -9 -12    7.70    6.60
   0   9  12   18.30    5.20
  -1  -9 -12    4.90    5.00
   1  -9  12    4.00    5.20
   1  -9  12    8.20    4.40
  -1  -9 -12   -5.70    5.50
   1   9  12    5.50    3.40
  -2  -9 -12   75.49   14.20
   2  -9  12   87.69   12.00
   2  -9  12   86.09   13.80
   2   9  12   81.79    9.80
   3  -9  12   38.40    9.10
   3  -9  12   29.20    7.50
  -3  -9 -12   28.10   10.10
   3   9  12   24.40    6.50
   4  -9  12  113.59   15.80
  -4  -9 -12   85.19   16.30
  -5  -9 -12    6.50    8.10
   5  -9  12   20.60    7.50
   6  -9  12   -1.20    4.50
  -6  -9 -12   -2.20    7.90
  -7  -9 -12  100.29   20.30
   7  -9  12  167.48   20.80
   8  -9  12  241.18   26.40
 -11 -10  12   43.40   17.90
  11 -10 -12   63.49   16.00
 -11  10  12   48.10   15.90
  10 -10 -12   -2.10    7.60
 -10 -10  12   -2.30   13.20
 -10  10  12   14.20    9.50
   9 -10 -12    6.10    8.70
  -9 -10  12   33.30   16.30
  -9  10  12   12.70    7.30
  -8 -10  12    7.30   14.10
   8 -10 -12    9.90    8.00
  -8  10  12   20.50    8.70
   7 -10 -12  517.75   41.40
  -7 -10  12  639.44   50.39
  -7  10  12  561.34   40.20
   6 -10 -12  152.48   20.00
  -6 -10  12  153.68   26.40
  -6  10  12  116.79   16.40
   5 -10 -12   48.30   10.20
  -5 -10  12   38.40   13.10
   5 -10 -12   44.80   11.10
  -5  10  12   30.00    8.30
   4 -10 -12   70.99   12.90
  -4 -10  12   48.60   10.00
  -4 -10  12   61.29   15.80
  -4  10  12   99.79   18.00
  -3 -10  12  633.74   43.50
   3 -10 -12  717.73   44.40
  -3 -10  12  675.03   48.10
   3 -10 -12  656.13   44.60
   2 -10 -12   80.19   13.40
   2 -10 -12   56.49   11.20
  -2 -10  12   68.39   13.60
  -2 -10  12   61.89   10.50
   1 -10 -12    9.10    5.60
   1 -10 -12    1.50    6.20
  -1 -10  12    3.10    4.00
  -1 -10  12    7.80    6.00
   0 -10 -12   13.70    6.20
   0 -10  12    7.90    5.90
   0 -10 -12   16.10    8.70
   0 -10  12   11.70    5.30
   1 -10  12    7.10    4.10
   1 -10  12   16.90    7.00
  -1 -10 -12    0.10    6.20
   2 -10  12  136.19   17.50
   2 -10  12  158.38   16.80
  -2 -10 -12  142.99   20.20
  -3 -10 -12    5.10    7.70
   3 -10  12   16.30    6.00
   3 -10  12    8.10    6.20
   4 -10  12   25.40    8.10
  -4 -10 -12    6.30    8.10
  -5 -10 -12    2.80    8.00
   5 -10  12    0.30    4.70
   6 -10  12    2.00    5.00
  -6 -10 -12   -7.20    8.20
   7 -10  12   12.30    7.70
  -7 -10 -12   11.80   11.60
  10 -11 -12  163.48   24.50
 -10 -11  12  120.99   26.00
   9 -11 -12    4.20    8.50
  -9 -11  12   32.50   17.70
  -8 -11  12   29.40   15.50
   8 -11 -12   19.10   10.10
  -7 -11  12   17.30   14.30
   7 -11 -12   26.90   10.60
  -6 -11  12  411.36   43.00
  -6 -11  12  380.36   32.20
   6 -11 -12  464.45   34.60
   5 -11 -12   31.70    8.80
  -5 -11  12   62.89   12.30
  -5 -11  12   33.50   13.80
   5 -11 -12   23.10    8.70
   4 -11 -12  144.69   19.20
  -4 -11  12  149.39   18.40
  -4 -11  12  167.28   23.10
   3 -11 -12   29.20    9.30
   3 -11 -12   22.70    8.20
  -3 -11  12   27.40    8.20
  -3 -11  12   30.90   11.00
  -2 -11  12   36.80    8.60
  -2 -11  12   49.30   11.60
   2 -11 -12   39.80    9.40
   2 -11 -12   39.60   10.20
   1 -11 -12   -2.70    6.10
   1 -11 -12   -3.40    4.70
  -1 -11  12   -0.70    3.20
  -1 -11  12   -2.40    4.50
   0 -11  12   39.60    8.20
   0 -11 -12   24.60    7.70
   0 -11 -12   20.20    9.60
   0 -11  12   30.40    8.40
   1 -11  12   59.19   10.00
  -1 -11 -12   54.79   14.30
   1 -11  12   78.29   12.70
  -2 -11 -12   49.10   12.60
   2 -11  12   47.90    9.30
   2 -11  12   47.70   10.10
   3 -11  12   94.69   13.60
  -3 -11 -12   85.09   16.90
   3 -11  12   80.89   13.30
   4 -11  12   18.60    6.60
  -4 -11 -12   12.70    9.10
  -5 -11 -12    1.60    8.80
   5 -11  12    6.40    6.50
  -6 -11 -12   53.39   15.70
   6 -11  12   91.69   15.00
   7 -11  12   -4.90    4.80
 -10 -12  12  123.69   26.90
   9 -12 -12  160.38   24.20
  -9 -12  12  141.19   28.80
   8 -12 -12   25.10   11.00
  -8 -12  12   38.20   17.00
  -7 -12  12   62.79   18.70
  -7 -12  12   80.99   16.10
   7 -12 -12   53.59   13.70
  -6 -12  12   20.00   12.60
  -6 -12  12   -1.00    5.20
   6 -12 -12    2.30    6.70
  -5 -12  12    0.20    4.80
   5 -12 -12   -1.10    5.60
   5 -12 -12    8.00    7.20
  -5 -12  12   -0.80   10.70
  -4 -12  12  230.98   27.90
  -4 -12  12  208.68   22.60
   4 -12 -12  223.38   24.20
  -3 -12  12   21.30    8.40
   3 -12 -12    8.50    5.60
   3 -12 -12   21.00    8.50
  -3 -12  12   10.90    5.90
  -2 -12  12   36.60    9.30
  -2 -12  12   26.70    8.20
   2 -12 -12   24.50    9.20
   2 -12 -12   21.80    8.40
  -1 -12  12  146.89   17.20
  -1 -12  12  120.49   16.00
   1 -12 -12  157.68   18.30
   1 -12 -12  121.79   17.90
   0 -12  12  327.17   25.70
   0 -12  12  331.67   25.10
   0 -12 -12  339.87   28.30
   0 -12 -12  299.67   24.90
   1 -12  12   14.60    6.10
   1 -12  12   16.70    7.00
  -1 -12 -12    2.80    7.70
   2 -12  12    1.70    3.20
   2 -12  12    7.90    5.60
  -2 -12 -12   23.00   10.40
   3 -12  12    3.90    5.30
  -3 -12 -12    5.50    7.60
   3 -12  12    1.30    4.80
   4 -12  12  130.59   17.00
  -4 -12 -12  122.19   20.30
  -5 -12 -12   81.49   17.30
   5 -12  12   68.79   13.10
  -6 -12 -12   -5.80    8.70
   6 -12  12   -1.80    6.40
  -9 -13  12   -7.80    5.70
   9 -13 -12   -8.40    7.90
  -9 -13  12   21.20   16.30
  -8 -13  12   15.10    9.00
   8 -13 -12   20.70   11.30
  -8 -13  12   18.00   15.00
  -7 -13  12    1.30    6.50
  -7 -13  12    3.90   10.80
   7 -13 -12    6.10    8.40
   6 -13 -12    8.80    8.20
  -6 -13  12   10.40   12.60
  -6 -13  12   15.20    8.10
  -5 -13  12   74.79   13.80
  -5 -13  12   96.59   18.80
   5 -13 -12   85.79   15.80
   5 -13 -12   62.19   19.20
   4 -13 -12   14.00    8.00
  -4 -13  12   36.10   11.30
  -4 -13  12   34.10    8.90
   3 -13 -12   97.89   15.30
  -3 -13  12   56.99   12.40
  -3 -13  12   69.39   12.80
   3 -13 -12   89.89   15.00
  -2 -13  12    9.20    5.40
  -2 -13  12    4.80    5.70
   2 -13 -12    7.20    6.50
   2 -13 -12   -6.00    5.90
   1 -13 -12   -1.40    6.60
  -1 -13  12    9.10    6.80
  -1 -13  12    3.20    5.00
   1 -13 -12    8.30    6.80
   0 -13  12   33.30    8.40
   0 -13 -12   25.10    9.40
   0 -13 -12   13.80    6.90
   0 -13  12   22.10    6.90
   1 -13  12   90.49   13.10
  -1 -13 -12  100.69   17.30
   1 -13  12   73.89   12.40
  -2 -13 -12   24.60   10.50
   2 -13  12    7.10    5.70
   2 -13  12    6.60    5.20
   3 -13  12    5.30    5.10
  -3 -13 -12    9.40    9.50
   3 -13  12    8.90    5.90
   4 -13  12   47.60   10.60
  -4 -13 -12   46.40   14.30
   5 -13  12  125.79   17.50
  -5 -13 -12  112.59   21.70
  -8 -14  12   29.90   16.50
  -7 -14  12    2.20   13.40
  -7 -14  12   -5.20    6.30
   7 -14 -12   -2.00    7.70
   6 -14 -12  125.29   19.70
  -6 -14  12   87.09   16.10
  -6 -14  12  115.59   22.30
  -5 -14  12   51.59   14.30
  -5 -14  12   45.40   11.20
   5 -14 -12   46.50   12.30
  -4 -14  12    5.70    6.70
   4 -14 -12    2.30    4.40
   4 -14 -12    2.00    6.60
  -4 -14  12   11.00    7.80
  -3 -14  12    4.00    6.00
   3 -14 -12    1.00    6.30
  -3 -14  12   11.00    6.00
   3 -14 -12   -1.50    6.90
  -2 -14  12    6.60    5.30
   2 -14 -12   -0.70    7.00
   2 -14 -12    6.30    6.70
  -2 -14  12    8.20    6.40
   1 -14 -12   10.80    7.80
  -1 -14  12   12.20    6.40
   1 -14 -12   15.30    8.00
  -1 -14  12    9.10    5.90
   0 -14 -12   12.00    8.40
   0 -14  12    7.80    5.60
   0 -14  12   20.70    7.30
   0 -14 -12   13.80    6.90
   1 -14  12    2.20    5.20
  -1 -14 -12    0.80    7.30
   1 -14  12    2.00    4.80
  -2 -14 -12   67.89   15.30
   2 -14  12   67.19   11.50
   2 -14  12   83.29   13.40
  -3 -14 -12   22.30   11.40
   3 -14  12    7.60    5.90
   3 -14  12    9.10    6.20
   4 -14  12   67.19   12.40
  -4 -14 -12   93.59   19.20
  -6 -15  12   71.29   15.00
   6 -15 -12   68.59   15.70
  -5 -15  12  133.09   19.30
   5 -15 -12  119.69   19.10
   4 -15 -12   55.09   12.60
  -4 -15  12   69.89   13.30
   3 -15 -12  178.38   21.50
  -3 -15  12  150.38   19.30
   3 -15 -12  161.18   20.90
  -3 -15  12  111.39   17.10
  -2 -15  12   67.39   12.60
   2 -15 -12  122.39   18.00
   2 -15 -12   84.49   14.90
   1 -15 -12   78.99   14.20
  -1 -15  12   70.09   12.90
   1 -15 -12   58.39   14.50
  -1 -15  12   65.79   11.50
   0 -15 -12   -1.30    8.10
   0 -15  12   -1.20    4.50
   0 -15 -12   -2.20    5.50
   0 -15  12   -0.20    4.50
   1 -15  12   72.79   11.90
  -1 -15 -12   86.29   17.00
   1 -15  12   72.19   12.80
   2 -15  12    5.40    6.10
  -2 -15 -12    6.70    9.30
   2 -15  12    5.30    5.70
   3 -15  12   11.50    6.60
  -4 -16  12  160.18   21.00
   4 -16 -12  139.99   20.60
   3 -16 -12    0.60    7.10
   3 -16 -12   21.30   10.10
  -3 -16  12   22.30    9.20
   2 -16 -12   -8.40    6.10
   2 -16 -12   -2.10    7.80
  -2 -16  12   -0.20    5.50
  -1 -16  12    1.50    5.50
   1 -16 -12    0.20    6.50
   1 -16 -12   -5.50    8.70
   0 -16  12   61.99   12.60
   0 -16 -12   72.99   15.30
   0 -16 -12   69.69   13.00
 -13   0  13   90.69   20.70
 -12   0  13   31.70   13.50
 -11   0  13  321.17   38.40
 -10   0  13   -1.10    7.20
  -9   0  13  888.31   63.39
  -8   0  13    4.60    7.40
  -7   0  13  119.49   19.70
  -6   0  13   -2.30    5.50
  -5   0  13   43.00   11.40
  -4   0  13   12.80    7.60
  -3   0  13   38.70   11.50
   2   0 -13    1.90    6.70
  -2   0  13    4.90    6.20
  -1   0  13  277.47   28.20
   1   0 -13  244.28   24.70
   0   0 -13   -1.00    4.90
   0   0  13    3.60    4.90
   1   0  13   16.60    7.40
  -1   0 -13    6.90    6.50
  -2   0 -13   15.10    7.80
   2   0  13    9.90    5.80
  -3   0 -13    2.20    7.50
   3   0  13    5.30    5.10
   4   0  13    8.30    5.50
  -4   0 -13   -3.40    7.80
  -5   0 -13   27.30   12.00
   5   0  13   24.70    8.10
  -6   0 -13    8.50   11.10
   6   0  13    8.70    5.80
  -7   0 -13   21.00   11.40
   7   0  13   16.40    7.10
  -8   0 -13    9.60   11.00
   8   0  13    8.50    6.10
   9   0  13   13.20    6.70
  -9   0 -13   27.50   13.50
 -13  -1  13   90.99   21.10
 -13   1  13   60.39   18.30
 -12  -1  13   51.39   16.40
 -12   1  13   50.09   16.40
 -11  -1  13    4.40    8.20
 -11   1  13   11.60    9.80
 -10  -1  13   29.70   12.40
 -10   1  13   34.00   12.90
  -9  -1  13  172.78   26.00
  -9   1  13  138.99   22.70
  -8  -1  13  863.71   60.29
  -8   1  13  810.52   58.69
  -7  -1  13  121.59   20.40
  -7   1  13  184.78   24.40
  -6  -1  13  162.68   21.90
  -6   1  13  170.98   22.10
  -5  -1  13  118.09   19.50
  -5   1  13  162.38   21.70
  -4  -1  13   15.00    8.00
  -4   1  13    8.50    6.90
   3  -1 -13  185.88   20.60
  -3  -1  13  219.68   26.90
  -3   1  13  195.58   23.70
   2  -1 -13   13.40    7.20
  -2  -1  13    4.10    5.60
  -2   1  13    3.90    6.20
   1  -1 -13  133.19   18.00
  -1  -1  13  194.88   22.30
  -1   1  13  166.58   20.80
   1   1 -13  150.38   17.90
   0  -1 -13   10.60    7.30
   0  -1  13   14.30    6.80
   0   1 -13   18.20    7.80
   0   1  13   29.60    8.50
  -1  -1 -13  130.19   17.10
   1  -1  13  158.98   19.60
   1   1  13  140.59   17.90
  -1   1 -13  112.19   16.50
  -2  -1 -13  236.48   24.60
   2  -1  13  225.78   24.50
  -2   1 -13  215.48   23.40
   2   1  13  185.28   21.50
   3  -1  13  161.28   20.30
  -3  -1 -13  156.88   20.90
   3   1  13  212.38   22.40
  -3   1 -13  184.78   22.00
   4  -1  13  212.98   22.80
  -4  -1 -13  203.18   25.10
  -4   1 -13  213.68   25.30
   4   1  13  215.88   22.50
   5  -1  13  262.57   25.80
  -5  -1 -13  170.58   25.40
  -5   1 -13  190.58   24.60
   5   1  13  232.08   23.30
  -6  -1 -13  146.09   22.20
   6  -1  13  155.78   19.50
  -6   1 -13  107.89   19.20
   6   1  13  112.79   15.90
   7  -1  13  196.08   22.10
  -7  -1 -13  181.78   26.90
   7   1  13  166.68   20.30
  -7   1 -13  134.39   22.50
   8  -1  13   46.30   10.90
  -8  -1 -13   19.10   12.40
  -8   1 -13   39.10   14.20
   8   1  13   31.90    9.10
  -9  -1 -13   20.90   13.70
   9  -1  13   15.20    7.30
   9   1  13    5.60    5.70
  -9   1 -13   14.50   11.70
 -13  -2  13    4.60   10.00
 -13   2  13   13.30   11.90
 -12  -2  13  210.38   31.10
 -12   2  13  230.78   31.70
 -11  -2  13   43.10   13.60
 -11   2  13   25.50   12.00
 -10  -2  13   44.90   14.00
 -10   2  13   48.60   14.40
   9  -2 -13   42.10   11.00
  -9  -2  13   69.99   16.90
  -9   2  13   46.90   13.20
   8  -2 -13  260.17   26.00
  -8  -2  13  251.47   30.20
  -8   2  13  191.48   25.50
  -7  -2  13   -1.80    5.70
   7  -2 -13   10.20    5.80
  -7   2  13   -4.00    5.00
  -6  -2  13   15.30    8.70
   6  -2 -13   20.50    7.60
  -6   2  13   16.80    7.90
   5  -2 -13   41.50    9.20
  -5  -2  13   16.40    7.90
  -5   2  13   21.30    8.70
  -4  -2  13   31.40   10.50
   4  -2 -13   23.00    7.20
   4  -2 -13   16.80    7.20
  -4   2  13   37.10   10.30
  -3  -2  13  214.58   26.60
   3  -2 -13  175.68   20.10
  -3   2  13  178.48   22.10
  -2  -2  13  385.76   31.00
   2  -2 -13  340.77   26.10
  -2   2  13  310.87   28.50
  -1  -2  13  339.27   29.50
   1  -2 -13  360.46   28.00
  -1   2  13  399.56   30.10
   0  -2 -13   59.69   11.90
   0  -2  13   55.49   11.80
   0   2  13  105.99   15.10
  -1  -2 -13   30.00    9.30
   1  -2  13   27.40    6.30
   1  -2  13   32.60    9.80
   1   2  13   56.79   10.80
  -1   2 -13   40.00   10.20
  -2  -2 -13  451.05   34.50
   2  -2  13  490.75   35.00
   2   2  13  438.96   33.10
  -2   2 -13  461.55   34.00
   3  -2  13    4.20    5.20
  -3  -2 -13    8.50    8.20
   3   2  13    0.70    3.50
  -3   2 -13    6.90    8.00
   4  -2  13   -1.20    3.50
  -4  -2 -13   10.40    8.40
   4   2  13    0.60    3.60
  -4   2 -13    3.80    7.50
   5  -2  13   25.00    8.40
  -5  -2 -13   43.10   13.00
  -5   2 -13   56.09   14.10
   5   2  13   78.39   12.60
  -6  -2 -13  532.85   41.80
   6  -2  13  523.35   37.70
   6   2  13  508.25   36.20
  -6   2 -13  486.15   39.30
  -7  -2 -13   12.10   11.50
   7  -2  13   12.90    6.10
  -7   2 -13   18.30   11.60
   7   2  13    8.90    5.80
   8  -2  13   37.90   10.50
  -8  -2 -13   50.09   16.00
  -8   2 -13   35.70   13.40
   8   2  13   28.70    8.20
   9  -2  13   18.10    7.90
  -9  -2 -13   21.70   14.50
  -9   2 -13   25.80   13.40
   9   2  13   17.40    7.80
 -13  -3  13   37.60   14.60
 -13   3  13   30.70   14.50
  12  -3 -13    7.40    7.30
 -12  -3  13   14.60   10.30
 -12   3  13   27.30   13.20
  11  -3 -13   32.50   10.50
 -11  -3  13   29.50   13.20
 -11   3  13   25.20   11.90
  10  -3 -13  125.39   19.00
 -10  -3  13   96.49   20.60
 -10   3  13  144.69   22.80
  -9  -3  13   21.20   11.70
   9  -3 -13    5.90    6.90
  -9   3  13    0.80    6.90
   8  -3 -13   -1.90    4.20
  -8  -3  13    4.90    7.30
  -8   3  13   -1.70    5.90
  -7  -3  13    5.80    7.20
   7  -3 -13   -0.10    4.70
  -7   3  13   10.80    7.40
   6  -3 -13   14.90    7.00
  -6  -3  13   21.80    9.80
  -6   3  13   26.60    8.90
  -5  -3  13   74.79   15.50
   5  -3 -13   71.59   12.60
   5  -3 -13   75.59   12.80
  -5   3  13   78.49   14.60
   4  -3 -13   33.00    8.50
   4  -3 -13   34.90    9.00
  -4  -3  13   31.90   11.10
  -4   3  13   52.49   11.60
  -3  -3  13   40.60   12.10
   3  -3 -13   35.60    8.40
   3  -3 -13   52.99   10.50
  -3   3  13   36.20   10.20
  -2  -3  13   22.80    9.80
   2  -3 -13   14.00    5.90
   2  -3 -13   12.40    6.70
  -2   3  13   37.70   10.20
   1  -3 -13  601.94   40.40
   1  -3 -13  532.35   37.30
  -1  -3  13  649.04   43.50
  -1   3  13  621.94   41.80
   0  -3  13  197.38   23.00
   0  -3 -13  147.79   18.90
   0   3  13  163.48   20.20
   1  -3  13   30.30    8.50
  -1  -3 -13   28.10    9.40
   1  -3  13   27.90    5.00
   1   3  13   13.70    6.30
   2  -3  13   17.90    7.10
  -2  -3 -13   17.70    8.30
   2   3  13    9.70    5.60
   3  -3  13  217.68   24.50
  -3  -3 -13  196.98   24.10
   3   3  13  242.48   23.30
   4  -3  13   62.19   12.20
  -4  -3 -13   54.59   13.10
   4   3  13   80.89   12.40
  -4   3 -13   33.90   11.60
  -5  -3 -13   30.50   11.90
   5  -3  13   33.00    9.70
   5   3  13   59.39   10.70
  -5   3 -13   46.00   13.60
  -6  -3 -13   52.19   15.60
   6  -3  13   66.29   13.10
   6   3  13   58.39   10.90
  -6   3 -13   53.49   14.80
   7  -3  13   77.19   13.60
  -7  -3 -13   39.30   14.80
   7   3  13   74.69   12.80
  -7   3 -13   67.79   16.10
  -8  -3 -13   56.49   18.10
   8  -3  13   95.29   16.10
  -8   3 -13   62.99   16.40
   8   3  13  101.99   14.70
   9  -3  13  167.28   22.60
   9   3  13  164.48   20.60
 -13  -4  13    3.10    9.80
 -13   4  13    2.90   10.70
 -12  -4  13   28.00   13.90
  12  -4 -13   26.60   10.90
 -12   4  13   21.10   12.10
  11  -4 -13    2.70    8.30
 -11  -4  13   18.40   12.20
 -11   4  13   19.30   12.10
  10  -4 -13   -1.40    6.10
 -10  -4  13    5.60    8.70
 -10   4  13   12.10    8.50
  -9  -4  13   63.29   16.40
   9  -4 -13   51.69   12.60
  -9   4  13   75.09   15.60
  -8  -4  13   14.60   10.00
   8  -4 -13    8.10    6.70
  -8   4  13    1.70    6.80
   7  -4 -13   99.29   15.80
  -7  -4  13   92.59   18.40
  -7   4  13  107.79   16.60
  -6  -4  13  637.44   50.79
   6  -4 -13  656.03   46.70
   6  -4 -13  727.23   44.30
  -6   4  13  718.23   48.50
  -5  -4  13  134.19   21.60
   5  -4 -13   93.99   14.70
  -5   4  13  116.69   16.90
   4  -4 -13   19.20    7.40
  -4  -4  13   12.30    8.70
   4  -4 -13   18.10    7.20
  -4   4  13    4.10    5.60
   3  -4 -13  326.07   25.70
  -3  -4  13  313.77   33.20
   3  -4 -13  369.16   26.10
  -3   4  13  299.07   27.30
   2  -4 -13  218.28   22.00
  -2  -4  13  204.38   26.30
   2  -4 -13  218.88   22.80
  -2   4  13  301.87   28.00
  -1  -4  13  671.43   46.90
   1  -4 -13  705.43   44.60
   1  -4 -13  650.83   42.30
  -1   4  13  637.74   44.50
   0  -4  13 1108.19   66.39
   0  -4 -13 1101.69   67.69
   0  -4 -13 1342.07   72.49
   0  -4  13 1269.57   73.89
   0   4  13 1116.29   70.69
   1  -4  13   18.70    7.70
   1  -4  13   13.60    4.10
  -1  -4 -13   16.70    7.60
   1   4  13    7.80    4.90
   2  -4  13  193.68   22.60
  -2  -4 -13  165.38   21.90
   2   4  13  211.88   21.40
   3  -4  13  110.89   15.90
  -3  -4 -13   79.59   15.30
   3   4  13  110.89   14.40
   4  -4  13   36.10    9.70
  -4  -4 -13   47.00   12.50
   4   4  13   40.00    8.40
   5  -4  13    1.90    4.40
  -5  -4 -13    0.00    8.40
   5   4  13    9.50    5.10
  -6  -4 -13    9.10    9.70
   6  -4  13   17.10    7.70
   6   4  13   10.80    5.50
   7  -4  13   19.10    7.90
  -7  -4 -13   14.80   11.70
   7   4  13   11.70    5.70
  -8  -4 -13   67.79   18.40
   8  -4  13  109.19   16.70
   8   4  13  118.19   15.90
   9  -4  13  157.78   20.80
   9   4  13  132.49   17.50
 -12  -5  13    0.30   10.70
  12  -5 -13    7.70    8.50
 -12   5  13   -4.30    8.00
  11  -5 -13   67.79   16.00
 -11  -5  13   68.19   18.10
 -11   5  13   74.89   18.40
 -10  -5  13   25.50   13.90
  10  -5 -13   49.10   12.80
 -10   5  13   43.40   13.50
   9  -5 -13   59.09   13.30
  -9  -5  13   53.19   15.40
  -9   5  13   40.00   12.10
   8  -5 -13    0.80    6.20
  -8  -5  13   -3.10    8.30
  -8   5  13   12.50    8.10
   7  -5 -13   35.40   10.10
  -7  -5  13   29.80   11.80
  -7   5  13   48.90   11.40
   6  -5 -13  474.05   36.70
   6  -5 -13  502.35   33.40
  -6  -5  13  463.95   40.90
  -6   5  13  510.85   37.40
   5  -5 -13  819.82   51.49
   5  -5 -13  629.54   46.20
  -5  -5  13  838.92   56.99
  -5   5  13  874.01   52.19
  -4  -5  13   80.29   16.60
   4  -5 -13   63.49   11.90
   4  -5 -13   63.29   11.20
  -4   5  13   61.79   12.60
   3  -5 -13    1.80    4.40
  -3  -5  13    1.20    7.10
   3  -5 -13    6.40    6.20
  -3   5  13   -3.70    4.30
   2  -5 -13   88.99   13.40
   2  -5 -13   66.09   11.30
  -2  -5  13  110.49   17.80
  -2   5  13   61.29   12.70
   1  -5 -13  848.42   52.29
   1  -5 -13  729.43   50.09
  -1  -5  13  800.02   54.29
  -1   5  13  882.71   52.79
   0  -5  13  199.08   15.90
   0  -5 -13  209.48   20.00
   0  -5 -13  232.38   24.70
   0  -5  13  194.68   22.90
   0   5  13  239.38   22.70
  -1  -5 -13   44.30   11.10
   1  -5  13   79.99    9.80
   1  -5  13   84.19   13.90
   1   5  13   76.79   12.00
  -2  -5 -13    2.00    6.80
   2  -5  13    7.90    5.80
   2   5  13    2.60    3.40
   3  -5  13   26.40    8.10
  -3  -5 -13   12.70    9.20
   3   5  13   24.50    6.70
  -4  -5 -13   64.69   14.90
   4  -5  13  103.09   15.90
   4   5  13   98.29   13.00
  -5  -5 -13   25.00   11.60
   5  -5  13   63.09   12.50
   5   5  13   81.19   11.60
  -6  -5 -13   31.90   13.20
   6  -5  13   33.70    9.70
   6   5  13   59.69   10.60
  -7  -5 -13   13.40   10.70
   7  -5  13   55.59   12.80
   7   5  13   31.50    7.90
   8  -5  13   57.59   12.80
  -8  -5 -13   41.80   16.10
   8   5  13   58.09   11.00
  12  -6 -13    6.00    9.00
 -12  -6  13   17.00   13.00
 -12   6  13    3.40    9.40
  11  -6 -13   -0.70    8.50
 -11  -6  13   -0.80    9.10
 -11   6  13   15.10   10.80
  10  -6 -13   20.90    9.90
 -10  -6  13   29.00   14.30
 -10   6  13   33.90   12.10
  -9  -6  13    4.60   10.10
   9  -6 -13   13.10    8.90
  -9   6  13   24.60   10.70
  -8  -6  13  502.25   42.90
   8  -6 -13  454.25   36.70
  -8   6  13  422.36   36.10
  -7  -6  13  246.48   31.30
   7  -6 -13  209.68   25.10
   7  -6 -13  280.47   21.30
  -7   6  13  213.38   24.90
   6  -6 -13  235.68   25.10
  -6  -6  13  146.99   25.30
   6  -6 -13  207.98   20.70
  -6   6  13  188.18   22.80
   5  -6 -13   12.10    6.90
  -5  -6  13    4.00    8.50
   5  -6 -13   17.40    7.30
  -5   6  13   13.90    7.00
   4  -6 -13    8.10    6.50
  -4  -6  13   12.10    8.80
   4  -6 -13    8.50    6.10
  -4   6  13   16.50    7.70
   3  -6 -13  384.16   29.00
  -3  -6  13  406.46   34.20
   3  -6 -13  389.26   28.50
  -3   6  13  361.36   29.90
  -2  -6  13   14.10    8.50
   2  -6 -13    5.40    6.40
   2  -6 -13    5.90    4.90
  -2   6  13    4.00    4.50
   1  -6 -13   11.80    5.70
  -1  -6  13   10.50    4.30
   1  -6 -13   10.80    7.30
  -1  -6  13   15.80    6.90
  -1   6  13   -1.60    2.20
   0  -6  13   68.99    9.40
   0  -6 -13   65.79   13.50
   0  -6 -13   65.09   10.90
   0  -6  13   73.49   13.20
   1  -6  13  242.58   25.60
  -1  -6 -13  212.18   24.40
   1  -6  13  256.07   18.20
  -2  -6 -13  110.39   17.70
   2  -6  13  149.49   18.20
   2   6  13  101.49   13.40
   3  -6  13   16.00    6.60
  -3  -6 -13   -8.10    6.60
   3   6  13   14.40    5.50
  -4  -6 -13   31.00   11.50
   4  -6  13   46.10   10.50
   4   6  13   71.89   10.40
   5  -6  13   58.69   11.60
  -5  -6 -13   50.89   14.50
   5   6  13   74.79   11.00
   6  -6  13   10.80    7.10
  -6  -6 -13   47.20   13.70
   6   6  13   25.60    7.10
   7  -6  13    3.40    5.70
  -7  -6 -13    8.70   11.10
   7   6  13    2.00    3.90
   8  -6  13   13.30    8.30
  -8  -6 -13    1.00   11.70
   8   6  13   18.40    6.40
 -12  -7  13   22.10   15.10
  12  -7 -13   36.40   13.40
 -12   7  13   46.50   15.80
  11  -7 -13   82.49   16.90
 -11  -7  13   68.69   20.20
 -11   7  13   61.89   16.10
  10  -7 -13    4.00    7.30
 -10  -7  13    2.30   10.90
 -10   7  13   11.50    9.00
   9  -7 -13   -1.10    6.80
  -9  -7  13  -10.20    8.70
  -9   7  13   13.50    9.10
  -8  -7  13   14.10   11.20
   8  -7 -13   13.00    8.30
  -8   7  13   16.60    7.90
  -7  -7  13  375.26   42.60
   7  -7 -13  384.76   32.80
  -7   7  13  403.26   32.30
  -6  -7  13   22.80   11.80
   6  -7 -13   25.30    8.10
   6  -7 -13   25.30    8.80
  -6   7  13   18.30    7.90
  -5  -7  13   57.99   16.20
   5  -7 -13   51.29   10.60
   5  -7 -13   73.09   13.40
  -5   7  13   56.79   11.40
   4  -7 -13  116.39   15.80
   4  -7 -13   96.19   14.30
  -4  -7  13   78.69   18.20
  -4   7  13   43.30   10.50
  -3  -7  13   39.00   12.00
   3  -7 -13   38.20    9.10
   3  -7 -13   27.80    9.40
  -3   7  13   41.00   10.40
   2  -7 -13  272.27   22.80
  -2  -7  13  242.68   27.80
   2  -7 -13  282.57   22.40
  -2  -7  13  260.47   20.70
  -2   7  13  271.07   23.00
   1  -7 -13   31.30    7.40
   1  -7 -13   46.60   11.20
  -1  -7  13   22.80    5.90
  -1  -7  13   21.30    8.50
  -1   7  13   36.80    8.10
   0  -7  13   49.99   11.10
   0  -7 -13   39.90    8.30
   0  -7 -13   37.10   11.20
   0  -7  13   47.50    8.00
   0   7  13   61.89   10.30
   1  -7  13  662.53   42.20
   1  -7  13  730.63   47.30
  -1  -7 -13  683.43   46.70
   1   7  13  699.73   43.60
   2  -7  13  303.77   25.80
  -2  -7 -13  282.67   30.40
   2   7  13  304.37   22.40
  -3  -7 -13   44.40   12.60
   3  -7  13   96.19   14.60
   3   7  13  100.19   11.90
  -4  -7 -13   10.90    9.40
   4  -7  13   24.70    8.80
   4   7  13    9.60    4.20
  -5  -7 -13    8.60    8.60
   5  -7  13   10.60    6.50
   5   7  13   -1.30    1.80
   6  -7  13    8.90    6.60
  -6  -7 -13    1.80    8.70
   6   7  13    9.00    4.70
  -7  -7 -13  139.59   24.60
   7  -7  13  201.98   23.60
   7   7  13  201.38   20.10
   8  -7  13   67.89   14.40
  -8  -7 -13   49.50   19.20
   8   7  13   57.09   10.50
  11  -8 -13   14.40   11.20
 -11  -8  13    2.10   11.80
 -11   8  13   18.30   11.80
 -10  -8  13    3.00   11.00
  10  -8 -13   -2.60    8.00
 -10   8  13   10.30    9.60
   9  -8 -13   -3.60    6.00
  -9  -8  13   10.10   11.90
  -9   8  13   -3.10    6.20
   8  -8 -13   45.00   12.00
  -8  -8  13   32.80   15.10
  -8   8  13   27.80    9.80
   7  -8 -13   -0.80    6.50
  -7  -8  13    8.60   10.50
  -7   8  13   14.80    7.20
  -6  -8  13  120.99   23.50
   6  -8 -13   95.79   14.20
   6  -8 -13  111.39   17.70
  -5  -8  13   62.59   17.40
   5  -8 -13   83.29   14.20
   5  -8 -13   91.29   14.00
  -5   8  13   82.89   13.80
   4  -8 -13  220.78   23.00
  -4  -8  13  221.98   29.60
   4  -8 -13  204.58   22.90
  -4   8  13  261.47   25.30
  -3  -8  13   28.40   10.70
   3  -8 -13   25.00    8.10
   3  -8 -13   29.20    9.70
  -3   8  13   41.60   10.10
   2  -8 -13   10.90    6.10
   2  -8 -13   21.90    8.40
  -2  -8  13   27.50    8.60
  -2  -8  13   23.50    6.60
  -2   8  13   40.30    9.00
   1  -8 -13  199.98   19.80
  -1  -8  13  180.38   21.80
   1  -8 -13  156.88   20.70
  -1   8  13  184.98   18.60
   0  -8  13   95.49   12.30
   0  -8 -13  106.59   16.70
   0  -8  13  101.19   15.80
   0  -8 -13  113.29   13.90
   0   8  13  111.19   13.20
  -1  -8 -13  195.58   22.90
   1  -8  13  151.38   19.40
   1  -8  13  197.48   15.90
   1   8  13  169.68   15.20
   2  -8  13   14.10    6.90
  -2  -8 -13    8.20    7.70
   2  -8  13    4.60    4.60
   2   8  13   14.80    5.00
  -3  -8 -13   -3.30    6.80
   3  -8  13    5.60    5.30
   3   8  13    7.20    4.00
   4  -8  13   61.39   12.00
  -4  -8 -13   57.29   14.30
   4   8  13   47.50    8.40
   5  -8  13    8.50    6.80
  -5  -8 -13    4.40    8.20
   5   8  13   12.50    4.90
  -6  -8 -13   -5.60    7.60
   6  -8  13   -3.60    5.80
   6   8  13   -0.90    3.10
   7  -8  13  205.18   23.70
  -7  -8 -13  163.68   27.30
  11  -9 -13   30.50   12.40
 -11  -9  13   23.20   17.40
 -11   9  13   14.80   11.00
  10  -9 -13   22.70   11.70
 -10  -9  13    4.30   12.20
 -10   9  13    8.90    8.50
  -9  -9  13   26.50   15.00
   9  -9 -13   26.00   10.60
  -9   9  13   36.30   11.50
  -8  -9  13   42.20   18.10
   8  -9 -13   46.10   13.30
  -7  -9  13  181.58   29.20
   7  -9 -13  148.49   22.10
  -7   9  13  162.58   21.00
  -6  -9  13   15.10   11.60
   6  -9 -13    5.60    6.80
   6  -9 -13    3.40    7.00
  -6   9  13   14.10    7.40
   5  -9 -13    8.90    6.40
   5  -9 -13    8.90    7.00
  -5  -9  13    5.10   10.30
  -5   9  13   13.90    6.90
  -4  -9  13  146.49   23.80
   4  -9 -13  177.68   19.80
   4  -9 -13  126.69   18.30
  -4   9  13  209.58   22.20
  -3  -9  13  181.38   24.40
  -3  -9  13  157.28   18.00
   3  -9 -13  177.08   20.70
   3  -9 -13  165.68   20.50
  -3   9  13  185.78   21.10
  -2  -9  13   15.00    5.90
   2  -9 -13   18.20    8.20
  -2  -9  13   21.00    8.60
   2  -9 -13   11.80    6.70
  -2   9  13   26.70    7.20
  -1  -9  13  104.59   16.20
   1  -9 -13  136.29   15.70
   1  -9 -13  109.09   16.50
  -1  -9  13  104.69   13.70
  -1   9  13  110.39   13.40
   0  -9 -13    8.80    5.50
   0  -9  13    6.90    6.10
   0  -9  13    9.60    4.10
   0  -9 -13   -3.00    6.10
   0   9  13    7.70    4.10
   1  -9  13    2.10    4.90
  -1  -9 -13   -6.80    5.80
   1   9  13    1.80    2.90
   2  -9  13   17.20    6.80
   2  -9  13   14.50    5.50
  -2  -9 -13   -0.30    6.50
  -3  -9 -13    4.20    7.70
   3  -9  13   10.90    6.20
  -4  -9 -13   38.20   12.50
   4  -9  13   67.99   12.30
  -5  -9 -13    1.60    7.90
   5  -9  13    6.30    6.20
   6  -9  13    5.90    7.10
  -6  -9 -13    7.80   10.60
   7  -9  13    6.00    7.20
  -7  -9 -13   13.00   11.60
  10 -10 -13  184.18   25.40
 -10 -10  13  129.99   27.40
 -10  10  13  140.99   21.50
   9 -10 -13    5.00    8.80
  -9 -10  13   28.00   16.60
  -9  10  13    2.60    5.70
   8 -10 -13   39.90   12.60
  -8 -10  13  100.39   22.80
  -8  10  13   53.49   12.20
   7 -10 -13   19.80    8.70
  -7 -10  13   14.20   13.60
  -7  10  13   15.20    7.30
  -6 -10  13  491.35   49.50
   6 -10 -13  434.56   35.60
   5 -10 -13    2.90    6.30
  -5 -10  13   20.80    7.80
   5 -10 -13   16.20    8.00
  -5 -10  13   24.60   14.60
   4 -10 -13  148.29   19.20
   4 -10 -13  157.28   19.70
  -4 -10  13  173.18   19.70
  -4 -10  13  136.59   22.10
  -3 -10  13  523.85   37.40
  -3 -10  13  576.44   42.50
   3 -10 -13  553.24   38.90
   3 -10 -13  553.34   38.10
   2 -10 -13   19.60    6.90
  -2 -10  13    4.40    4.70
   2 -10 -13    7.90    7.30
  -2 -10  13   17.50    8.10
   1 -10 -13    9.10    6.30
  -1 -10  13   10.90    6.70
  -1 -10  13   11.90    5.40
   1 -10 -13    7.80    6.90
   0 -10 -13   31.30   11.00
   0 -10  13   15.40    5.30
   0 -10  13   73.09   12.90
   0 -10 -13   63.99   11.10
  -1 -10 -13  -11.80    6.50
   1 -10  13    1.70    3.80
   1 -10  13    4.60    5.40
   2 -10  13    3.50    4.70
  -2 -10 -13    8.80    8.00
   2 -10  13   -4.80    3.70
  -3 -10 -13  113.19   18.40
   3 -10  13  154.88   18.40
   4 -10  13    9.60    6.50
  -4 -10 -13   22.00   10.40
   5 -10  13    3.90    5.90
  -5 -10 -13   10.80    9.50
  -6 -10 -13   -0.70    8.60
   6 -10  13    0.40    5.90
  10 -11 -13  132.79   23.00
 -10 -11  13   73.79   23.00
   9 -11 -13  131.29   21.10
  -9 -11  13  121.19   27.30
   8 -11 -13   18.80    9.90
  -8 -11  13   -1.40   12.30
  -7 -11  13   98.09   23.20
   7 -11 -13   96.29   17.40
  -6 -11  13    9.50    7.50
  -6 -11  13    9.30   11.20
   6 -11 -13   -2.00    6.50
  -5 -11  13    4.30   12.00
   5 -11 -13   23.70    9.80
  -5 -11  13   14.70    7.40
   5 -11 -13   24.20    8.50
  -4 -11  13    2.10    4.70
   4 -11 -13   -4.10    5.60
   4 -11 -13    0.00    5.50
  -4 -11  13    6.00    8.10
   3 -11 -13    6.20    7.10
   3 -11 -13   14.00    7.20
  -3 -11  13    6.30    6.10
  -3 -11  13    8.80    7.30
   2 -11 -13   12.60    7.70
   2 -11 -13   30.10    9.20
  -2 -11  13   12.80    5.90
  -2 -11  13   33.40   10.00
   1 -11 -13   13.20    8.40
  -1 -11  13   18.30    7.10
   1 -11 -13   19.90    8.20
  -1 -11  13   15.30    5.80
   0 -11  13    3.80    4.20
   0 -11  13    1.10    5.70
   0 -11 -13  -10.50    7.10
  -1 -11 -13    9.00    8.50
   1 -11  13    0.80    3.20
   1 -11  13    4.30    5.30
   2 -11  13  108.69   15.00
  -2 -11 -13   67.19   15.10
   2 -11  13   71.69   11.90
   3 -11  13   57.99   11.50
  -3 -11 -13   59.99   13.60
   4 -11  13  108.69   15.30
  -4 -11 -13   69.69   16.20
   5 -11  13   18.60    8.40
  -5 -11 -13   15.90   10.90
   6 -11  13   23.60    9.20
  -9 -12  13   15.60   17.70
   9 -12 -13   14.70   11.10
   8 -12 -13   70.39   16.60
  -8 -12  13   32.30   18.00
  -7 -12  13  -16.40    9.30
  -7 -12  13   -0.90    6.40
   7 -12 -13    0.30    7.50
   6 -12 -13   11.90    8.30
  -6 -12  13   12.00   12.90
  -6 -12  13    5.90    6.90
   5 -12 -13  191.38   23.40
   5 -12 -13  230.08   23.40
  -5 -12  13  189.28   27.00
  -5 -12  13  179.48   22.10
  -4 -12  13   -2.10    4.90
   4 -12 -13  -10.00    4.40
  -4 -12  13    0.40    8.40
   4 -12 -13   -0.60    5.80
  -3 -12  13   25.10    8.00
   3 -12 -13   14.50    8.40
  -3 -12  13    8.90    7.40
   3 -12 -13    8.40    7.50
  -2 -12  13    7.70    5.20
   2 -12 -13    1.70    6.40
   2 -12 -13   -0.60    6.90
  -2 -12  13    6.20    6.00
   1 -12 -13    7.00    7.50
  -1 -12  13   14.60    5.90
  -1 -12  13   14.10    5.20
   1 -12 -13    0.10    5.20
   0 -12 -13   21.60    9.90
   0 -12  13   27.00    8.50
   0 -12  13   27.90    7.80
   1 -12  13    4.40    4.70
  -1 -12 -13    2.20    7.90
   1 -12  13    3.70    5.20
   2 -12  13   31.90    8.40
  -2 -12 -13   23.90   10.30
   2 -12  13   64.49   11.60
  -3 -12 -13   76.59   16.40
   3 -12  13   61.79   11.30
   4 -12  13    0.80    5.10
  -4 -12 -13    5.50    8.80
  -5 -12 -13  151.88   24.20
   5 -12  13  203.28   22.90
   8 -13 -13   27.80   12.70
  -8 -13  13   34.30   11.80
  -8 -13  13   46.10   20.60
  -7 -13  13   28.30   14.20
   7 -13 -13   16.70   10.90
  -7 -13  13   22.90    9.20
  -6 -13  13   -1.90   10.90
   6 -13 -13   -3.70    6.60
  -6 -13  13   -3.40    6.60
  -5 -13  13    8.70    9.60
   5 -13 -13    2.80    6.20
  -5 -13  13   -1.20    5.80
  -4 -13  13   90.69   14.60
   4 -13 -13  134.49   19.30
  -4 -13  13  133.79   20.00
   4 -13 -13   73.79   14.30
  -3 -13  13   14.00    7.70
   3 -13 -13   13.00    8.00
  -3 -13  13   30.50    9.00
   3 -13 -13   24.00    9.40
   2 -13 -13    5.60    7.30
   2 -13 -13    0.40    6.00
  -2 -13  13    8.30    6.10
  -2 -13  13    9.30    6.20
   1 -13 -13   23.60    8.20
   1 -13 -13   11.90    8.30
  -1 -13  13   17.80    6.80
  -1 -13  13   23.40    8.20
   0 -13  13    7.40    5.90
   0 -13 -13   10.30    8.70
   0 -13  13    7.50    5.60
  -1 -13 -13   20.50   10.50
   1 -13  13   24.00    7.70
   1 -13  13   27.70    8.20
  -2 -13 -13   42.40   13.60
   2 -13  13   38.50    9.90
  -3 -13 -13   27.40   11.40
   3 -13  13   20.70    7.80
   4 -13  13  504.75   36.60
  -4 -13 -13  517.75   41.50
   7 -14 -13    4.80    8.50
  -7 -14  13    6.40   14.50
  -7 -14  13    1.70    6.70
  -6 -14  13    5.10    7.10
  -6 -14  13   25.90   14.60
   6 -14 -13    3.90    7.90
   5 -14 -13   -8.10    6.30
  -5 -14  13   -6.80    5.10
  -5 -14  13   -7.60    7.00
  -4 -14  13   37.10   11.60
   4 -14 -13   42.10   11.80
  -4 -14  13   43.50   11.40
   4 -14 -13   24.80    9.60
   3 -14 -13  113.39   17.60
   3 -14 -13  129.09   18.70
  -3 -14  13  141.29   17.90
  -3 -14  13  103.79   16.00
   2 -14 -13  205.08   23.20
  -2 -14  13  236.98   23.60
  -2 -14  13  208.78   22.60
   2 -14 -13  219.68   24.90
   1 -14 -13    6.80    9.10
   1 -14 -13   11.80    7.40
  -1 -14  13    9.00    6.20
  -1 -14  13   16.70    7.20
   0 -14  13   54.49   11.00
   0 -14  13   31.30    8.50
   0 -14 -13   29.80   11.80
   1 -14  13   69.59   11.80
   1 -14  13   64.09   11.90
  -1 -14 -13   54.49   14.30
  -2 -14 -13    0.00    8.20
   2 -14  13    6.80    6.10
   2 -14  13   11.90    7.00
   3 -14  13   11.50    6.40
  -5 -15  13   40.40   11.60
   5 -15 -13   38.30   12.20
  -4 -15  13  220.98   26.40
   4 -15 -13  259.07   28.00
  -4 -15  13  220.08   25.70
  -3 -15  13   19.10    8.00
   3 -15 -13   19.70    9.30
  -3 -15  13    5.40    6.60
   3 -15 -13    7.10    8.30
  -2 -15  13   73.99   13.50
   2 -15 -13  122.59   19.20
   2 -15 -13  109.99   17.70
  -2 -15  13   94.49   14.70
  -1 -15  13   99.49   14.50
   1 -15 -13   71.89   15.90
  -1 -15  13   88.09   14.50
   1 -15 -13   81.39   14.70
   0 -15 -13   42.90   13.50
   0 -15  13   26.40    8.90
   0 -15  13   24.40    8.00
   1 -15  13    5.30    5.50
   1 -15  13   -3.60    5.00
 -13   0  14   12.00   10.70
 -12   0  14   25.70   13.10
 -11   0  14   -1.30    7.30
 -10   0  14  116.29   21.50
  -9   0  14    3.50    7.60
  -8   0  14  166.78   23.50
  -7   0  14    6.60    8.10
  -6   0  14    2.00    5.90
  -5   0  14    4.20    6.90
  -4   0  14  396.06   34.10
  -3   0  14   27.70   10.30
   2   0 -14  329.87   27.20
  -2   0  14  338.77   29.60
   1   0 -14   -7.50    5.30
  -1   0  14    4.40    5.70
   0   0 -14   54.49   12.30
   0   0  14   74.29   13.60
  -1   0 -14   -0.60    6.40
   1   0  14    3.90    4.90
   2   0  14  698.93   47.10
  -2   0 -14  659.83   46.70
  -3   0 -14    5.20    7.20
   3   0  14    0.50    3.90
   4   0  14  133.69   18.40
  -4   0 -14   91.49   17.70
   5   0  14    5.70    5.50
  -5   0 -14    1.60    8.20
  -6   0 -14   22.60   12.20
   6   0  14   13.00    6.90
   7   0  14   -1.10    4.30
  -7   0 -14    7.00   11.20
   8   0  14  114.69   17.10
  -8   0 -14   63.99   17.60
 -13  -1  14   20.50   13.20
 -13   1  14   26.40   13.00
 -12  -1  14   66.99   17.00
 -12   1  14  100.69   21.30
 -11  -1  14   36.10   13.30
 -11   1  14   22.10   11.50
 -10  -1  14   23.90   11.90
 -10   1  14   42.30   14.40
  -9  -1  14  104.79   20.10
  -9   1  14  126.69   21.30
  -8  -1  14   53.59   14.50
  -8   1  14   39.40   11.60
  -7  -1  14   63.99   14.80
  -7   1  14   48.40   12.80
  -6  -1  14  174.18   24.60
  -6   1  14  150.88   21.60
  -5  -1  14  432.36   36.60
  -5   1  14  435.86   35.70
  -4  -1  14   86.59   16.70
  -4   1  14   53.59   13.40
   3  -1 -14   47.50   11.50
  -3  -1  14   49.80   13.50
  -3   1  14   33.10   11.40
   2  -1 -14   79.29   14.00
  -2  -1  14  122.09   20.10
  -2   1  14  103.89   17.50
  -1  -1  14  415.86   31.10
   1  -1 -14  326.17   27.80
   1   1 -14  325.97   27.50
  -1   1  14  374.86   29.90
   0  -1  14   64.79   12.40
   0  -1 -14   58.29   12.00
   0   1 -14   42.00   10.90
   0   1  14   51.49   11.50
  -1  -1 -14  108.39   17.60
   1  -1  14  111.89   16.70
  -1   1 -14   93.59   15.60
   1   1  14  166.68   19.90
  -2  -1 -14  510.45   37.30
   2  -1  14  487.65   36.40
   2   1  14  499.35   36.00
  -2   1 -14  445.06   35.90
  -3  -1 -14  119.59   18.50
   3  -1  14   94.69   15.30
   3   1  14  193.98   21.80
  -3   1 -14  111.59   18.00
  -4  -1 -14    6.70    8.80
   4  -1  14   15.30    7.10
   4   1  14   19.50    7.30
  -4   1 -14   20.60    9.90
  -5  -1 -14   15.80   11.30
   5  -1  14   14.80    7.20
  -5   1 -14   14.40   11.30
   5   1  14   37.20    9.10
  -6  -1 -14  132.09   23.30
   6  -1  14  183.98   21.70
   6   1  14  134.69   17.80
  -6   1 -14   97.19   18.90
   7  -1  14   63.89   12.70
  -7  -1 -14   49.90   16.40
   7   1  14   61.29   12.60
  -7   1 -14   67.99   16.70
  -8  -1 -14   14.40   12.70
   8  -1  14   16.60    7.80
  -8   1 -14   18.00   13.40
   8   1  14    7.10    5.80
 -12   2  14  213.88   30.80
 -11  -2  14    6.20   10.30
 -11   2  14    1.90    8.40
 -10  -2  14  139.89   24.00
 -10   2  14  126.69   22.50
  -9  -2  14   44.10   13.90
  -9   2  14   37.80   12.60
  -8  -2  14    4.80    8.90
  -8   2  14   10.60    8.60
   7  -2 -14  108.89   16.00
  -7  -2  14   86.49   17.60
  -7   2  14  128.19   18.90
  -6  -2  14    8.10    7.60
   6  -2 -14   -1.60    5.20
  -6   2  14    0.00    5.90
  -5  -2  14   75.49   16.70
  -5   2  14  124.79   19.10
   4  -2 -14   -3.90    5.40
  -4  -2  14   -1.40    7.30
  -4   2  14   21.30    8.90
  -3  -2  14   25.60   11.40
   3  -2 -14   53.19   12.00
  -3   2  14   76.59   14.80
   2  -2 -14  109.29   16.30
  -2  -2  14  135.29   19.90
  -2   2  14   89.49   15.90
   1  -2 -14   61.89   12.50
  -1  -2  14  105.79   16.40
  -1   2  14   66.99   12.70
   0  -2 -14    2.40    6.70
   0  -2  14    5.10    5.30
   0   2  14    4.90    4.90
   1  -2  14  618.04   42.40
  -1  -2 -14  587.84   41.40
   1   2  14  590.94   40.90
  -1   2 -14  540.25   40.90
  -2  -2 -14  174.38   22.80
   2  -2  14  235.88   26.10
   2   2  14  267.17   25.80
  -2   2 -14  208.28   24.60
  -3  -2 -14  140.39   20.80
   3  -2  14  163.58   21.00
   3   2  14  184.48   20.30
  -3   2 -14  137.89   20.50
   4  -2  14   48.50   11.90
  -4  -2 -14   49.10   13.70
  -4   2 -14   58.59   14.20
   4   2  14   70.09   12.50
  -5  -2 -14  178.48   26.40
   5  -2  14  183.38   22.90
  -5   2 -14  167.98   24.50
   5   2  14  236.78   23.60
  -6  -2 -14   16.70   11.30
   6  -2  14    4.20    5.30
  -6   2 -14   13.10   10.80
   6   2  14    8.40    5.80
   7  -2  14   25.70    9.10
  -7  -2 -14   28.30   15.00
  -7   2 -14   40.80   13.90
   7   2  14   49.90   10.70
   8  -2  14   24.00    9.90
  -8  -2 -14   27.30   15.80
  -8   2 -14   16.20   13.40
   8   2  14   24.80    8.20
 -12  -3  14   85.99   20.30
 -12   3  14   89.79   19.70
  11  -3 -14   12.50    8.70
 -11  -3  14   17.70   11.00
 -11   3  14   43.50   14.80
 -10  -3  14   28.50   13.20
  10  -3 -14   27.40   10.20
 -10   3  14   22.80   10.80
  -9  -3  14   76.89   17.40
   9  -3 -14   62.19   13.80
  -9   3  14   52.29   14.00
  -8  -3  14    7.90    8.50
   8  -3 -14   -0.10    6.10
  -8   3  14    0.40    5.80
   7  -3 -14   15.90    7.90
  -7  -3  14   13.50    9.20
  -7   3  14    6.60    7.60
   6  -3 -14   75.69   14.10
  -6  -3  14  115.79   19.60
  -6   3  14  108.09   17.00
   5  -3 -14   43.20   10.50
   5  -3 -14   28.40    8.70
  -5  -3  14   51.09   13.20
  -5   3  14   27.20   10.10
  -4  -3  14   33.40   11.80
   4  -3 -14   32.80    9.50
   4  -3 -14    8.00    5.40
  -4   3  14   29.40   10.20
   3  -3 -14  177.48   19.60
  -3  -3  14  152.38   23.20
   3  -3 -14  147.89   17.90
  -3   3  14  157.48   21.50
   2  -3 -14   42.30   10.90
   2  -3 -14   31.70    8.00
  -2  -3  14   57.89   13.30
  -2   3  14   69.19   13.90
   1  -3 -14   80.09   13.80
  -1  -3  14   61.59   12.90
  -1   3  14   98.29   15.10
   0  -3  14  342.87   28.10
   0  -3 -14  309.37   26.70
   0   3  14  314.37   26.40
   1  -3  14    1.60    4.80
  -1  -3 -14   10.90    8.40
   1   3  14    4.50    5.30
  -2  -3 -14  255.67   29.00
   2  -3  14  317.87   27.00
   2   3  14  342.97   26.20
   3  -3  14   40.70   10.60
  -3  -3 -14   29.50   11.50
   3   3  14   56.19   10.60
   4  -3  14   39.30   10.60
  -4  -3 -14   40.60   12.70
   4   3  14   27.10    8.30
  -5  -3 -14   41.00   13.40
   5  -3  14   29.00    9.30
   5   3  14   37.10    9.30
  -6  -3 -14   50.49   15.00
   6  -3  14   40.70   11.10
  -6   3 -14   71.39   16.50
   6   3  14   49.99   10.70
   7  -3  14   -0.60    4.80
  -7  -3 -14    8.40   11.70
   7   3  14    5.90    5.70
  -8  -3 -14   95.49   21.00
   8  -3  14  108.19   18.00
   8   3  14  125.79   17.10
  12  -4 -14  102.99   18.50
 -12  -4  14   77.09   20.60
 -12   4  14  105.29   21.00
  11  -4 -14   20.10    9.90
 -11  -4  14   46.50   16.60
 -11   4  14   15.90   11.10
  10  -4 -14  407.16   33.40
 -10  -4  14  298.67   38.00
 -10   4  14  434.56   41.80
   9  -4 -14    2.90    6.30
  -9  -4  14   -3.80    7.50
  -9   4  14    7.00    6.90
  -8  -4  14    8.50    9.20
   8  -4 -14   -1.70    6.70
  -8   4  14   13.30    8.80
  -7  -4  14   12.40    9.30
   7  -4 -14    4.00    6.60
  -7   4  14   13.70    7.50
   6  -4 -14  332.87   28.60
  -6  -4  14  305.27   35.90
   6  -4 -14  347.47   26.90
  -6   4  14  389.06   31.10
   5  -4 -14  818.82   54.99
   5  -4 -14  864.51   53.09
  -5  -4  14  830.32   60.49
  -5   4  14  859.11   57.09
  -4  -4  14  157.58   24.00
   4  -4 -14  168.78   20.10
   4  -4 -14  195.68   21.00
  -4   4  14  156.88   21.50
   3  -4 -14    9.20    7.10
   3  -4 -14   22.80    7.50
  -3  -4  14   15.40    8.60
  -3   4  14    5.50    6.70
   2  -4 -14   64.29   12.50
  -2  -4  14   58.49   13.80
   2  -4 -14   55.49   10.50
  -2   4  14   84.49   14.90
   1  -4 -14 1168.18   72.29
  -1  -4  14 1168.68   74.79
   1  -4 -14 1188.58   70.19
  -1   4  14 1207.88   72.89
   0  -4 -14   70.39   13.60
   0  -4  14   89.09   10.30
   0  -4  14   67.39   13.30
   0   4  14   80.69   13.10
  -1  -4 -14    3.30    7.30
   1  -4  14   32.40    9.80
   1   4  14    6.40    5.30
  -2  -4 -14    5.80    8.00
   2  -4  14    6.50    6.00
   2   4  14    4.90    4.60
   3  -4  14   14.60    7.10
  -3  -4 -14   18.40   10.00
   3   4  14   24.70    7.40
   4  -4  14   91.09   15.90
  -4  -4 -14   60.19   15.30
   4   4  14   94.79   13.80
   5  -4  14    4.80    5.50
  -5  -4 -14    2.10    9.20
   5   4  14    3.10    4.80
  -6  -4 -14   28.90   13.50
   6  -4  14   37.20   10.90
   6   4  14   42.10    9.50
   7  -4  14   13.80    7.50
  -7  -4 -14   16.10   12.50
   7   4  14   31.30    8.60
   8  -4  14   91.59   16.00
  -8  -4 -14   46.20   17.00
   8   4  14   84.29   14.00
 -12  -5  14   22.20   14.10
  12  -5 -14   20.60   10.80
 -12   5  14   19.70   12.00
  11  -5 -14   80.99   17.40
 -11  -5  14   78.19   18.80
 -11   5  14   68.39   17.40
 -10  -5  14   23.90   13.10
  10  -5 -14    4.20    7.50
 -10   5  14   27.70   11.90
  -9  -5  14   40.70   15.00
   9  -5 -14   72.19   15.00
  -9   5  14   53.39   13.90
  -8  -5  14  200.18   29.30
   8  -5 -14  247.98   27.40
  -8   5  14  219.58   26.00
  -7  -5  14  354.96   39.50
   7  -5 -14  307.97   32.50
  -7   5  14  398.56   32.00
   6  -5 -14  447.96   36.60
   6  -5 -14  504.25   34.50
  -6  -5  14  482.25   48.90
  -6   5  14  525.75   38.40
   5  -5 -14   35.50    9.30
   5  -5 -14   68.29   13.20
  -5  -5  14   70.29   16.60
  -5   5  14  121.99   17.70
   4  -5 -14  129.39   17.10
  -4  -5  14  106.49   20.20
   4  -5 -14  119.19   17.20
  -4   5  14  152.98   20.00
   3  -5 -14   92.49   14.20
   3  -5 -14  102.49   15.20
  -3  -5  14   85.79   17.70
  -3   5  14  108.29   16.70
   2  -5 -14   13.30    7.70
  -2  -5  14    6.30    7.70
   2  -5 -14    7.80    5.70
  -2   5  14   17.30    8.10
   1  -5 -14  159.98   17.80
  -1  -5  14  145.49   20.00
   1  -5 -14  143.19   19.20
  -1   5  14  194.18   21.20
   0  -5 -14  206.58   24.80
   0  -5  14  294.57   28.40
   0  -5  14  212.18   17.00
   0   5  14  228.98   23.50
   1  -5  14   10.60    6.60
  -1  -5 -14    1.60    7.30
   1   5  14   10.50    5.40
   2  -5  14   -1.40    3.80
  -2  -5 -14   -9.00    5.50
   2   5  14    1.80    3.60
  -3  -5 -14    6.60    8.30
   3  -5  14    3.10    4.90
   3   5  14   11.80    4.80
  -4  -5 -14    4.50    9.00
   4  -5  14    6.80    6.10
   4   5  14   26.00    7.50
   5  -5  14  119.49   17.20
  -5  -5 -14   95.49   19.70
   5   5  14  102.09   13.80
   6  -5  14   12.10    7.60
  -6  -5 -14    0.80   10.00
   6   5  14    9.20    5.20
  -7  -5 -14   -2.10   10.50
   7  -5  14    4.60    6.30
   7   5  14   12.80    6.70
   8  -5  14   17.30    8.60
   8   5  14   17.50    6.70
 -12  -6  14    2.80   11.40
 -12   6  14    4.10    9.20
  11  -6 -14   12.90   10.20
 -11  -6  14    8.50   11.30
 -11   6  14    6.90    9.60
  10  -6 -14  122.79   20.00
 -10  -6  14   72.19   19.00
 -10   6  14   93.79   18.40
   9  -6 -14   56.79   14.50
  -9  -6  14   50.89   17.10
  -9   6  14   70.79   15.60
   8  -6 -14  127.59   20.10
  -8  -6  14   74.29   18.70
  -8   6  14  121.29   19.10
  -7  -6  14  547.05   46.80
   7  -6 -14  524.85   41.00
   7  -6 -14  521.15   37.40
  -7   6  14  587.44   41.70
  -6  -6  14  389.16   42.10
   6  -6 -14  399.46   28.80
   6  -6 -14  349.67   35.10
  -6   6  14  395.16   31.90
   5  -6 -14  221.78   25.30
  -5  -6  14  279.17   33.20
  -5   6  14  259.87   26.90
   4  -6 -14  223.48   23.40
   4  -6 -14  224.08   24.20
  -4  -6  14  143.39   25.10
  -4   6  14  271.57   26.80
   3  -6 -14   10.20    7.00
   3  -6 -14   -3.00    5.10
  -3  -6  14    8.90    8.10
  -3   6  14   -1.60    5.60
   2  -6 -14   64.59   12.00
   2  -6 -14   51.49   11.50
  -2  -6  14   44.90   11.50
  -2   6  14   84.49   14.50
  -1  -6  14   -0.30    5.20
   1  -6 -14   -2.40    5.70
  -1  -6  14   11.90    4.90
   1  -6 -14   14.30    6.60
  -1   6  14    6.20    4.90
   0  -6 -14   95.79   16.20
   0  -6  14   90.99   15.20
   0  -6  14   94.69   11.60
   0   6  14   89.19   13.30
   1  -6  14  167.48   20.70
  -1  -6 -14  147.59   21.60
   1   6  14  178.28   18.90
  -2  -6 -14    9.60    8.10
   2  -6  14   18.10    7.70
   2   6  14   10.30    5.00
  -3  -6 -14   -0.60    6.60
   3  -6  14   34.80    9.30
   3   6  14   20.60    6.40
   4  -6  14   -0.50    4.30
  -4  -6 -14    4.80    8.40
   4   6  14    3.60    4.10
   5  -6  14  108.79   17.00
  -5  -6 -14   74.19   17.70
   5   6  14   79.89   12.30
   6  -6  14    3.30    6.60
  -6  -6 -14   16.10   11.70
   6   6  14   -0.70    4.10
   7  -6  14  166.08   21.40
  -7  -6 -14   68.59   19.20
   7   6  14  188.18   19.50
  11  -7 -14   20.20   10.60
 -11  -7  14   22.50   14.30
 -11   7  14   18.70   11.00
 -10  -7  14   69.39   18.90
  10  -7 -14   59.99   14.60
 -10   7  14   56.59   14.80
   9  -7 -14   17.90   10.10
  -9  -7  14   47.80   18.40
  -9   7  14   17.90    9.60
   8  -7 -14  294.37   32.10
  -8  -7  14  296.67   36.80
  -8   7  14  279.67   30.30
  -7  -7  14   76.99   19.60
   7  -7 -14   72.89   15.00
  -7   7  14  105.49   16.70
   6  -7 -14    4.60    7.00
   6  -7 -14    0.30    6.30
  -6  -7  14    5.90    8.60
  -6   7  14    5.00    6.90
   5  -7 -14   23.40    8.90
   5  -7 -14   12.30    6.40
  -5  -7  14   24.50   12.30
  -5   7  14   19.20    8.10
  -4  -7  14  120.69   21.80
   4  -7 -14  106.69   16.00
   4  -7 -14  100.29   15.80
   3  -7 -14  175.78   19.60
   3  -7 -14  168.78   19.70
  -3  -7  14  158.68   23.40
  -3   7  14  103.69   17.00
   2  -7 -14   70.59   12.50
  -2  -7  14   84.19   15.80
   2  -7 -14   88.49   14.60
  -2  -7  14   70.49   11.00
  -2   7  14  105.49   15.40
   1  -7 -14   95.59   15.80
   1  -7 -14  100.39   14.20
  -1  -7  14   92.09   15.70
  -1  -7  14   99.19   12.70
  -1   7  14   84.69   12.70
   0  -7  14   40.10    7.70
   0  -7 -14   36.40   11.00
   0  -7  14   39.10   10.30
   0   7  14   67.19   11.30
  -1  -7 -14  172.38   22.50
   1  -7  14  149.09   18.90
   1  -7  14  199.18   22.70
   1   7  14  195.98   19.80
   2  -7  14   27.20    8.80
  -2  -7 -14   13.40    9.20
   2   7  14   32.70    7.40
   3  -7  14   19.80    7.70
  -3  -7 -14   13.40    9.60
   3   7  14    1.50    3.00
  -4  -7 -14  129.19   21.20
   4  -7  14  149.39   19.50
  -5  -7 -14   35.80   13.10
   5  -7  14   11.80    7.20
   5   7  14    9.90    4.80
  -6  -7 -14   25.60   12.40
   6  -7  14   81.29   15.70
   6   7  14   92.49   12.90
   7  -7  14   81.49   15.00
  -7  -7 -14   44.60   16.10
   7   7  14   97.19   13.80
 -11  -8  14   30.20   17.50
  11  -8 -14    9.20    9.50
 -11   8  14   27.70   13.20
  10  -8 -14    5.40    9.10
 -10  -8  14   13.40   13.40
 -10   8  14    8.10    9.10
   9  -8 -14   62.79   15.00
  -9  -8  14   51.79   16.70
  -9   8  14   52.89   13.30
  -8  -8  14   30.30   14.40
   8  -8 -14   14.10    9.90
  -8   8  14   16.60    8.50
  -7  -8  14  192.68   30.00
   7  -8 -14  113.59   19.40
  -7   8  14  157.28   21.10
   6  -8 -14   -1.20    6.90
   6  -8 -14    3.30    6.60
  -6  -8  14   11.40   12.00
  -6   8  14    0.20    3.70
   5  -8 -14   -5.70    5.20
  -5  -8  14    8.00    9.60
   5  -8 -14   -0.90    5.30
  -5   8  14   10.80    6.40
  -4  -8  14   10.30    9.60
   4  -8 -14   -0.10    5.70
   4  -8 -14   -7.20    5.00
  -4   8  14    5.10    6.20
  -3  -8  14   13.00    5.80
   3  -8 -14    1.00    5.10
  -3  -8  14    0.50    7.60
   3  -8 -14   -1.60    6.30
  -3   8  14   15.20    7.30
  -2  -8  14   86.69   15.80
   2  -8 -14   85.89   13.50
  -2  -8  14   99.39   13.10
   2  -8 -14  105.59   16.10
  -2   8  14   98.49   14.20
   1  -8 -14   18.30    7.10
   1  -8 -14    6.80    7.20
  -1  -8  14   21.60    6.40
  -1  -8  14   18.50    8.10
  -1   8  14   21.90    6.60
   0  -8  14  144.49   15.70
   0  -8  14  140.89   19.20
   0  -8 -14  153.18   21.50
   0   8  14  156.48   17.20
  -1  -8 -14   24.00   10.30
   1  -8  14   32.50    9.10
   1  -8  14   22.60    6.00
   1   8  14   13.00    5.20
   2  -8  14    5.70    5.60
  -2  -8 -14    8.50    8.40
   2   8  14    0.90    3.70
  -3  -8 -14   -0.80    7.30
   3  -8  14   12.30    6.70
   3   8  14    7.30    4.40
  -4  -8 -14   10.30   10.00
   4  -8  14   29.00    9.70
   4   8  14   14.40    5.20
  -5  -8 -14   83.99   17.80
   5  -8  14   82.69   15.10
   5   8  14   94.09   12.60
  -6  -8 -14   44.60   15.50
   6  -8  14   98.29   17.10
   6   8  14   65.99   17.70
   7  -8  14  156.98   21.60
 -10  -9  14   34.30   17.20
  10  -9 -14   18.20   12.40
 -10   9  14   11.30   10.40
   9  -9 -14   24.50   11.40
  -9  -9  14   13.80   15.30
  -9   9  14   18.60    9.70
  -8  -9  14   54.09   17.60
   8  -9 -14   53.79   14.10
   7  -9 -14   56.49   14.30
  -7  -9  14   79.59   20.50
  -7   9  14   60.49   13.40
   6  -9 -14   12.60    8.30
  -6  -9  14   13.30   11.40
   6  -9 -14   19.60    9.60
  -6   9  14    6.70    6.00
  -5  -9  14   11.70   11.80
   5  -9 -14    3.30    6.50
   5  -9 -14    8.70    6.70
  -5   9  14    8.70    7.00
   4  -9 -14    1.70    6.50
  -4  -9  14    3.90    8.40
  -4  -9  14   -0.80    4.50
   4  -9 -14   -3.10    4.80
  -4   9  14   17.90    7.70
   3  -9 -14  256.07   25.40
  -3  -9  14  204.68   21.80
  -3  -9  14  269.27   30.60
   3  -9 -14  228.78   25.40
  -3   9  14  259.47   25.40
  -2  -9  14   54.99   12.60
   2  -9 -14   57.59   12.90
  -2  -9  14   52.49    9.30
   2  -9 -14   67.59   12.50
  -2   9  14   63.79   10.80
   1  -9 -14   16.90    7.10
   1  -9 -14    0.90    6.70
  -1  -9  14    5.50    3.50
  -1  -9  14   21.10    8.30
  -1   9  14    9.40    5.30
   0  -9 -14  427.86   33.90
   0  -9  14  445.16   29.80
   0  -9  14  397.66   32.30
   0   9  14  434.96   42.20
   1  -9  14   89.69   12.40
   1  -9  14   89.89   14.60
  -1  -9 -14   95.89   17.80
  -2  -9 -14   47.40   13.10
   2  -9  14   35.60    9.70
  -3  -9 -14  115.49   19.70
   3  -9  14  217.88   22.70
  -4  -9 -14  101.79   18.50
   4  -9  14  141.79   18.80
  -5  -9 -14    1.60    8.80
   5  -9  14    1.30    6.10
   6  -9  14   -5.20    5.00
  -6  -9 -14   -1.90    9.80
 -10 -10  14   15.80   15.80
  10 -10 -14   27.70   12.90
 -10  10  14   10.90    9.30
   9 -10 -14   -8.70    7.30
  -9 -10  14    5.60   15.40
  -9  10  14   -3.30    5.10
   8 -10 -14   88.09   17.20
  -8 -10  14  149.99   28.40
  -8  10  14  104.99   17.80
   7 -10 -14   -6.90    6.90
  -7 -10  14   28.10   15.20
  -6 -10  14   11.60   11.60
   6 -10 -14    0.00    6.30
  -5 -10  14   25.90    8.70
   5 -10 -14   20.60    9.70
   5 -10 -14   31.00   10.00
  -5 -10  14   14.40   11.30
  -4 -10  14  119.49   17.00
   4 -10 -14  157.48   19.60
  -4 -10  14  161.68   24.70
   4 -10 -14  176.88   21.80
   3 -10 -14  168.38   20.80
  -3 -10  14  208.58   22.00
  -3 -10  14  204.98   25.70
   3 -10 -14  210.98   23.70
  -2 -10  14   40.40    9.10
  -2 -10  14   55.49   12.90
   2 -10 -14   55.69   11.90
   2 -10 -14   80.89   15.10
  -1 -10  14  231.28   19.80
   1 -10 -14  224.78   26.20
   1 -10 -14  252.77   24.40
  -1 -10  14  236.98   25.80
   0 -10  14   56.29   10.00
   0 -10 -14   69.59   14.20
   0 -10  14   54.59   11.90
   1 -10  14  118.09   14.90
   1 -10  14  129.59   18.10
  -1 -10 -14  132.09   19.60
  -2 -10 -14   85.09   17.00
   2 -10  14   80.89   14.30
  -3 -10 -14    0.00    8.00
   3 -10  14    7.30    6.40
   4 -10  14    6.00    6.80
  -4 -10 -14   -1.00    8.90
  -5 -10 -14   13.10   11.10
   5 -10  14   16.40    8.10
  -9 -11  14   -6.60   14.40
   9 -11 -14    3.20    8.60
   8 -11 -14   20.40   10.80
  -8 -11  14   16.60   15.60
   7 -11 -14    4.80    7.90
  -7 -11  14   16.00   13.70
   6 -11 -14   21.20    9.60
  -6 -11  14   18.10    8.60
  -6 -11  14   35.90   15.60
  -5 -11  14   12.10    7.30
  -5 -11  14   22.40   12.20
   5 -11 -14    9.20    8.90
   5 -11 -14   13.90    8.90
  -4 -11  14   86.19   18.60
  -4 -11  14  103.29   15.40
   4 -11 -14   68.39   13.70
   4 -11 -14   68.09   13.70
  -3 -11  14  100.49   15.10
   3 -11 -14  119.19   16.70
  -3 -11  14  103.79   17.80
   3 -11 -14   96.09   16.40
   2 -11 -14  142.49   18.60
   2 -11 -14  142.99   19.50
  -2 -11  14  116.39   15.60
  -2 -11  14  122.99   18.00
   1 -11 -14   12.00    7.50
  -1 -11  14   15.90    6.20
  -1 -11  14   21.10    8.70
   1 -11 -14   21.20   10.10
   0 -11  14   82.39   12.30
   0 -11  14  142.19   17.70
   0 -11 -14  169.68   21.20
   1 -11  14    9.50    6.60
  -1 -11 -14   11.20    8.60
   1 -11  14    9.80    5.40
   2 -11  14   -1.80    4.20
  -2 -11 -14    3.80    8.60
   3 -11  14   17.90    8.00
  -3 -11 -14   13.90   11.30
  -4 -11 -14   26.40   12.80
   4 -11  14   51.09   11.30
   5 -11  14    5.40    6.40
  -8 -12  14    1.10   12.90
  -8 -12  14   24.40   10.80
   8 -12 -14   21.30   11.10
  -7 -12  14   94.89   22.40
   7 -12 -14   77.49   16.60
  -7 -12  14   48.60   13.50
   6 -12 -14    7.60    8.60
  -6 -12  14    5.20    7.30
  -6 -12  14   13.30   13.10
   5 -12 -14   10.30    7.90
  -5 -12  14    5.40    9.70
   5 -12 -14   10.70    7.30
  -5 -12  14    6.70    6.30
   4 -12 -14   74.79   15.10
   4 -12 -14   82.79   15.30
  -4 -12  14  108.69   19.50
  -4 -12  14  107.49   16.00
  -3 -12  14   81.59   14.50
   3 -12 -14   75.49   14.10
  -3 -12  14   96.49   14.60
   3 -12 -14   99.09   16.20
   2 -12 -14   -0.30    6.80
  -2 -12  14    3.30    5.70
  -2 -12  14    7.20    6.90
   2 -12 -14    6.90    6.80
   1 -12 -14   15.60    9.30
  -1 -12  14   20.70    8.30
  -1 -12  14   18.80    6.70
   0 -12  14   31.70    9.30
   0 -12  14   32.10    8.10
   0 -12 -14   31.10   10.90
   1 -12  14    6.40    4.60
  -1 -12 -14   23.00   10.60
   1 -12  14   12.40    6.50
   2 -12  14    0.80    5.30
  -2 -12 -14    1.90    8.20
   3 -12  14   51.89   11.10
  -3 -12 -14   57.69   14.70
   4 -12  14  435.06   33.10
  -7 -13  14   29.90   10.30
  -7 -13  14   16.80   15.90
   7 -13 -14   15.40   10.20
   6 -13 -14   13.70    9.00
  -6 -13  14    6.70   12.00
  -6 -13  14   10.50    8.30
   5 -13 -14  139.79   20.90
  -5 -13  14  157.28   20.50
  -5 -13  14  115.69   23.10
  -4 -13  14    4.50    6.60
  -4 -13  14    2.60    7.90
   4 -13 -14   14.00    8.40
   4 -13 -14   11.40    9.00
  -3 -13  14   -2.40    5.10
  -3 -13  14    5.60    6.10
   3 -13 -14    1.10    7.90
   3 -13 -14    4.20    7.70
   2 -13 -14   27.60   10.70
  -2 -13  14   17.90    8.00
  -2 -13  14   28.80    8.60
   2 -13 -14   15.10    8.90
  -1 -13  14   32.60    8.40
   1 -13 -14   21.90   10.40
  -1 -13  14   40.00   10.10
   0 -13 -14   10.10    9.00
   0 -13  14   26.30    8.30
   0 -13  14   15.30    6.80
  -1 -13 -14   46.60   14.10
   1 -13  14   56.99   11.40
   1 -13  14   62.29   11.40
  -2 -13 -14   34.30   12.70
   2 -13  14   35.20    9.80
   3 -13  14  176.68   20.10
  -6 -14  14    0.00    9.90
  -5 -14  14   66.29   16.20
   5 -14 -14   63.39   16.00
  -5 -14  14   53.29   12.80
  -4 -14  14    3.20    6.90
  -4 -14  14   15.70    9.00
   4 -14 -14   19.20   10.00
   4 -14 -14    7.60    8.70
   3 -14 -14   56.49   13.10
   3 -14 -14   59.19   14.00
  -3 -14  14   75.39   13.50
  -3 -14  14   59.29   12.90
  -2 -14  14   84.39   14.00
   2 -14 -14   38.50   11.60
  -2 -14  14   45.30   10.80
   2 -14 -14   55.69   14.50
  -1 -14  14   52.99   11.40
  -1 -14  14   55.49   12.10
   1 -14 -14   45.30   13.30
   0 -14  14   11.30    6.90
   0 -14  14   30.30    8.70
   0 -14 -14   26.80   12.20
  -1 -14 -14   13.40   10.20
   1 -14  14   15.00    6.80
   1 -14  14   21.80    8.50
  -2 -15  14  118.29   16.70
 -12   0  15   -1.00    9.20
 -11   0  15   13.40   11.30
 -10   0  15   -7.00    6.30
  -9   0  15   68.89   17.00
  -8   0  15   37.60   12.20
  -7   0  15  122.69   19.90
  -6   0  15    5.00    8.30
  -5   0  15 2433.06  143.79
  -4   0  15   35.30   12.00
  -3   0  15  168.58   23.50
  -2   0  15   -3.00    6.00
   2   0 -15   -5.10    6.80
  -1   0  15  508.15   37.10
   1   0 -15  447.26   35.00
   0   0 -15    8.90    7.90
   0   0  15    3.80    5.70
   1   0  15  201.68   23.30
  -1   0 -15  198.28   24.10
  -2   0 -15    3.80    8.50
   2   0  15    0.50    4.60
   3   0  15   60.19   12.80
  -3   0 -15   59.59   15.00
  -4   0 -15   -6.70    7.70
   4   0  15    1.40    5.50
  -5   0 -15   15.80   10.80
   5   0  15    7.30    6.10
  -6   0 -15   10.80   11.20
   6   0  15   15.30    7.80
   7   0  15   93.59   15.70
  -7   0 -15   50.19   17.80
 -12  -1  15   35.80   14.00
 -12   1  15   55.79   16.30
 -11  -1  15    7.50    9.20
 -11   1  15   20.00   12.10
 -10  -1  15   65.89   17.10
 -10   1  15   44.60   13.90
  -9  -1  15   34.60   12.30
  -9   1  15   42.60   13.70
  -8  -1  15   89.09   17.80
  -8   1  15   77.49   16.40
  -7  -1  15   35.80   12.30
  -7   1  15   61.29   14.20
  -6  -1  15  140.89   22.10
  -6   1  15  153.28   22.70
  -5  -1  15  188.58   26.60
  -5   1  15  231.98   27.40
  -4  -1  15  584.04   45.60
  -4   1  15  586.84   44.90
  -3  -1  15   42.00   12.70
   3  -1 -15   35.60   10.60
  -3   1  15   32.70   11.80
   2  -1 -15  235.18   25.90
  -2  -1  15  278.07   31.00
  -2   1  15  256.57   28.20
  -1  -1  15    1.60    5.50
   1  -1 -15   13.40    8.60
  -1   1  15   23.10    8.60
   0  -1 -15  128.49   18.40
   0  -1  15  169.88   21.80
   0   1  15  160.38   20.50
   0   1 -15  134.19   19.10
  -1  -1 -15  474.75   36.50
   1  -1  15  517.65   37.40
  -1   1 -15  465.65   36.70
   1   1  15  469.05   36.00
   2  -1  15  371.96   30.70
  -2  -1 -15  397.66   31.80
   2   1  15  339.57   29.40
  -2   1 -15  355.46   31.30
  -3  -1 -15   14.90   10.80
   3  -1  15   15.60    7.80
  -3   1 -15   18.20    9.70
   3   1  15   33.30    9.60
  -4  -1 -15    6.30   10.10
   4  -1  15   -1.30    4.40
   4   1  15    9.30    6.30
  -4   1 -15    0.20    9.60
  -5  -1 -15    8.20   11.00
   5  -1  15    2.40    5.80
  -5   1 -15    4.50    9.80
   5   1  15    8.40    5.70
   6  -1  15   17.40    8.50
  -6  -1 -15   31.90   15.30
   6   1  15   18.70    8.30
  -6   1 -15   30.50   13.50
  -7  -1 -15    4.70   13.40
   7  -1  15    4.40    6.50
  -7   1 -15    0.20   11.40
   7   1  15   15.80    8.50
 -12  -2  15    9.60   10.70
 -12   2  15   13.80   11.10
 -11  -2  15  119.79   23.10
 -11   2  15  160.98   25.50
 -10  -2  15   20.70   11.80
 -10   2  15   20.70   11.00
  -9  -2  15   48.00   15.50
  -9   2  15   56.79   14.50
  -8  -2  15   -0.80    8.30
  -8   2  15   12.90    8.10
  -7  -2  15  179.58   25.80
  -7   2  15  184.48   24.20
  -6  -2  15   82.09   17.50
  -6   2  15   82.59   16.30
  -5  -2  15  538.05   43.80
  -5   2  15  540.15   41.80
  -4  -2  15  130.59   22.00
   4  -2 -15  131.19   18.20
  -4   2  15  143.69   21.20
   3  -2 -15  190.58   21.50
  -3  -2  15  125.09   20.70
  -3   2  15  224.38   26.80
  -2  -2  15   25.00    9.70
   2  -2 -15   21.30    9.30
  -2   2  15   33.20   10.90
   1  -2 -15  100.59   17.00
  -1  -2  15  187.08   22.90
  -1   2  15  162.68   21.00
   0  -2  15   24.60    8.90
   0  -2 -15    5.10    8.40
   0   2  15   19.20    7.90
  -1  -2 -15   37.90   11.70
   1  -2  15   49.20   11.80
   1   2  15   61.49   12.10
   2  -2  15  457.45   33.40
  -2  -2 -15  347.47   32.20
  -2   2 -15  388.66   32.60
   2   2  15  378.76   30.80
   3  -2  15  121.09   18.40
  -3  -2 -15   79.19   16.10
   3   2  15  117.69   17.00
  -3   2 -15  100.49   18.20
  -4  -2 -15   47.70   14.40
   4  -2  15   74.09   14.40
  -4   2 -15   65.49   16.90
   4   2  15   67.49   12.90
  -5  -2 -15   30.40   12.90
   5  -2  15   18.10    8.60
   5   2  15   26.30    8.60
  -5   2 -15    7.40   10.70
   6  -2  15    3.10    6.20
  -6  -2 -15   -0.60   12.30
   6   2  15    2.10    5.10
  -6   2 -15    3.40   10.50
   7  -2  15   32.30   10.60
  -7  -2 -15   22.70   15.80
   7   2  15   17.00    7.50
  -7   2 -15   21.40   13.30
 -12   3  15  458.25   47.90
 -11  -3  15   50.39   15.50
 -11   3  15   88.69   19.10
 -10  -3  15   36.80   13.70
 -10   3  15   28.00   11.40
   9  -3 -15   58.29   14.00
  -9  -3  15   41.20   14.10
  -9   3  15   53.89   14.20
   8  -3 -15    2.10    6.40
  -8  -3  15    1.70    8.80
  -8   3  15   -1.50    5.80
  -7  -3  15   33.70   11.60
   7  -3 -15   20.30    8.70
  -7   3  15   41.50   11.80
  -6  -3  15   18.00   10.50
   6  -3 -15   34.80   10.50
  -6   3  15   22.80    9.20
   5  -3 -15   -2.20    5.30
   5  -3 -15   27.50    9.60
  -5  -3  15    9.90    9.40
  -5   3  15   17.40    7.90
  -4  -3  15   24.70   11.60
   4  -3 -15   23.90    8.10
   4  -3 -15   30.40    9.50
  -4   3  15   15.90    8.60
  -3  -3  15    1.60    6.70
   3  -3 -15    3.50    6.80
  -3   3  15    7.50    7.30
   2  -3 -15   28.30   10.20
  -2  -3  15   31.10   10.40
  -2   3  15   54.59   12.00
   1  -3 -15  163.48   20.60
  -1  -3  15  150.68   21.60
  -1   3  15  208.18   23.60
   0  -3 -15   97.99   16.50
   0  -3  15   72.09   14.30
   0   3  15  123.99   17.30
  -1  -3 -15   97.99   16.30
   1  -3  15   86.19   15.60
   1   3  15  113.39   16.10
  -2  -3 -15  157.28   21.70
   2  -3  15  167.08   21.40
   2   3  15  195.48   21.70
  -3  -3 -15  157.38   23.70
   3  -3  15  202.48   25.00
   3   3  15  209.58   23.10
   4  -3  15    3.40    5.50
  -4  -3 -15    3.40    9.70
   4   3  15    6.20    5.80
   5  -3  15   -7.60    4.40
  -5  -3 -15   -5.20    9.40
   5   3  15   -1.70    4.10
   6  -3  15   37.80   11.50
  -6  -3 -15   24.20   13.80
   6   3  15   44.80   10.20
  -7  -3 -15   42.40   17.30
   7  -3  15   41.60   11.90
   7   3  15   43.00   10.80
 -12  -4  15    0.90   10.50
 -12   4  15   27.00   13.10
  11  -4 -15   -1.60    7.10
 -11  -4  15   15.40   13.10
 -11   4  15    3.40    8.70
 -10  -4  15   -3.00    7.70
  10  -4 -15   -2.40    7.40
 -10   4  15    8.90    9.10
  -9  -4  15   81.39   19.00
   9  -4 -15  108.59   18.10
  -9   4  15   72.69   15.90
  -8  -4  15   21.70   11.20
   8  -4 -15   16.90    8.70
  -8   4  15   32.30   10.90
  -7  -4  15    5.60    8.30
   7  -4 -15    1.60    6.90
  -7   4  15   15.30    8.40
  -6  -4  15  311.17   37.30
   6  -4 -15  364.26   29.60
  -6   4  15  345.57   34.40
  -5  -4  15   16.60   10.00
   5  -4 -15    7.70    7.20
   5  -4 -15   13.90    7.40
  -5   4  15   13.40    8.70
   4  -4 -15   67.59   13.80
   4  -4 -15   79.29   13.50
  -4  -4  15   72.09   16.50
  -4   4  15   74.49   14.80
  -3  -4  15    9.60    8.30
   3  -4 -15    7.40    5.80
   3  -4 -15    1.30    7.30
  -3   4  15    7.30    7.10
   2  -4 -15   28.10   10.20
   2  -4 -15   35.90    9.10
  -2  -4  15   68.19   14.80
  -2   4  15   49.00   11.50
  -1  -4  15   55.59   13.10
   1  -4 -15   61.69   13.70
  -1   4  15   50.49   11.40
   0  -4  15  140.79   19.80
   0  -4 -15  136.09   19.50
   0   4  15  171.68   20.30
  -1  -4 -15   14.10    9.30
   1  -4  15   22.20    8.20
   1   4  15   23.40    7.50
   2  -4  15  164.08   21.80
  -2  -4 -15   99.99   17.50
   2   4  15  131.19   17.10
  -3  -4 -15   56.39   14.70
   3  -4  15   66.79   13.60
   3   4  15   72.39   12.90
  -4  -4 -15   63.99   15.20
   4  -4  15  101.09   17.10
   4   4  15   97.29   14.80
   5  -4  15   54.49   13.10
  -5  -4 -15   56.89   15.40
   5   4  15   66.39   12.00
   6  -4  15   37.40   11.50
  -6  -4 -15   33.90   15.50
   6   4  15   45.40   10.50
   7  -4  15    1.20    5.90
  -7  -4 -15   -5.70   11.50
   7   4  15   -2.10    4.30
 -11  -5  15   36.40   16.40
  11  -5 -15   10.00    9.00
 -11   5  15   23.50   12.00
  10  -5 -15  193.18   25.60
 -10   5  15  229.08   28.70
  -9  -5  15   25.40   13.60
   9  -5 -15   12.10    8.80
  -9   5  15   33.90   11.70
  -8  -5  15   49.90   15.20
   8  -5 -15   66.59   14.70
  -8   5  15   58.19   14.10
   7  -5 -15    3.90    6.50
  -7  -5  15   12.70   10.30
  -7   5  15   17.10    8.90
   6  -5 -15   57.79   12.70
   6  -5 -15   56.29   11.80
  -6  -5  15   45.20   14.60
  -6   5  15   89.29   15.50
  -5  -5  15  103.89   21.70
   5  -5 -15  103.59   16.30
   5  -5 -15  104.79   16.70
  -5   5  15  116.69   18.30
  -4  -5  15   -6.50    6.00
   4  -5 -15   10.80    8.40
   4  -5 -15   18.50    8.40
  -4   5  15   31.40   10.40
  -3  -5  15   65.79   14.70
   3  -5 -15   28.10    8.70
   3  -5 -15   50.79   11.30
  -3   5  15   33.30   10.30
  -2  -5  15  248.08   28.90
   2  -5 -15  237.58   26.80
   2  -5 -15  255.37   25.10
  -2   5  15  287.17   28.00
   1  -5 -15    4.40    7.40
  -1  -5  15   -3.30    2.90
  -1  -5  15    1.40    5.80
  -1   5  15    3.60    5.00
   0  -5  15   56.89   13.20
   0  -5 -15   30.70   11.10
   0   5  15   49.30   10.70
  -1  -5 -15   39.10   11.60
   1  -5  15   45.20   11.00
   1   5  15   53.39   11.00
  -2  -5 -15   -2.60    7.30
   2  -5  15    8.20    6.70
   2   5  15   11.90    6.10
  -3  -5 -15  167.78   24.60
   3  -5  15  250.27   27.70
   3   5  15  255.97   24.20
  -4  -5 -15    8.00   10.40
   4  -5  15    0.50    5.80
   4   5  15   11.70    5.90
  -5  -5 -15  100.79   21.20
   5  -5  15  165.08   22.00
   5   5  15  187.28   20.50
   6  -5  15   25.50   10.30
  -6  -5 -15    2.70   12.70
   6   5  15   23.90    7.80
   7  -5  15    7.20    6.80
   7   5  15   10.20    5.60
 -11  -6  15   50.99   17.20
  11  -6 -15   57.29   15.10
 -11   6  15   49.00   14.40
 -10  -6  15   43.50   15.80
  10  -6 -15   52.69   14.20
 -10   6  15   71.39   16.60
   9  -6 -15    0.00    7.50
  -9  -6  15   11.20   11.60
  -9   6  15    8.00    7.80
   8  -6 -15  444.96   38.80
  -8  -6  15  599.54   49.00
   7  -6 -15  117.89   18.90
   7  -6 -15  156.68   22.40
  -7  -6  15  147.19   26.50
  -7   6  15  144.39   19.80
   6  -6 -15    8.60    7.90
  -6  -6  15   22.10   12.80
   6  -6 -15   17.40    8.90
  -6   6  15   27.20   10.40
   5  -6 -15   12.70    7.60
  -5  -6  15    7.90    9.60
   5  -6 -15    9.10    7.60
  -5   6  15   24.10    9.50
   4  -6 -15   75.29   14.20
  -4  -6  15  119.99   20.80
   4  -6 -15   48.60   12.20
  -4   6  15   92.59   16.20
  -3  -6  15   16.30    9.30
   3  -6 -15   13.30    8.00
   3  -6 -15   25.70    8.60
  -3   6  15   18.10    8.00
   2  -6 -15  217.88   25.10
   2  -6 -15  213.08   23.00
  -2  -6  15  251.87   28.40
  -2   6  15  266.87   26.30
  -1  -6  15   10.00    7.50
  -1  -6  15    9.00    4.50
   1  -6 -15    4.30    7.70
  -1   6  15    9.90    5.40
   0  -6 -15    2.50    7.80
   0  -6  15   16.40    7.60
   0  -6  15    4.90    7.10
   0   6  15    8.30    5.30
  -1  -6 -15    0.70    7.70
   1  -6  15   12.30    7.20
   1   6  15    1.10    4.00
  -2  -6 -15   -2.70    7.60
   2  -6  15    3.90    5.60
   2   6  15    4.20    4.40
  -3  -6 -15   -7.60    7.50
   3  -6  15    9.10    6.90
   3   6  15    8.80    5.20
   4  -6  15  185.18   22.30
  -4  -6 -15  116.39   21.20
   4   6  15  203.98   20.40
   5  -6  15   40.40   11.40
  -5  -6 -15   19.00   13.50
   5   6  15   31.20    8.40
   6  -6  15   36.50   10.80
  -6  -6 -15   13.50   13.30
   6   6  15   34.00    8.90
  11  -7 -15  134.79   22.40
 -11   7  15  125.99   22.50
  10  -7 -15   22.90   11.40
 -10  -7  15   13.70   13.80
 -10   7  15   24.90   11.30
   9  -7 -15   22.80   11.40
  -9  -7  15   54.19   17.60
  -9   7  15    3.00    7.90
   8  -7 -15   49.80   13.90
  -8  -7  15   51.29   17.20
  -8   7  15   56.89   13.20
   7  -7 -15  195.58   25.00
  -7  -7  15  220.78   31.80
  -7   7  15  154.98   21.20
   6  -7 -15    3.20    6.70
  -6  -7  15    6.80   10.40
   6  -7 -15   18.50    8.00
  -6   7  15   19.40    9.00
   5  -7 -15   60.99   12.00
   5  -7 -15   68.69   13.90
  -5  -7  15   66.19   19.30
  -5   7  15   79.89   14.60
   4  -7 -15   26.30    9.50
  -4  -7  15   25.40   12.30
   4  -7 -15   31.10    9.50
  -4   7  15   39.90   10.90
   3  -7 -15   -2.60    5.50
   3  -7 -15    4.60    7.60
  -3  -7  15   -2.50    6.30
  -3   7  15    4.30    4.00
   2  -7 -15   55.99   13.00
   2  -7 -15   49.70   11.10
  -2  -7  15   58.09   13.70
  -1  -7  15   40.30   10.20
  -1  -7  15   27.40    6.60
   1  -7 -15   31.50   10.60
  -1   7  15   23.50    7.40
   0  -7  15    6.80    6.20
   0  -7 -15    6.10    8.20
   0  -7  15   16.00    5.40
   0   7  15    9.30    4.80
   1  -7  15   -4.10    4.80
  -1  -7 -15   -6.50    6.20
   1   7  15    4.40    4.30
  -2  -7 -15    5.40    8.60
   2  -7  15   31.40    8.80
   2   7  15   -0.30    2.60
   3  -7  15   36.50   10.10
  -3  -7 -15   17.00   10.20
   4  -7  15   73.99   14.20
  -4  -7 -15   50.39   14.20
   4   7  15   80.79   11.80
   5  -7  15  230.68   25.90
  -5  -7 -15  158.78   25.80
   5   7  15  243.48   19.80
  -6  -7 -15   35.00   15.40
   6  -7  15  102.19   17.10
   6   7  15   85.19   12.70
  10  -8 -15  420.36   42.50
  -9  -8  15   31.70   16.30
   9  -8 -15   27.30   12.20
  -9   8  15   37.60   12.30
  -8  -8  15   42.10   18.70
   8  -8 -15   70.69   15.90
  -8   8  15   52.59   12.90
   7  -8 -15   25.10   10.70
  -7  -8  15   42.00   17.90
  -7   8  15   28.10    9.90
   6  -8 -15   18.40    9.00
   6  -8 -15   33.50   10.00
  -6  -8  15   45.60   16.80
  -6   8  15    3.20    5.30
   5  -8 -15   10.50    8.00
   5  -8 -15    1.80    5.30
  -5  -8  15    9.00   11.50
  -5   8  15    8.10    6.30
   4  -8 -15   19.20    8.10
   4  -8 -15   23.50    9.40
  -4  -8  15   24.10   12.20
  -4   8  15    4.20    7.10
   3  -8 -15   19.60    8.50
  -3  -8  15   20.00    7.00
   3  -8 -15    8.30    7.90
  -3  -8  15   17.10    9.70
  -3   8  15   18.20    7.80
  -2  -8  15   84.59   16.10
   2  -8 -15  105.39   16.90
   2  -8 -15  108.39   15.80
  -2  -8  15  104.99   13.60
  -2   8  15   75.29   12.80
   1  -8 -15   19.10    9.70
  -1  -8  15    9.80    7.30
  -1  -8  15   18.50    6.10
  -1   8  15    7.40    4.80
   0  -8  15  338.47   27.20
   0  -8  15  268.27   21.40
   0  -8 -15  276.37   29.50
   0   8  15  271.07   22.20
   1  -8  15   96.89   15.70
  -1  -8 -15   70.09   15.70
   1   8  15   82.79   11.80
   2  -8  15   -0.60    4.90
  -2  -8 -15    6.20    9.30
   2   8  15    2.10    3.80
  -3  -8 -15   48.80   14.10
   3  -8  15   64.99   13.50
   3   8  15   66.29   10.30
  -4  -8 -15  181.68   26.60
   4  -8  15  277.47   28.10
   4   8  15  224.08   19.50
  -5  -8 -15   74.09   18.20
   5  -8  15  106.59   17.50
   6  -8  15   64.89   14.10
 -10  -9  15   48.00   19.70
  10  -9 -15   59.19   17.40
 -10   9  15   61.59   15.30
   9  -9 -15  169.18   25.30
  -9  -9  15  156.78   30.20
  -9   9  15  118.69   19.80
  -8  -9  15   69.39   21.40
   8  -9 -15  109.09   19.70
  -8   9  15   97.19   16.40
  -7  -9  15   42.40   16.20
   7  -9 -15   53.99   14.10
  -7   9  15   48.20   11.80
   6  -9 -15    5.80    8.20
   6  -9 -15   23.10   10.70
  -6  -9  15   -2.80    9.70
  -6   9  15   17.40    8.80
  -5  -9  15   -4.60    9.30
   5  -9 -15    1.40    4.60
   5  -9 -15   -1.50    6.50
  -5   9  15   -1.00    5.40
  -4  -9  15   34.50   12.80
   4  -9 -15   22.40    9.50
  -4  -9  15   17.60    7.60
   4  -9 -15   20.10    9.30
  -4   9  15   32.30    9.70
  -3  -9  15  317.27   35.10
   3  -9 -15  330.97   29.00
  -3  -9  15  323.57   26.80
   3  -9 -15  392.96   30.10
  -3   9  15  385.06   28.70
   2  -9 -15    0.20    6.70
  -2  -9  15    4.20    4.80
   2  -9 -15   11.00    6.60
  -2  -9  15    2.20    6.90
  -2   9  15   -5.10    4.50
  -1  -9  15   82.89   15.50
  -1  -9  15   79.99   12.10
   1  -9 -15  103.29   17.10
   0  -9 -15  234.38   27.80
   0  -9  15  262.47   20.90
   0  -9  15  260.17   27.70
   1  -9  15  225.58   24.10
  -1  -9 -15  145.09   21.80
   2  -9  15   91.79   15.20
  -2  -9 -15   62.29   15.30
  -3  -9 -15    3.70    9.20
   3  -9  15    5.30    6.40
  -4  -9 -15   -2.70    8.90
   4  -9  15    7.10    6.50
   5  -9  15   75.49   14.50
  -5  -9 -15   44.60   15.20
   9 -10 -15   51.29   16.40
  -9 -10  15   31.30   17.80
   8 -10 -15   29.10   12.40
  -8 -10  15   28.10   17.70
   7 -10 -15   14.40   10.00
  -7 -10  15   45.00   18.70
  -6 -10  15   90.89   21.40
   6 -10 -15   84.39   16.70
  -5 -10  15   11.00    6.70
   5 -10 -15    1.40    6.70
  -5 -10  15   11.40   11.20
   5 -10 -15    4.80    6.90
  -4 -10  15  450.15   39.90
   4 -10 -15  463.75   35.80
   4 -10 -15  437.16   34.50
  -4 -10  15  479.35   34.70
   3 -10 -15  113.29   18.20
  -3 -10  15  126.99   16.80
   3 -10 -15  116.59   17.20
  -3 -10  15  122.29   20.50
  -2 -10  15   93.19   13.70
  -2 -10  15  142.59   20.10
   2 -10 -15  111.09   16.10
   2 -10 -15  136.39   19.40
   1 -10 -15   17.00    9.30
  -1 -10  15    4.80    3.90
  -1 -10  15    9.80    7.70
   0 -10 -15  494.35   38.10
   0 -10  15  496.85   33.70
   0 -10  15  468.65   36.50
   1 -10  15   72.99   14.20
  -1 -10 -15   88.79   17.30
   2 -10  15   10.70    7.00
  -2 -10 -15    4.40    8.20
   3 -10  15   45.90   11.40
  -3 -10 -15   32.00   11.70
  -4 -10 -15   23.40   12.40
   4 -10  15   14.50    7.90
   8 -11 -15   13.80    9.00
  -8 -11  15   19.80   16.60
   7 -11 -15  188.58   25.90
  -7 -11  15  151.28   28.60
  -6 -11  15   49.20   12.60
   6 -11 -15   60.79   14.60
  -6 -11  15   41.90   18.90
   5 -11 -15    7.30    8.10
  -5 -11  15   12.10    7.60
   5 -11 -15    5.80    8.10
  -5 -11  15   20.90   12.40
   4 -11 -15    2.40    7.10
   4 -11 -15    9.70    9.80
  -4 -11  15   24.60    8.50
  -3 -11  15  338.67   28.30
  -3 -11  15  397.16   33.20
   3 -11 -15  398.36   31.20
   3 -11 -15  346.97   30.20
  -2 -11  15   13.40    7.80
   2 -11 -15   14.60    7.30
  -2 -11  15   12.30    6.70
   2 -11 -15   19.10    9.40
  -1 -11  15   44.60   11.30
  -1 -11  15   21.90    7.20
   1 -11 -15   11.80    9.50
   0 -11 -15   13.40    9.30
   0 -11  15    6.20    4.50
   0 -11  15    4.50    6.10
  -1 -11 -15   29.60   12.00
   1 -11  15   16.60    7.90
   2 -11  15   12.40    7.40
  -2 -11 -15    4.10    9.00
   3 -11  15    9.40    7.50
   4 -11  15   17.50    8.20
  -7 -12  15  213.88   26.50
  -7 -12  15  158.98   30.80
   7 -12 -15  171.38   24.60
  -6 -12  15  228.38   25.60
   6 -12 -15  201.48   25.50
  -6 -12  15  130.49   25.40
  -5 -12  15   36.70   11.10
   5 -12 -15   40.40   12.70
   5 -12 -15   28.40   16.90
  -5 -12  15   30.20   12.40
   4 -12 -15   59.89   14.00
  -4 -12  15   65.09   15.40
  -4 -12  15   57.89   12.40
   4 -12 -15   58.19   13.90
  -3 -12  15    1.50    6.20
   3 -12 -15   15.50    8.50
  -3 -12  15    3.40    5.60
   3 -12 -15   -2.40    8.80
  -2 -12  15    6.10    5.70
  -2 -12  15   11.10    7.20
   2 -12 -15    0.20    8.10
  -1 -12  15  155.68   18.10
  -1 -12  15  168.18   20.50
   1 -12 -15  153.88   21.70
   0 -12  15   -2.00    3.60
   0 -12 -15    5.20    8.40
   0 -12  15   10.30    6.70
  -1 -12 -15    1.80    9.30
   1 -12  15    6.00    6.70
   2 -12  15   13.80    7.90
  -2 -12 -15   15.20   11.40
  -6 -13  15   30.20   15.60
  -5 -13  15   19.10    9.10
   5 -13 -15    4.60    8.30
  -5 -13  15    8.60   10.60
   4 -13 -15   33.60   11.90
   4 -13 -15   13.00   10.20
  -4 -13  15   22.60    8.70
  -4 -13  15   17.30   10.40
   3 -13 -15   17.20   10.50
   3 -13 -15   12.20    9.30
  -3 -13  15   19.00    8.10
  -3 -13  15   10.90    8.20
   2 -13 -15   29.10   11.40
  -2 -13  15   46.30   10.70
  -2 -13  15   56.49   13.00
  -1 -13  15    6.70    6.00
   1 -13 -15   -9.80    7.90
  -1 -13  15    1.80    6.30
   0 -13  15   30.50    9.40
   0 -13  15   34.60    9.50
   0 -13 -15   42.60   13.50
   1 -13  15    1.20    5.60
  -3 -14  15   44.80   11.80
  -2 -14  15   41.40   10.50
 -11   0  16   -1.60    8.60
 -10   0  16   56.09   15.90
  -9   0  16   42.50   13.70
  -8   0  16  193.78   26.40
  -7   0  16   -1.40    7.80
  -6   0  16  377.96   39.70
  -5   0  16   22.40   10.90
  -4   0  16  304.67   33.50
  -3   0  16   20.10   10.40
  -2   0  16   57.09   12.70
   1   0 -16    0.20    8.00
  -1   0  16    2.20    5.20
   0   0  16   39.80   10.40
   0   0 -16   30.70   11.40
  -1   0 -16    8.50    8.50
   1   0  16    3.20    5.30
  -2   0 -16   13.30   10.80
   2   0  16   21.30    9.20
   3   0  16   -1.00    4.60
  -3   0 -16    9.40    9.90
   4   0  16    7.80    6.90
  -4   0 -16   10.20   10.60
   5   0  16    5.10    5.90
  -5   0 -16   26.40   13.70
  -6   0 -16    2.60   12.40
   6   0  16   -2.50    4.80
 -11  -1  16   13.70   10.40
 -11   1  16   13.40   11.20
 -10  -1  16   48.20   14.90
 -10   1  16   37.30   14.00
  -9  -1  16   56.79   15.00
  -9   1  16   57.09   15.00
  -8  -1  16   15.30    9.90
  -8   1  16   22.50   11.40
  -7  -1  16   82.59   17.70
  -7   1  16   49.70   13.80
  -6  -1  16  144.59   23.40
  -6   1  16  118.49   19.90
  -5  -1  16  722.33   55.79
  -5   1  16  801.92   55.99
  -4  -1  16  213.38   27.90
  -4   1  16  163.38   24.60
  -3  -1  16  120.39   20.40
   3  -1 -16  153.18   20.50
  -3   1  16  152.88   21.90
  -2  -1  16   47.70   12.30
   2  -1 -16   36.30   11.30
  -2   1  16   54.29   12.40
   1  -1 -16   17.70    9.20
  -1  -1  16   25.00    9.10
  -1   1  16   22.20    8.90
   0  -1  16  111.09   17.70
   0  -1 -16   85.59   16.20
   0   1 -16   71.69   16.00
   0   1  16  111.99   18.10
  -1  -1 -16    1.60    8.60
   1  -1  16    6.50    6.40
  -1   1 -16    0.60    8.70
   1   1  16    3.50    5.30
   2  -1  16   78.19   15.00
  -2  -1 -16   48.90   13.80
   2   1  16   79.89   14.90
  -2   1 -16   67.49   15.80
   3  -1  16   10.30    7.20
  -3  -1 -16    6.60    9.90
   3   1  16   11.40    6.30
  -3   1 -16    6.20    9.70
  -4  -1 -16   20.50   13.10
   4  -1  16   19.20    9.20
   4   1  16   12.20    7.50
  -4   1 -16   18.70   11.50
   5  -1  16   53.59   12.20
  -5  -1 -16   49.80   16.30
  -5   1 -16   56.19   17.10
   5   1  16   58.49   12.20
   6  -1  16   41.60   11.10
  -6  -1 -16   46.70   16.30
  -6   1 -16   39.80   16.30
   6   1  16   45.60   11.60
 -11  -2  16   82.39   20.00
 -11   2  16   55.29   16.60
 -10  -2  16   19.90   12.10
 -10   2  16   23.20   12.50
  -8  -2  16   17.30   10.40
  -8   2  16   11.40    8.70
  -7  -2  16   34.40   12.60
  -7   2  16   43.00   12.80
  -6  -2  16   11.60    9.80
  -6   2  16   31.70   11.80
  -5  -2  16  154.38   24.40
  -5   2  16  207.58   26.20
  -4  -2  16   15.80   10.10
   4  -2 -16    1.30    7.10
  -4   2  16   27.90   11.10
  -3  -2  16   43.90   13.20
   3  -2 -16   21.60    9.80
  -3   2  16   13.30    8.90
  -2  -2  16   22.30    9.10
   2  -2 -16   37.00   11.60
  -2   2  16   37.20   11.00
   1  -2 -16    3.30    7.60
  -1  -2  16   12.10    7.90
  -1   2  16   25.70    9.00
   0  -2  16   98.89   16.60
   0  -2 -16  132.19   19.60
   0   2  16  136.89   18.90
  -1  -2 -16  213.48   26.20
   1  -2  16  225.68   26.90
   1   2  16  238.38   26.80
   2  -2  16  102.69   17.10
  -2  -2 -16  109.39   19.60
   2   2  16  110.09   17.30
   3  -2  16   89.59   15.80
  -3  -2 -16   69.99   16.50
  -3   2 -16   75.09   15.90
   3   2  16   73.29   14.10
  -4  -2 -16   -9.70    8.80
   4  -2  16   10.10    7.20
  -4   2 -16    8.60   10.10
   4   2  16   18.30    7.40
  -5  -2 -16  134.59   25.00
   5  -2  16  184.78   23.90
  -5   2 -16  135.69   23.40
   5   2  16  208.18   23.20
  -6  -2 -16    2.60   13.00
   6  -2  16    2.20    6.40
  -6   2 -16    0.40   12.60
   6   2  16   -1.20    4.90
 -11  -3  16   87.09   20.70
 -11   3  16  133.99   22.90
 -10  -3  16   39.50   15.00
 -10   3  16   70.89   16.40
  -9  -3  16   29.70   12.20
  -9   3  16   19.70   10.00
  -8  -3  16   30.70   13.60
  -8   3  16   37.70   11.70
  -7  -3  16  108.49   21.30
  -7   3  16   61.09   14.80
  -6  -3  16   -3.30    6.50
  -6   3  16    3.20    7.70
  -5  -3  16   22.00   11.40
   5  -3 -16   13.90    8.90
  -5   3  16   13.40    8.30
   4  -3 -16    6.10    8.10
  -4  -3  16    7.40    8.40
  -4   3  16   15.10    8.90
  -3  -3  16   11.20    8.00
   3  -3 -16   -7.00    6.70
  -3   3  16    6.00    6.50
   2  -3 -16   80.29   15.00
  -2  -3  16  102.59   17.70
  -2   3  16   65.39   13.70
   1  -3 -16    7.20    8.10
  -1  -3  16   -1.10    4.80
  -1   3  16   13.90    6.80
   0  -3  16   39.40   11.90
   0  -3 -16   15.10    9.40
   0   3  16   31.60   10.00
  -1  -3 -16    1.20    8.80
   1  -3  16    3.40    5.80
   1   3  16   19.90    7.50
   2  -3  16  233.68   26.80
  -2  -3 -16  153.28   22.30
   2   3  16  172.18   21.20
   3  -3  16   74.09   14.70
  -3  -3 -16   59.49   16.00
   3   3  16   39.40   10.00
   4  -3  16   57.59   12.70
  -4  -3 -16   17.30   13.00
   4   3  16   70.59   13.40
   5  -3  16   -3.20    5.50
  -5  -3 -16   35.90   15.90
   5   3  16   15.90    7.40
   6  -3  16  140.69   21.30
  -6  -3 -16  108.69   23.80
   6   3  16  140.69   18.80
 -11  -4  16  108.79   23.50
  11  -4 -16  140.89   22.10
 -11   4  16  171.98   26.10
  10  -4 -16   -4.30    6.60
 -10  -4  16   17.60    9.70
 -10   4  16    2.00    8.10
  -9  -4  16   77.29   18.30
   9  -4 -16  125.89   19.90
  -9   4  16   83.29   17.00
  -8  -4  16   -1.30    8.90
   8  -4 -16    5.60    8.00
  -8   4  16   28.00   10.70
   7  -4 -16    2.90    7.20
  -7  -4  16    2.90    8.10
  -7   4  16    5.00    7.30
   6  -4 -16  258.97   26.80
  -6  -4  16  199.48   29.30
  -6   4  16  204.58   25.80
   5  -4 -16    8.60    8.10
   5  -4 -16    3.50    6.10
  -5  -4  16    3.50    8.80
  -5   4  16    1.80    6.50
   4  -4 -16   73.49   14.80
   4  -4 -16   67.29   13.30
  -4  -4  16   83.69   19.30
  -4   4  16   82.39   16.20
  -3  -4  16  140.39   22.60
   3  -4 -16  190.18   23.10
   3  -4 -16  192.38   21.40
  -3   4  16  201.58   25.00
   2  -4 -16  208.28   24.70
  -2  -4  16  209.28   25.90
  -2   4  16  226.68   26.00
  -1  -4  16   66.29   14.20
   1  -4 -16   74.49   14.70
  -1   4  16   72.59   13.20
   0  -4  16  245.28   27.90
   0  -4 -16  170.18   23.10
   0   4  16  206.28   22.80
  -1  -4 -16   75.69   15.90
   1  -4  16   96.79   16.70
   1   4  16  102.79   16.20
  -2  -4 -16  151.78   23.40
   2  -4  16  181.78   23.30
   2   4  16  211.58   22.60
  -3  -4 -16  563.04   46.20
   3  -4  16  608.14   44.70
   3   4  16  631.64   42.60
  -4  -4 -16    7.30   10.10
   4  -4  16   11.10    6.80
   4   4  16   14.20    7.00
   5  -4  16   91.09   17.20
  -5  -4 -16   66.79   19.10
   5   4  16   90.39   14.80
   6  -4  16    3.50    7.20
  -6  -4 -16  -10.60   11.70
   6   4  16   26.40    8.30
  11  -5 -16   24.00   12.00
 -11  -5  16   12.50   12.30
 -11   5  16   36.70   13.30
  10  -5 -16   20.50   10.70
 -10  -5  16    2.50   11.00
 -10   5  16    7.00    8.30
  -9  -5  16  -13.90    8.00
   9  -5 -16    5.60    8.50
  -9   5  16   14.50    8.90
  -8  -5  16   87.49   21.00
   8  -5 -16   66.79   14.90
  -8   5  16   45.60   13.00
   7  -5 -16   30.50   11.20
  -7  -5  16    4.80   10.30
  -7   5  16   32.90   11.30
   6  -5 -16    8.90    6.80
   6  -5 -16   13.90    8.10
  -6  -5  16   41.00   14.00
  -6   5  16   30.50   10.80
  -5  -5  16    6.00   10.20
   5  -5 -16   -2.90    7.10
   5  -5 -16   -0.80    5.80
  -5   5  16   11.20    8.80
   4  -5 -16   85.59   16.00
  -4  -5  16   81.49   17.70
   4  -5 -16   93.29   15.10
  -4   5  16  116.59   18.40
  -3  -5  16  586.14   45.70
   3  -5 -16  581.54   40.50
   3  -5 -16  534.65   40.60
  -3   5  16  558.84   41.90
   2  -5 -16  499.15   38.00
  -2  -5  16  499.75   40.40
  -2   5  16  529.05   38.20
   1  -5 -16   28.70   11.20
  -1  -5  16   27.40   10.20
  -1  -5  16   18.50    9.60
  -1   5  16   31.60    8.80
   0  -5  16    5.90    7.10
   0  -5 -16    6.40    8.50
   0   5  16    8.30    5.90
   1  -5  16  103.89   17.20
  -1  -5 -16   86.79   17.40
   1   5  16   95.29   14.40
  -2  -5 -16  241.48   30.50
   2  -5  16  335.67   34.10
   2   5  16  381.76   27.60
   3  -5  16   59.89   13.90
  -3  -5 -16   29.60   12.40
   3   5  16   51.59   10.80
   4  -5  16    1.70    5.90
  -4  -5 -16  -11.20    8.70
   4   5  16    2.30    5.00
  -5  -5 -16   -3.80   10.60
   5  -5  16   -1.90    6.40
   5   5  16   -0.60    4.60
   6  -5  16   19.50    9.80
   6   5  16    3.90    5.10
 -10  -6  16    3.50   12.30
  10  -6 -16   -0.10    8.30
 -10   6  16    8.30    9.80
  -9  -6  16   26.10   15.00
   9  -6 -16   21.00   11.00
  -9   6  16   18.40   10.30
   8  -6 -16   -1.50    7.40
  -8  -6  16   13.90   12.20
  -8   6  16    1.60    7.40
  -7  -6  16   33.20   14.30
   7  -6 -16   19.20    9.50
  -7   6  16   37.70   11.70
   6  -6 -16   31.80   10.10
   6  -6 -16   30.00   11.40
  -6  -6  16   22.60   14.00
  -6   6  16   43.00   11.70
  -5  -6  16  277.07   36.00
   5  -6 -16  246.98   28.40
   5  -6 -16  290.87   25.20
  -5   6  16  327.47   32.60
   4  -6 -16  218.48   25.50
  -4  -6  16  248.58   31.60
   4  -6 -16  259.27   27.80
  -4   6  16  277.17   30.10
   3  -6 -16   23.80    8.60
   3  -6 -16   23.50    9.90
  -3  -6  16   43.10   13.80
  -3   6  16   28.00    9.70
  -2  -6  16   72.79   15.20
   2  -6 -16   71.39   15.50
  -2   6  16   81.09   14.20
  -1  -6  16   92.09   16.40
  -1  -6  16  106.99   13.30
   1  -6 -16  106.09   18.20
  -1   6  16   95.99   14.70
   0  -6  16  258.97   28.00
   0  -6 -16  208.88   27.70
   0   6  16  284.77   23.20
   1  -6  16   26.20    9.60
  -1  -6 -16   22.80   11.40
   1   6  16   26.20    7.80
   2  -6  16    6.00    6.70
  -2  -6 -16    0.60    9.10
   2   6  16    6.10    4.70
   3  -6  16   13.10    6.80
  -3  -6 -16    2.10    9.20
   3   6  16    0.10    4.10
   4  -6  16  106.99   17.50
  -4  -6 -16   55.19   17.00
   4   6  16  102.99   14.50
   5  -6  16  121.99   19.90
  -5  -6 -16   51.69   17.10
   5   6  16  147.49   17.50
  10  -7 -16  199.68   28.10
  -9  -7  16   55.09   19.00
   9  -7 -16   44.50   13.40
  -9   7  16   47.60   13.10
   8  -7 -16   56.09   14.60
  -8  -7  16   29.70   15.80
  -8   7  16   51.59   13.30
  -7  -7  16   -3.50   10.10
   7  -7 -16   11.30    8.90
  -7   7  16   15.90    8.70
   6  -7 -16   13.20    8.40
   6  -7 -16    9.40    9.00
  -6  -7  16   28.90   13.00
  -6   7  16   66.89   14.30
   5  -7 -16    2.70    6.60
   5  -7 -16   18.20    9.50
  -5  -7  16   16.60   12.50
  -5   7  16   29.90    9.60
  -4  -7  16  391.96   42.40
   4  -7 -16  416.16   33.90
   4  -7 -16  397.26   32.50
  -4   7  16  460.45   35.00
   3  -7 -16   16.50    8.30
  -3  -7  16   20.70   10.40
   3  -7 -16   35.90   11.90
  -3   7  16   27.20    9.80
   2  -7 -16   41.60   11.70
  -2  -7  16   41.70   12.00
  -2  -7  16   65.49   10.60
  -2   7  16    8.00    5.40
  -1  -7  16   32.50    7.50
  -1  -7  16   36.90   11.20
   1  -7 -16   42.90   13.10
   0  -7 -16    0.40    9.30
   0  -7  16   14.70    7.50
   0   7  16   -0.10    2.50
   1  -7  16  120.69   19.00
  -1  -7 -16   87.29   18.10
   2  -7  16    6.20    6.20
  -2  -7 -16    0.80    8.90
   2   7  16    2.90    3.50
  -3  -7 -16   -1.30    8.50
   3  -7  16   23.20    9.40
   3   7  16    9.60    5.50
   4  -7  16  219.08   26.90
  -4  -7 -16  161.38   25.80
   4   7  16  260.67   20.70
  -5  -7 -16  161.18   26.70
   5  -7  16  149.29   21.70
   5   7  16  147.19   17.90
   9  -8 -16  142.19   22.00
  -9  -8  16  123.89   26.30
  -9   8  16   88.59   17.80
  -8  -8  16   50.29   19.70
   8  -8 -16   54.09   15.50
  -8   8  16   28.30   11.10
   7  -8 -16   -7.50    6.50
  -7  -8  16   -6.80   11.60
  -7   8  16   -2.10    6.20
   6  -8 -16   10.60    7.90
  -6  -8  16    3.40   12.00
   6  -8 -16    6.20    8.10
  -6   8  16   13.90    8.70
   5  -8 -16   29.50   10.90
  -5  -8  16   17.80   11.80
   5  -8 -16   20.50   10.60
  -5   8  16    0.40    4.00
   4  -8 -16   -0.50    7.40
  -4  -8  16   23.90   11.90
   4  -8 -16   15.90    9.70
  -4   8  16   15.20    8.30
  -3  -8  16   17.30    9.50
   3  -8 -16   35.20   11.60
  -3  -8  16   35.80    8.90
   3  -8 -16   55.29   12.50
  -3   8  16   42.60   10.40
  -2  -8  16    9.20    7.50
   2  -8 -16   20.30   10.30
  -2  -8  16    6.40    4.30
  -2   8  16   12.50    6.10
  -1  -8  16   72.09   11.00
  -1  -8  16   62.59   14.10
   1  -8 -16   77.79   16.70
  -1   8  16   67.79   11.80
   0  -8  16   10.10    7.50
   0  -8 -16    3.00    9.60
   0   8  16   20.00    7.10
   1  -8  16   37.20   11.30
  -1  -8 -16   27.80   11.60
   1   8  16   34.10    7.90
  -2  -8 -16   43.90   14.10
   2  -8  16   42.80   10.80
   2   8  16   44.30    9.20
   3  -8  16   24.60    9.00
  -3  -8 -16   19.50   12.00
  -4  -8 -16   79.39   18.20
   4  -8  16   99.39   16.10
   9  -9 -16    1.50    9.20
  -9  -9  16    6.70   16.60
  -9   9  16    6.20    9.10
   8  -9 -16   14.20   11.00
  -8  -9  16   10.50   14.40
  -8   9  16    3.60    7.40
   7  -9 -16   15.30    9.60
  -7  -9  16   27.60   16.90
  -7   9  16    2.00    5.90
  -6  -9  16    4.30   11.90
   6  -9 -16   13.30    9.10
   6  -9 -16   20.80   19.50
  -6   9  16   12.40    8.10
   5  -9 -16   23.70   10.30
   5  -9 -16   21.60    9.40
  -5  -9  16   12.90   11.50
  -5   9  16   30.10   10.80
   4  -9 -16  107.29   17.40
  -4  -9  16  121.89   17.00
   4  -9 -16   95.69   16.70
  -4  -9  16   84.29   18.50
  -4   9  16  120.69   23.00
  -3  -9  16    0.70    7.20
   3  -9 -16    6.10    7.40
   3  -9 -16   -2.40    8.20
  -3  -9  16    1.90    5.10
  -2  -9  16    5.20    6.50
  -2  -9  16    0.20    4.40
   2  -9 -16    7.20    8.50
  -1  -9  16   60.49   10.20
   1  -9 -16   44.60   13.50
  -1  -9  16   65.79   13.80
   0  -9 -16   74.39   16.60
   0  -9  16   72.19   14.10
  -1  -9 -16   50.79   14.20
   1  -9  16   52.49   12.80
  -2  -9 -16   20.50   11.00
   2  -9  16    9.60    7.50
  -3  -9 -16   -2.40    8.60
   3  -9  16   -1.80    5.80
   4  -9  16    4.20    6.50
   8 -10 -16   34.50   13.00
  -8 -10  16   44.70   19.60
   7 -10 -16  228.08   27.50
  -7 -10  16   96.69   24.70
  -6 -10  16   -0.90   11.80
   6 -10 -16    7.60    9.40
   5 -10 -16   11.50    8.10
   5 -10 -16   -1.60    5.60
  -5 -10  16   30.70   14.30
  -5 -10  16   11.20    8.40
   4 -10 -16   11.90    8.60
   4 -10 -16    5.50    8.40
  -4 -10  16   12.10    7.00
  -4 -10  16    0.40    9.10
   3 -10 -16  335.07   32.30
  -3 -10  16  325.27   26.50
   3 -10 -16  311.57   32.50
  -3 -10  16  320.07   34.70
   2 -10 -16   16.60    9.30
  -2 -10  16   15.50    8.60
  -2 -10  16   20.40    7.60
  -1 -10  16   28.40    9.90
   1 -10 -16   30.90   11.20
  -1 -10  16   33.40    8.30
   0 -10  16  248.28   27.30
   0 -10 -16  241.38   29.10
   1 -10  16   10.50    7.10
  -1 -10 -16    9.60   10.20
   2 -10  16    9.40    7.40
  -2 -10 -16   -3.50    9.50
  -3 -10 -16   25.70   13.60
   3 -10  16   32.70   10.50
  -7 -11  16  124.99   28.60
   7 -11 -16  141.49   22.30
  -6 -11  16  137.59   20.30
   6 -11 -16  132.89   21.50
  -6 -11  16  102.69   23.80
  -5 -11  16    0.20   10.60
  -5 -11  16    6.70    7.60
   5 -11 -16    1.90    8.30
   5 -11 -16    3.70    5.80
   4 -11 -16   63.89   14.50
  -4 -11  16   90.19   15.40
   4 -11 -16   77.39   15.60
  -4 -11  16   80.19   16.70
   3 -11 -16    1.30    6.40
  -3 -11  16   -6.70    4.30
  -3 -11  16    8.00    8.30
   3 -11 -16    9.00    9.20
  -2 -11  16    4.80    6.00
  -2 -11  16   23.60    8.90
   2 -11 -16    4.50    8.90
  -1 -11  16    2.30    3.80
   1 -11 -16    9.90   10.10
  -1 -11  16   24.60    9.80
   0 -11 -16   19.00   10.60
   0 -11  16   12.40    7.80
   1 -11  16   36.30   11.00
  -1 -11 -16   31.40   12.90
   2 -11  16   -6.00    3.80
  -2 -11 -16    7.20    9.70
  -6 -12  16   96.09   22.70
  -5 -12  16   68.59   18.50
  -5 -12  16   92.39   16.30
   5 -12 -16   88.49   16.90
   4 -12 -16    0.80    9.00
  -4 -12  16   -1.20    6.30
  -4 -12  16   20.40   11.40
   4 -12 -16    3.30    7.40
   3 -12 -16    5.50    8.70
  -3 -12  16   28.60    9.20
  -3 -12  16   17.60    8.80
   2 -12 -16  104.99   18.90
  -2 -12  16   75.89   15.10
  -2 -12  16  106.89   15.60
  -1 -12  16    8.00    7.40
   1 -12 -16    0.30    9.90
  -1 -12  16    3.70    5.40
   0 -12  16   26.10    9.80
   0 -12 -16   19.90   10.80
   1 -12  16   10.60    6.80
  -3 -13  16    7.50    8.00
  -2 -13  16    3.80    7.20
 -11   0  17   14.50   10.80
 -10   0  17    0.20    8.90
  -9   0  17   17.00   10.50
  -8   0  17    7.90    9.50
  -7   0  17   53.09   15.00
  -6   0  17    4.80    8.00
  -5   0  17  111.39   20.30
  -4   0  17    0.50    7.20
  -3   0  17   23.30   11.10
  -2   0  17    1.60    6.60
   1   0 -17  485.65   39.40
  -1   0  17  552.14   40.30
   0   0  17    4.80    7.00
   0   0 -17    1.30    8.90
  -1   0 -17  270.17   31.80
   1   0  17  353.56   29.40
   2   0  17    7.90    6.80
  -2   0 -17    7.60   11.30
   3   0  17  100.79   16.90
  -3   0 -17   70.89   18.00
   4   0  17   -2.40    4.80
  -4   0 -17   -1.80    9.70
   5   0  17  153.78   21.20
  -5   0 -17  148.29   26.00
 -11  -1  17    5.20    9.80
 -11   1  17  -12.30    7.10
 -10  -1  17   13.10   11.60
 -10   1  17   10.20   10.10
  -9   1  17  108.09   20.30
  -8  -1  17    1.00    9.40
  -8   1  17    3.90    8.30
  -7  -1  17    6.50    9.60
  -7   1  17   11.00    9.30
  -6  -1  17   42.50   14.20
  -6   1  17   50.89   14.20
  -5  -1  17   52.99   15.10
  -5   1  17   38.40   13.40
  -4  -1  17   33.90   12.80
  -4   1  17   43.10   13.50
  -3  -1  17   53.59   14.10
  -3   1  17   59.49   15.00
   2  -1 -17  290.87   31.00
  -2  -1  17  234.18   28.00
  -2   1  17  292.17   30.20
   1  -1 -17   40.90   12.00
  -1  -1  17   40.80   11.10
  -1   1  17   38.70   11.00
   0  -1 -17   -0.40    7.90
   0  -1  17   -3.80    5.50
   0   1  17    4.10    5.80
   1  -1  17   33.80   10.60
  -1  -1 -17    8.10   10.30
   1   1  17   43.60   11.70
  -1   1 -17   12.30   10.40
  -2  -1 -17   78.09   17.70
   2  -1  17  128.29   19.60
  -2   1 -17   72.79   17.80
   2   1  17  119.59   17.70
  -3  -1 -17   -7.80    8.70
   3  -1  17    3.90    6.00
   3   1  17    3.50    5.50
  -3   1 -17    8.80   10.70
   4  -1  17    3.20    6.30
  -4  -1 -17   20.90   12.90
  -4   1 -17    6.70   12.00
   4   1  17    4.60    5.80
   5  -1  17  204.98   25.60
  -5  -1 -17  131.89   25.10
  -5   1 -17  164.98   27.20
   5   1  17  187.18   23.30
 -11  -2  17   21.00   12.70
 -11   2  17   20.00   13.00
 -10   2  17  130.79   22.30
  -8  -2  17   28.50   13.40
  -8   2  17   33.70   12.30
  -7  -2  17  100.29   20.40
  -7   2  17   71.39   16.60
  -6  -2  17   36.80   13.00
  -6   2  17   21.60   11.00
  -5  -2  17   31.40   13.50
  -5   2  17   44.70   13.70
  -4  -2  17   62.99   15.50
  -4   2  17   46.50   13.30
   3  -2 -17   -4.10    8.30
  -3  -2  17    4.90    7.60
  -3   2  17    4.00    6.80
   2  -2 -17   30.80   11.70
  -2  -2  17   40.80   12.70
  -2   2  17   17.10    8.90
   1  -2 -17   56.19   14.30
  -1  -2  17   89.09   15.90
  -1   2  17   57.29   12.10
   0  -2 -17   13.10    9.80
   0  -2  17   15.70    8.30
   0   2  17   15.60    7.20
   1  -2  17  104.39   17.60
  -1  -2 -17   60.19   15.60
   1   2  17   86.69   15.70
  -2  -2 -17   26.70   12.90
   2  -2  17   30.40   10.40
   2   2  17   23.40    9.00
  -3  -2 -17   19.20   12.80
   3  -2  17   13.80    7.90
   3   2  17   19.40    8.70
   4  -2  17  116.09   19.40
  -4  -2 -17   68.99   18.60
   4   2  17  111.29   17.30
   5  -2  17  114.99   18.40
  -5  -2 -17   86.59   21.60
  -5   2 -17  117.69   23.50
   5   2  17  127.49   18.20
 -10  -3  17   84.99   20.10
 -10   3  17  113.49   20.10
  -8  -3  17   37.50   14.30
  -8   3  17   59.59   14.40
  -7  -3  17    8.10    9.60
  -7   3  17   21.10   10.50
  -6  -3  17  158.18   25.70
  -6   3  17  135.99   22.30
  -5  -3  17    5.60    9.40
  -5   3  17    5.50    7.70
  -4  -3  17   16.00   10.20
   4  -3 -17   10.10    9.40
  -4   3  17   19.60    9.90
  -3  -3  17   34.10   12.50
   3  -3 -17   15.80   10.20
  -3   3  17   20.20   10.40
  -2  -3  17   28.30   10.80
   2  -3 -17   25.50   11.10
  -2   3  17   19.60    8.70
   1  -3 -17   -6.40    7.60
  -1  -3  17    9.00    6.40
  -1   3  17    9.00    6.20
   0  -3  17   44.90   11.20
   0  -3 -17   43.40   13.20
   0   3  17   38.80   10.10
  -1  -3 -17    6.40    9.40
   1  -3  17   30.30   10.10
   1   3  17   31.20    9.40
   2  -3  17   44.50   12.00
  -2  -3 -17   19.30   12.10
   2   3  17   67.69   13.60
   3  -3  17  273.67   29.90
  -3  -3 -17  236.98   30.50
   3   3  17  241.18   26.10
  -4  -3 -17    9.30   13.20
   4  -3  17   -3.60    6.20
   4   3  17    6.20    5.70
  -5  -3 -17   75.59   20.40
   5  -3  17  155.38   22.00
   5   3  17  139.29   19.30
 -10  -4  17   -7.00   10.10
 -10   4  17    1.30    7.40
  -9  -4  17  194.28   30.00
   8  -4 -17   11.30    8.30
  -8  -4  17    3.70    9.90
  -8   4  17   15.30   10.30
   7  -4 -17  227.38   26.10
  -7  -4  17  176.98   28.20
  -7   4  17  197.88   25.60
   6  -4 -17    7.80    8.00
  -6  -4  17    2.50    9.90
  -6   4  17    3.40    7.60
  -5  -4  17   11.50   10.10
   5  -4 -17   10.00   10.10
  -5   4  17   15.10    9.50
  -4  -4  17    6.00    8.30
   4  -4 -17   -3.10    8.50
  -4   4  17    5.50    7.70
  -3  -4  17  192.98   26.40
   3  -4 -17  167.98   22.60
  -3   4  17  259.97   28.70
  -2  -4  17  408.36   36.50
   2  -4 -17  488.55   36.70
  -2   4  17  435.16   34.80
  -1  -4  17   48.90   12.10
   1  -4 -17   34.60   13.10
  -1   4  17   46.30   11.30
   0  -4  17   22.30    8.90
   0  -4 -17   22.10   11.20
   0   4  17    3.90    5.70
   1  -4  17   20.80    9.00
  -1  -4 -17    2.10    9.10
   1   4  17   24.60    8.80
  -2  -4 -17  253.37   31.20
   2  -4  17  343.07   33.90
   2   4  17  293.47   25.70
  -3  -4 -17    9.30   11.10
   3  -4  17   26.40    9.50
   3   4  17   29.30    8.90
  -4  -4 -17   16.40   12.90
   4  -4  17   34.50   10.70
   4   4  17   16.40    6.90
  -5  -4 -17    1.20   12.80
   5  -4  17   13.00    8.80
   5   4  17    8.20    6.60
  10  -5 -17   -2.00    9.40
 -10  -5  17    7.90   12.00
 -10   5  17    3.10    8.80
  -9  -5  17   17.90   13.60
   9  -5 -17   34.70   12.50
  -9   5  17    6.10    9.10
  -8  -5  17   31.50   15.60
   8  -5 -17   80.89   16.20
  -8   5  17   61.69   14.60
  -7  -5  17   10.90    9.90
   7  -5 -17   18.30   10.00
  -7   5  17   11.60    9.20
   6  -5 -17  105.89   18.00
   6  -5 -17  112.99   17.60
  -6  -5  17  111.99   22.80
  -6   5  17  123.39   20.10
  -5  -5  17  158.28   26.80
   5  -5 -17  200.58   24.40
   5  -5 -17  208.98   24.70
  -5   5  17  222.08   26.50
   4  -5 -17  415.26   32.30
  -4  -5  17  286.37   36.90
   4  -5 -17  377.56   31.70
  -4   5  17  384.16   33.00
   3  -5 -17  131.99   20.70
  -3  -5  17  139.29   23.80
  -3   5  17  172.28   22.30
   2  -5 -17   99.39   17.10
  -2  -5  17   84.29   16.60
  -2   5  17   80.59   14.50
   1  -5 -17   72.19   16.00
  -1  -5  17  100.69   17.50
  -1   5  17   80.29   14.20
   0  -5  17   47.30   11.70
   0  -5 -17   41.70   13.50
   0   5  17   56.39   12.20
  -1  -5 -17    2.20    9.50
   1  -5  17    2.30    6.70
   1   5  17   11.20    6.20
   2  -5  17   42.80   11.50
  -2  -5 -17   12.10   11.10
   2   5  17   42.00   10.10
  -3  -5 -17   65.39   18.00
   3  -5  17   82.69   16.10
   3   5  17   85.49   14.30
  -4  -5 -17   -7.70   11.30
   4  -5  17   -3.70    5.40
   4   5  17    1.30    5.00
   5  -5  17   -2.90    6.10
   5   5  17    0.70    5.00
 -10  -6  17   24.30   15.00
 -10   6  17   21.20   11.00
   9  -6 -17   -6.60    7.90
  -9  -6  17    9.70   12.40
  -9   6  17   11.70    8.70
   8  -6 -17   34.30   11.90
  -8  -6  17   25.40   13.30
  -8   6  17   25.80   10.70
   7  -6 -17   97.19   17.70
  -7  -6  17   64.99   18.90
  -7   6  17   89.39   16.90
   6  -6 -17   10.60    6.80
  -6  -6  17   87.29   21.10
   6  -6 -17   12.10    8.70
  -6   6  17   24.60   10.70
   5  -6 -17   50.29   12.70
   5  -6 -17   29.90   11.80
  -5  -6  17   67.89   18.80
  -5   6  17   49.70   13.40
   4  -6 -17  633.54   45.40
  -4  -6  17  678.83   52.19
   4  -6 -17  625.44   45.50
  -4   6  17  615.84   46.50
  -3  -6  17  322.47   36.20
  -3   6  17  357.36   30.20
  -2  -6  17  148.39   22.60
   2  -6 -17  124.99   19.80
  -2  -6  17  158.98   17.50
  -2   6  17  132.69   18.50
   1  -6 -17   72.19   16.30
  -1  -6  17   64.09   14.10
  -1   6  17   91.79   14.60
   0  -6 -17  -11.50    8.00
   0  -6  17   15.40    7.80
   0   6  17    3.20    4.80
   1  -6  17   64.29   14.00
  -1  -6 -17   38.10   13.70
   1   6  17   59.69   12.00
   2  -6  17   -0.60    4.90
  -2  -6 -17    4.10    9.40
   2   6  17   11.20    5.80
  -3  -6 -17    5.40   11.90
   3  -6  17   23.50    8.80
   3   6  17   27.70    8.80
   4  -6  17   16.70    8.90
  -4  -6 -17   28.70   14.10
   4   6  17   24.90    8.30
  -9  -7  17   34.00   17.40
   9  -7 -17   53.49   14.90
  -9   7  17   30.10   12.80
  -8  -7  17   28.90   15.90
   8  -7 -17   60.79   15.00
  -8   7  17   17.10    9.90
   7  -7 -17   81.39   16.80
  -7  -7  17   85.19   21.90
  -7   7  17  103.59   17.50
   6  -7 -17   18.80    8.90
  -6  -7  17   14.50   12.10
   6  -7 -17    4.40    7.60
  -6   7  17   35.90   11.80
   5  -7 -17  197.08   23.50
  -5  -7  17  143.29   26.00
   5  -7 -17  244.78   27.20
  -5   7  17  228.48   26.00
  -4  -7  17   54.49   15.90
   4  -7 -17   36.50   12.20
   4  -7 -17   50.09   12.70
  -4   7  17   68.79   14.10
  -3  -7  17   24.10   10.80
   3  -7 -17   25.30   11.30
  -3   7  17   16.00    7.40
  -2  -7  17   -1.10    4.20
  -2  -7  17    0.70    7.30
   2  -7 -17   -4.30    7.10
  -2   7  17    5.50    5.40
   1  -7 -17   49.80   13.50
  -1  -7  17   44.40   12.70
  -1   7  17   47.20   10.60
   0  -7  17   57.29   12.90
   0  -7 -17   64.79   16.00
   0   7  17   59.19   11.20
   1  -7  17   36.40   11.10
  -1  -7 -17   34.70   13.80
   1   7  17   53.59   11.00
   2  -7  17   38.80   12.30
  -2  -7 -17   15.60   11.50
   2   7  17   19.70    6.80
  -3  -7 -17    7.10   11.80
   3  -7  17   19.70    9.00
   3   7  17   21.00    7.10
   4  -7  17   63.99   14.40
   4   7  17   73.49   12.60
  -9  -8  17   17.40   16.50
  -9   8  17   14.80   10.70
  -8  -8  17   50.39   20.80
   8  -8 -17   72.79   17.60
  -8   8  17   67.59   15.30
  -7  -8  17   12.10   14.60
   7  -8 -17   -4.30    7.80
  -7   8  17    7.20    8.50
   6  -8 -17  217.48   25.60
  -6  -8  17   96.69   23.20
   6  -8 -17  143.89   20.40
  -6   8  17  166.18   23.00
   5  -8 -17    7.50    9.10
   5  -8 -17   15.30   10.50
  -5  -8  17   14.10   11.00
  -5   8  17    7.10    7.60
   4  -8 -17  131.59   20.50
  -4  -8  17  133.09   23.40
   4  -8 -17  120.39   19.10
  -3  -8  17   -0.30    6.60
  -3  -8  17    4.20    5.80
   3  -8 -17   -5.30    7.60
  -3   8  17    2.70    5.50
  -2  -8  17   -0.80    6.40
  -2  -8  17    5.30    5.30
   2  -8 -17   -4.80    8.00
  -2   8  17    1.20    4.30
  -1  -8  17    5.80    7.80
   1  -8 -17    1.10    8.60
  -1   8  17    7.70    5.40
   0  -8 -17  -13.80    8.30
   0  -8  17    0.40    5.80
   0   8  17    3.60    4.80
  -1  -8 -17   18.00   11.90
   1  -8  17   27.90    9.30
   1   8  17   15.30    7.30
   2  -8  17   -3.50    5.20
  -2  -8 -17   10.60   10.00
  -3  -8 -17    8.80   11.10
   3  -8  17   21.80    9.60
  -8  -9  17   25.90   18.70
  -8   9  17    9.80    9.30
   7  -9 -17    8.10    9.60
  -7  -9  17   13.90   14.40
  -7   9  17    2.60    6.20
   6  -9 -17    0.20    7.90
  -6  -9  17    0.40   11.40
  -6   9  17    4.40   10.40
  -5  -9  17   60.19   18.00
   5  -9 -17   17.10   10.00
  -4  -9  17   74.49   17.20
   4  -9 -17   67.79   14.30
  -4  -9  17   92.39   15.40
   4  -9 -17   57.69   14.30
  -3  -9  17    7.00    5.60
  -3  -9  17    6.80    7.50
   3  -9 -17    5.70    9.00
   2  -9 -17    8.40    9.30
  -2  -9  17    2.90    6.30
  -2  -9  17    6.10    5.50
   1  -9 -17   18.30   11.20
  -1  -9  17    6.90    7.50
   0  -9  17  109.99   18.20
   0  -9 -17   89.89   18.10
   1  -9  17   49.00   12.40
  -1  -9 -17   43.40   15.00
   2  -9  17    3.40    6.10
  -2  -9 -17   -1.20    9.80
  -7 -10  17   11.40   15.60
  -6 -10  17    6.60   12.30
   6 -10 -17   15.60   10.80
   5 -10 -17   49.70   13.40
  -5 -10  17   52.29   17.10
  -5 -10  17   69.19   14.70
   5 -10 -17   67.79   15.10
   4 -10 -17   12.40    9.90
  -4 -10  17    5.20    8.20
   4 -10 -17    0.00    7.50
  -4 -10  17    2.00    6.30
  -3 -10  17    0.70    5.20
   3 -10 -17    5.00    9.10
  -3 -10  17    5.00    7.30
  -2 -10  17    4.60    4.80
   2 -10 -17   -5.40    8.70
  -2 -10  17    0.40    6.80
   1 -10 -17   50.09   14.30
  -1 -10  17   83.89   16.50
   0 -10  17  175.98   22.60
   0 -10 -17  141.29   22.30
   1 -10  17   66.39   14.10
  -1 -10 -17   47.60   14.90
   2 -10  17   49.20   12.20
  -5 -11  17   -8.00    8.80
   5 -11 -17    3.10    9.30
  -5 -11  17   11.00    8.10
  -4 -11  17   -1.60    8.20
   4 -11 -17   14.00    9.40
  -4 -11  17   10.60    8.00
   4 -11 -17   10.30   10.00
   3 -11 -17   16.40   10.70
  -3 -11  17   14.80    7.70
  -3 -11  17    6.90    7.80
  -2 -11  17    7.80    7.20
  -2 -11  17   14.90    7.80
   2 -11 -17   -1.40    9.10
   1 -11 -17   24.70   12.50
  -1 -11  17   29.60   10.80
   0 -11  17   52.79   12.60
 -10   0  18   39.40   15.30
  -9   0  18   -9.60    7.00
  -8   0  18   17.00   11.20
  -7   0  18   -4.40    7.20
  -6   0  18   60.89   16.20
  -5   0  18   38.00   14.20
  -4   0  18  245.38   31.20
  -3   0  18    4.10    7.80
  -2   0  18 1550.84   96.29
  -1   0  18    6.90    7.20
   0   0  18   13.30    8.10
   0   0 -18   21.60   12.10
   1   0  18    7.30    6.70
  -1   0 -18   -9.70   10.30
  -2   0 -18  164.08   25.80
   2   0  18  240.48   27.10
  -3   0 -18    8.20   11.70
   3   0  18    2.30    5.70
  -4   0 -18   -1.20   12.30
   4   0  18   16.10    8.10
 -10  -1  18   38.70   14.90
 -10   1  18   43.60   14.50
  -9  -1  18   50.39   15.40
  -9   1  18   69.29   16.90
  -8  -1  18    0.20    9.50
  -8   1  18    2.60    9.80
  -7  -1  18   43.90   14.10
  -7   1  18   33.50   12.90
  -6  -1  18   28.20   12.40
  -6   1  18   24.00   11.60
  -5  -1  18   66.59   17.40
  -5   1  18   73.99   16.90
  -4  -1  18   11.30    9.00
  -4   1  18   16.60    9.90
  -3  -1  18   32.70   11.40
  -3   1  18   20.00    9.30
  -2  -1  18   74.59   15.40
   2  -1 -18  103.79   18.00
  -2   1  18   98.09   17.00
  -1  -1  18  428.16   35.10
   1  -1 -18  336.17   36.20
  -1   1  18  440.56   34.40
   0  -1  18   24.90   10.00
   0  -1 -18   20.90   11.20
   0   1  18   21.50    8.70
   1  -1  18  168.08   23.20
  -1  -1 -18  124.69   22.40
   1   1  18  190.68   24.10
  -2  -1 -18    4.40   10.50
   2  -1  18   26.10   10.60
   2   1  18    9.80    7.30
  -2   1 -18   16.60   11.60
   3  -1  18   80.99   15.50
  -3  -1 -18   50.29   16.60
   3   1  18   59.69   13.80
  -3   1 -18   58.19   17.10
  -4  -1 -18   74.19   20.30
   4  -1  18  116.99   18.90
   4   1  18  130.89   19.50
  -4   1 -18   87.59   22.20
 -10  -2  18   28.50   13.00
 -10   2  18   34.90   14.00
  -9  -2  18   35.70   14.60
  -9   2  18   18.70   11.20
  -7  -2  18   11.40   10.30
  -7   2  18   13.70    9.60
  -6  -2  18   49.80   15.60
  -6   2  18   34.80   12.80
  -5  -2  18   59.49   16.10
  -5   2  18   54.89   14.90
  -4  -2  18  214.58   29.80
  -4   2  18  255.57   30.20
  -3  -2  18   67.69   15.50
   3  -2 -18   46.00   14.30
  -3   2  18   47.80   13.50
   2  -2 -18  182.88   24.40
  -2  -2  18  252.07   27.70
  -2   2  18  184.48   23.60
   1  -2 -18   28.60   13.90
  -1  -2  18   67.59   14.90
  -1   2  18   75.49   14.40
   0  -2 -18    6.80   10.00
   0  -2  18    5.10    6.20
   0   2  18    2.60    5.50
  -1  -2 -18   -2.40   10.10
   1  -2  18   19.40    9.30
   1   2  18   11.10    7.70
   2  -2  18   39.70   11.80
  -2  -2 -18   47.40   15.20
   2   2  18   89.19   15.80
   3  -2  18   13.90    8.10
  -3  -2 -18    5.40   11.00
   3   2  18   13.60    7.90
  -4  -2 -18   18.00   13.90
   4  -2  18   -1.70    5.70
   4   2  18    6.00    6.20
 -10  -3  18   25.70   13.50
 -10   3  18   53.79   14.90
  -8  -3  18   54.29   17.80
  -8   3  18   34.30   12.40
  -7  -3  18   21.00   12.60
  -7   3  18   26.00   11.80
  -6  -3  18   71.99   18.70
  -6   3  18   51.39   14.40
  -5  -3  18   19.30   11.60
  -5   3  18   12.40    9.20
  -4  -3  18    9.80    8.50
   4  -3 -18   17.50   11.40
  -4   3  18   16.70    9.30
  -3  -3  18   49.70   13.70
   3  -3 -18   34.50   12.20
  -3   3  18   30.60   10.30
   2  -3 -18    9.70   10.00
  -2  -3  18   19.20    9.20
  -2   3  18   13.60    7.70
   1  -3 -18    5.50   10.30
  -1  -3  18    8.60    7.30
  -1   3  18   10.80    6.60
   0  -3 -18   -5.60    8.30
   0  -3  18    2.30    6.30
   0   3  18   -2.30    4.10
  -1  -3 -18    1.10   10.00
   1  -3  18   17.90    8.80
   1   3  18   27.10    9.40
  -2  -3 -18   37.40   15.70
   2  -3  18   39.70   12.20
   2   3  18   42.90   11.40
   3  -3  18   34.40   11.50
  -3  -3 -18    4.90   11.80
   3   3  18   27.40    9.10
  -4  -3 -18   13.90   14.30
   4  -3  18   45.90   13.40
   4   3  18   39.00   11.20
  -9  -4  18   14.10   13.10
  -9   4  18    4.70    8.80
  -8  -4  18   10.80   12.10
  -8   4  18   34.80   13.40
  -7  -4  18   45.00   16.10
  -7   4  18   22.50   10.30
  -6  -4  18   46.20   16.40
  -6   4  18   45.90   13.40
  -5  -4  18   -2.90    7.10
   5  -4 -18    5.20    9.90
  -5   4  18    7.70    9.40
   4  -4 -18    8.50   10.20
  -4  -4  18   18.00   10.20
  -4   4  18   11.70    8.70
   3  -4 -18   82.49   17.50
  -3  -4  18   80.39   17.00
  -3   4  18   98.79   16.30
   2  -4 -18   -3.60    9.30
  -2  -4  18    5.70    6.70
  -2   4  18   -4.00    4.80
  -1  -4  18   21.10    8.90
   1  -4 -18   21.10   11.60
  -1   4  18   20.90    7.80
   0  -4 -18    3.70   10.90
   0  -4  18   17.90    8.60
   0   4  18    7.10    6.50
   1  -4  18   34.40   11.60
  -1  -4 -18    9.20   11.30
   1   4  18   31.80    9.70
  -2  -4 -18   -2.60    9.40
   2  -4  18   14.60    8.70
   2   4  18   18.90    7.60
  -3  -4 -18   21.80   13.60
   3  -4  18   60.09   13.40
   3   4  18   49.00   11.30
   4  -4  18   12.60    8.50
   4   4  18   16.50    7.80
  -9  -5  18   10.80   11.90
   9  -5 -18    0.90    8.20
  -9   5  18    2.80    8.80
  -8  -5  18    5.40   11.90
   8  -5 -18   13.40    9.40
  -8   5  18    5.90    9.10
  -7  -5  18  164.48   29.70
   7  -5 -18  222.18   27.20
  -6  -5  18    4.90   10.20
   6  -5 -18   15.40    8.80
  -6   5  18    9.40    9.80
   5  -5 -18   47.30   13.90
   5  -5 -18   30.20   10.90
  -5  -5  18   23.80   12.70
  -5   5  18   51.49   13.80
   4  -5 -18   61.89   15.10
  -4  -5  18   60.39   16.80
  -4   5  18   67.09   14.80
   3  -5 -18   31.60   12.60
  -3  -5  18   43.90   12.70
  -3   5  18   32.90   10.40
   2  -5 -18   91.79   17.50
  -2  -5  18   72.49   15.50
  -2   5  18   83.49   14.80
  -1  -5  18    0.50    5.90
   1  -5 -18   -7.30    9.10
  -1   5  18    7.60    6.10
   0  -5 -18    6.40   10.80
   0  -5  18    7.40    6.80
   0   5  18    4.70    5.70
  -1  -5 -18   40.60   14.90
   1  -5  18  131.59   20.60
   1   5  18  118.79   17.00
   2  -5  18   33.70   12.00
  -2  -5 -18   33.00   13.70
   2   5  18   19.40    8.50
  -3  -5 -18    2.30   12.10
   3  -5  18   28.80   11.10
   3   5  18   16.20    7.80
  -9  -6  18   18.00   13.40
  -9   6  18   19.10   11.30
  -8  -6  18   38.50   15.80
   8  -6 -18   31.10   12.50
  -8   6  18   47.30   13.50
  -7  -6  18   68.29   19.60
   7  -6 -18   62.39   14.60
  -7   6  18   64.39   14.90
   6  -6 -18    3.20    8.70
   6  -6 -18    8.40   10.20
  -6  -6  18   20.40   13.10
  -6   6  18   22.40   10.10
   5  -6 -18  167.08   22.60
  -5  -6  18  131.49   24.20
   5  -6 -18  207.98   24.80
  -5   6  18  151.48   22.20
   4  -6 -18  102.99   18.40
  -4  -6  18   76.99   18.20
  -4   6  18   90.39   16.50
   3  -6 -18   18.40   11.00
  -3  -6  18   14.80    9.50
  -3   6  18   10.00    7.80
   2  -6 -18    5.90    9.10
  -2  -6  18   10.90    8.40
  -2   6  18   16.80    7.30
  -1  -6  18   66.49   15.40
   1  -6 -18   64.39   16.20
  -1   6  18   55.79   11.90
   0  -6  18    6.20    6.00
   0  -6 -18   -2.60    9.20
   0   6  18    5.20    6.00
   1  -6  18  180.28   24.40
  -1  -6 -18  112.09   20.60
   1   6  18  133.69   18.50
   2  -6  18   17.80    9.60
  -2  -6 -18   -5.90    9.90
   2   6  18    6.80    6.00
   3  -6  18    3.30    7.50
   3   6  18    8.10    6.30
   8  -7 -18   99.09   19.20
  -8  -7  18   83.19   22.30
   7  -7 -18    9.30    9.50
  -7  -7  18   32.30   15.50
  -7   7  18   -7.30    8.00
   6  -7 -18   34.70   12.40
  -6  -7  18   38.30   16.20
   6  -7 -18   22.70   10.30
  -6   7  18   57.69   15.00
  -5  -7  18   67.49   18.40
   5  -7 -18   28.90   11.60
   5  -7 -18   26.40   12.80
  -5   7  18   22.10    9.80
  -4  -7  18  172.48   27.20
   4  -7 -18  170.58   23.40
  -4   7  18  218.68   24.80
  -3  -7  18   45.60   14.20
  -3  -7  18   17.00    7.20
   3  -7 -18   19.90   10.70
  -3   7  18   24.30    9.60
   2  -7 -18   19.50   11.50
  -2  -7  18   19.90    9.50
  -2   7  18   30.90    8.80
  -1  -7  18   25.20    9.60
   1  -7 -18   21.20   11.30
  -1   7  18   12.30    6.40
   0  -7 -18   15.00   11.90
   0  -7  18   15.00    8.20
   0   7  18   13.90    6.90
  -1  -7 -18   -3.00    9.60
   1  -7  18    2.00    6.40
   1   7  18    6.70    5.40
  -2  -7 -18   38.10   15.40
   2  -7  18   57.69   14.00
   2   7  18   44.10   10.10
  -7  -8  18  341.67   45.70
   7  -8 -18  333.47   35.40
  -6  -8  18   51.89   18.70
   6  -8 -18   75.09   16.30
  -6   8  18   76.29   17.00
   5  -8 -18    1.60    8.40
   5  -8 -18    9.30   10.10
  -5  -8  18    8.80    9.40
  -5   8  18    8.60    8.70
   4  -8 -18   53.09   14.00
  -4  -8  18   28.10   11.80
  -4   8  18   -0.70    4.60
   3  -8 -18   57.39   14.90
  -3  -8  18   39.80   13.30
   2  -8 -18    2.80   10.10
  -2  -8  18   15.30    8.90
  -2   8  18   16.90    6.90
  -1  -8  18   30.30   11.00
   1  -8 -18   17.60   11.50
  -1   8  18    4.10    7.00
   0  -8  18    1.40    6.70
   0  -8 -18   -8.30    9.60
   1  -8  18   86.69   17.10
  -1  -8 -18   84.99   18.70
   2  -8  18   -2.00    5.30
  -6  -9  18  122.49   26.00
   6  -9 -18  150.08   23.20
  -5  -9  18   92.89   21.90
   5  -9 -18  105.39   18.60
   5  -9 -18   63.09   16.40
   4  -9 -18   33.50   12.70
  -4  -9  18   18.20   10.80
  -4  -9  18   40.20   10.80
  -3  -9  18   10.80    6.90
   3  -9 -18    5.60    9.50
  -3  -9  18   -0.40    8.00
  -2  -9  18   11.10    8.30
   2  -9 -18   -0.60    8.70
  -1  -9  18   -0.70    5.00
   1  -9 -18    2.20   10.50
   0  -9  18  139.39   20.70
   0  -9 -18  101.79   20.10
   1  -9  18    5.10    7.80
  -5 -10  18    2.90   11.50
  -4 -10  18    4.40    9.20
  -3 -10  18   84.29   17.60
  -3 -10  18  135.49   18.10
  -2 -10  18    9.90    8.80
  -1 -10  18   99.59   17.80
  -9   0  19    3.30    9.50
  -8   0  19    5.70    9.30
  -7   0  19   26.90   13.70
  -6   0  19   25.20   12.30
  -5   0  19  104.19   21.10
  -4   0  19    3.10    7.80
  -3   0  19   51.59   13.50
  -2   0  19    4.50    5.80
  -1   0  19  257.67   30.10
   0   0  19   21.50    9.20
   1   0  19    4.10    6.80
  -1   0 -19    1.70   11.40
  -2   0 -19   -7.10   11.10
   2   0  19    3.80    6.10
   3   0  19    4.20    7.00
  -9  -1  19   21.20   13.10
  -9   1  19   20.40   11.80
  -8  -1  19   50.39   16.90
  -8   1  19   41.50   15.20
  -7  -1  19   18.60   11.90
  -7   1  19   28.30   12.80
  -6  -1  19  122.59   23.10
  -6   1  19  114.69   21.70
  -5  -1  19   65.59   16.60
  -5   1  19   49.40   15.20
  -4  -1  19   96.79   19.40
  -4   1  19   55.99   14.50
  -3  -1  19   70.29   15.70
  -3   1  19   59.49   13.60
  -2  -1  19  439.46   36.90
  -2   1  19  440.26   36.30
  -1  -1  19   62.09   14.40
   1  -1 -19   51.19   15.40
  -1   1  19   43.50   11.80
   0  -1 -19   50.29   16.30
   0  -1  19   68.79   14.90
   0   1  19   77.99   15.70
  -1  -1 -19   11.40   12.50
   1  -1  19    7.70    7.40
   1   1  19   12.60    7.80
  -2  -1 -19   25.40   13.90
   2  -1  19    5.20    7.30
   2   1  19   18.70    9.10
   3  -1  19   47.70   13.10
   3   1  19   16.30    8.50
  -8  -2  19   77.19   19.80
  -8   2  19   97.39   19.30
  -7  -2  19   48.80   16.10
  -7   2  19   31.70   13.10
  -6  -2  19  327.27   38.00
  -6   2  19  262.27   33.40
  -5  -2  19   -4.40    7.90
  -5   2  19   -9.90    6.60
  -4  -2  19    8.10    9.20
  -4   2  19   -1.20    7.40
  -3  -2  19   43.10   12.80
  -3   2  19   42.70   12.20
  -2  -2  19  148.99   22.20
   2  -2 -19   58.29   16.00
  -2   2  19   92.09   16.40
  -1  -2  19    8.20    7.60
   1  -2 -19   -0.60    9.90
  -1   2  19    4.20    6.20
   0  -2 -19   35.10   14.10
   0  -2  19   40.00   11.30
   0   2  19   46.20   12.20
  -1  -2 -19    1.30   11.00
   1  -2  19   -0.90    5.40
   1   2  19   -3.00    4.30
   2  -2  19   17.00    8.40
  -2  -2 -19    1.90   12.10
   2   2  19    3.30    6.30
   3  -2  19   18.00    8.80
   3   2  19   32.40   10.40
  -8  -3  19  143.59   25.80
  -7  -3  19    9.30   10.30
  -7   3  19    2.20    8.50
  -6  -3  19   16.10   11.70
  -6   3  19   19.20   11.80
  -5  -3  19   76.69   18.30
  -5   3  19  132.39   20.80
  -4  -3  19   50.59   15.00
   4  -3 -19   76.49   17.20
  -4   3  19   78.89   16.50
  -3  -3  19    9.90    8.90
   3  -3 -19    5.50   10.30
  -3   3  19    1.00    6.70
  -2  -3  19   40.00   11.70
   2  -3 -19   22.20   12.60
  -2   3  19   44.00   11.20
   1  -3 -19   25.60   13.40
  -1  -3  19   21.20    9.20
  -1   3  19   24.50    9.50
   0  -3  19   -1.60    5.40
   0  -3 -19  -10.80    9.00
   0   3  19   -1.50    4.80
  -1  -3 -19   -3.70   10.30
   1  -3  19   27.80   10.70
   1   3  19   16.90    8.60
  -2  -3 -19   -1.80   11.00
   2  -3  19    1.30    6.40
   2   3  19    4.30    6.00
  -7  -4  19   15.50   13.20
  -7   4  19   -3.70    8.10
  -6  -4  19   72.29   19.70
  -6   4  19   76.79   17.40
  -5  -4  19   34.70   13.40
  -5   4  19   28.60   11.60
   4  -4 -19   21.10   11.60
  -4  -4  19   -2.40    7.20
  -4   4  19   15.50    9.10
   3  -4 -19  139.39   22.00
  -3  -4  19  154.58   23.60
  -3   4  19  163.28   21.50
   2  -4 -19    8.20   11.00
  -2  -4  19   12.10    8.10
  -2   4  19    2.50    5.70
  -1  -4  19   34.10   11.30
   1  -4 -19   22.20   12.10
  -1   4  19   22.60    8.50
   0  -4  19   37.10   12.10
   0  -4 -19   24.50   13.50
   0   4  19   30.20    9.40
   1  -4  19  163.18   23.30
  -1  -4 -19   83.19   19.30
   1   4  19  161.88   20.40
  -2  -4 -19   64.39   19.10
   2  -4  19   72.19   16.40
   2   4  19   75.09   14.50
  -8  -5  19   12.40   13.30
  -8   5  19   25.40   11.30
  -7  -5  19   -5.50   10.10
  -7   5  19    0.00    8.40
  -6  -5  19    0.00   10.00
  -6   5  19   -6.40    7.70
   5  -5 -19    6.70   10.60
  -5  -5  19    4.50   10.20
  -5   5  19    7.80    8.70
  -4  -5  19   13.30   10.40
   4  -5 -19    6.30   11.10
  -4   5  19    7.80    8.60
   3  -5 -19   -4.70    9.90
  -3  -5  19   12.00    9.10
  -3   5  19    9.50    7.20
  -2  -5  19    6.50    6.90
   2  -5 -19  -10.80    8.50
  -2   5  19    0.00    4.30
  -1  -5  19   85.19   16.70
   1  -5 -19   73.39   17.10
  -1   5  19  109.29   17.10
   0  -5 -19  196.48   28.00
   0  -5  19  244.58   28.90
   0   5  19  202.98   23.90
  -1  -5 -19  184.28   28.70
   1  -5  19  254.77   30.60
   1   5  19  238.68   25.50
   2  -5  19   -0.10    6.40
   2   5  19    8.30    6.70
   7  -6 -19   -5.10    8.10
  -7  -6  19    9.60   12.90
  -7   6  19   -2.40    7.40
   6  -6 -19   -0.70   10.40
  -6  -6  19    8.40   11.50
   6  -6 -19   20.80   10.40
  -6   6  19    0.50    8.80
   5  -6 -19   -5.10    9.00
  -5  -6  19  -12.30    8.10
  -5   6  19   -1.20    7.70
   4  -6 -19   15.50   11.60
  -4  -6  19   10.90    9.40
  -4   6  19   23.40   10.80
  -3  -6  19   40.70   13.00
   3  -6 -19   28.70   12.70
  -3   6  19   41.50   11.10
   2  -6 -19   75.49   17.20
  -2  -6  19   97.49   18.00
  -2   6  19  100.59   15.90
  -1  -6  19  107.19   19.40
   1  -6 -19  110.69   21.10
  -1   6  19  104.59   15.80
   0  -6  19   15.80    8.80
   0  -6 -19   13.70   12.50
   0   6  19   16.90    7.50
   1  -6  19   83.79   17.30
   1   6  19  100.99   16.30
   6  -7 -19   43.70   13.20
  -6  -7  19   35.00   15.00
  -6   7  19   25.20   12.10
  -5  -7  19    8.80   12.20
   5  -7 -19    9.40   10.80
  -5   7  19    4.00    8.00
   4  -7 -19    8.00   10.80
  -4  -7  19   16.20   10.40
  -4   7  19   11.00    7.90
   3  -7 -19   25.70   13.60
  -3  -7  19   31.20   11.50
  -3   7  19   26.50    9.30
   2  -7 -19    8.00   11.30
  -2  -7  19   10.80    9.00
  -2   7  19    7.60    6.10
  -1  -7  19  173.68   24.30
   1  -7 -19  143.19   22.90
  -1   7  19  177.18   21.30
   0  -7  19   27.60   11.10
   0   7  19   20.70    8.10
  -5  -8  19    8.70   11.70
  -5   8  19   23.90   10.00
  -4  -8  19    3.20    9.60
  -4  -8  19   15.10    8.20
  -4   8  19    2.80    6.40
  -3  -8  19   13.30    9.20
   3  -8 -19   -8.60    9.10
  -3   8  19    2.90    6.40
  -2  -8  19   15.50    9.20
  -1  -8  19    6.60    7.60
  -7   0  20   -6.40    8.90
  -6   0  20   22.10   12.60
  -5   0  20    5.50    8.80
  -4   0  20    0.90    7.70
  -3   0  20   -3.00    5.10
  -2   0  20   34.90   11.50
  -1   0  20    0.80    6.80
   0   0  20   38.10   11.90
   1   0  20    2.60    6.40
  -7  -1  20   23.30   12.00
  -7   1  20   -4.00    8.80
  -6  -1  20  126.39   23.80
  -6   1  20  120.99   23.00
  -5  -1  20    2.20    8.90
  -5   1  20    9.30   10.00
  -4  -1  20   -0.50    7.60
  -4   1  20    7.10    9.40
  -3  -1  20   12.20    8.90
  -3   1  20    5.90    7.60
  -2  -1  20   16.70    8.60
  -2   1  20    4.50    5.80
  -1  -1  20   23.20   10.10
  -1   1  20   10.50    6.80
   0  -1 -20   37.10   14.80
   0  -1  20   61.19   14.50
   0   1  20   49.10   12.50
   1  -1  20   74.29   16.20
   1   1  20   50.09   13.20
  -7  -2  20   71.49   18.90
  -7   2  20   56.79   16.30
  -6  -2  20  143.79   25.40
  -6   2  20  168.88   25.70
  -5  -2  20   68.39   18.10
  -5   2  20   46.30   14.90
  -4  -2  20    3.40    8.30
  -4   2  20    9.60    9.20
  -3  -2  20    7.20    8.30
  -3   2  20    8.50    8.40
  -2  -2  20   48.80   12.50
   2  -2 -20   35.00   15.00
  -2   2  20   56.69   13.50
  -1  -2  20   31.80   11.10
   1  -2 -20   16.20   14.60
  -1   2  20   28.30   10.30
   0  -2 -20   18.80   14.40
   0  -2  20   31.70   11.40
   0   2  20   23.30    9.10
   1  -2  20    2.70    6.10
   1   2  20   10.60    7.40
  -7  -3  20  110.99   24.00
  -7   3  20  149.19   24.00
  -6  -3  20  165.68   27.70
  -5  -3  20   97.79   21.20
  -5   3  20  143.79   21.80
  -4  -3  20    0.80    8.20
  -4   3  20   41.40   12.90
  -3  -3  20  174.48   25.20
   3  -3 -20  182.18   25.70
  -3   3  20  164.38   22.80
   2  -3 -20    0.60   11.80
  -2  -3  20    8.00    8.60
  -2   3  20   11.70    7.40
  -1  -3  20   10.00    7.90
   1  -3 -20    0.90   11.70
  -1   3  20    7.30    6.70
   0  -3  20   -1.40    5.50
   0  -3 -20   -3.60   10.60
   0   3  20    6.80    7.00
   1  -3  20    2.70    7.10
   1   3  20   -0.70    5.80
  -6  -4  20  107.39   22.90
  -6   4  20  123.09   21.60
  -5  -4  20   33.00   13.90
  -5   4  20   50.79   13.60
   4  -4 -20   63.09   17.50
  -4  -4  20   54.89   14.70
  -4   4  20   54.49   13.80
   3  -4 -20   -7.80    9.70
  -3  -4  20    1.20    6.90
  -3   4  20    3.30    6.30
   2  -4 -20   29.50   14.20
  -2  -4  20   36.90   11.50
  -2   4  20   36.60   10.60
   1  -4 -20   29.70   14.90
  -1  -4  20   22.50   10.70
  -1   4  20   29.50    9.10
   0  -4  20  126.99   21.00
   0   4  20   67.99   14.60
  -6  -5  20   24.40   14.10
  -6   5  20   32.80   13.00
  -5  -5  20   20.40   12.70
  -5   5  20   26.30   10.60
  -4  -5  20    4.50    8.30
   4  -5 -20    0.60   11.00
  -4   5  20   14.30    8.40
  -3  -5  20   87.69   17.70
   3  -5 -20  102.19   19.90
  -3   5  20   63.09   13.30
   2  -5 -20   63.89   17.10
  -2  -5  20   77.79   16.60
  -2   5  20   54.79   12.60
  -1  -5  20  182.38   25.60
  -1   5  20  201.58   23.50
  -4  -6  20   49.90   14.70
  -4   6  20   42.20   11.50
  -3  -6  20    1.60    7.50
  -3   6  20   20.00    9.10
  -2  -6  20   14.50    9.30
  -4   0  21   -3.30    6.60
  -3   0  21   11.10    8.30
  -2   0  21    7.20    7.00
  -4  -1  21    6.60    8.20
  -4   1  21    0.00    7.00
  -3  -1  21   12.60    8.50
  -3   1  21    9.30    7.50
  -2  -1  21   65.89   14.70
  -2   1  21   67.49   15.70
   0   0   0    0.00    0.00


_computing_structure_solution     'SHELXT 2014/5 (Sheldrick, 2014)'
_computing_structure_solution     'SHELXT 2014/5 (Sheldrick, 2014)'
;
_shelx_hkl_checksum              24457
_olex2_submission_special_instructions 'No special instructions were received'
loop_
_space_group_symop_operation_xyz
'x, y, z'
'-x+1/2, y+1/2, -z+1/2'
'-x, -y, -z'
'x-1/2, -y-1/2, z-1/2'
loop_
_atom_site_label
_atom_site_type_symbol
_atom_site_fract_x
_atom_site_fract_y
_atom_site_fract_z
_atom_site_U_iso_or_equiv
_atom_site_adp_type
_atom_site_occupancy
_atom_site_site_symmetry_order
_atom_site_calc_flag
_atom_site_refinement_flags_posn
_atom_site_refinement_flags_adp
_atom_site_refinement_flags_occupancy
_atom_site_disorder_assembly
_atom_site_disorder_group
W1 W 0.58502(8) 0.33334(5) 0.40628(5) 0.0298(2) Uani 1 1 d . . . . .
W2 W 0.36724(7) 0.47237(6) 0.65561(5) 0.0307(2) Uani 1 1 d . . . . .
W3 W 0.69742(7) 0.61762(6) 0.62799(5) 0.0318(2) Uani 1 1 d . . . . .
W4 W 0.43937(8) 0.30446(5) 0.55597(6) 0.0306(2) Uani 1 1 d . . . . .
W5 W 0.78291(7) 0.45681(6) 0.52641(6) 0.0316(2) Uani 1 1 d . . . . .
W6 W 0.64626(8) 0.41877(6) 0.67975(5) 0.0330(2) Uani 1 1 d . . . . .
Co07 Co 0.1623(2) 0.47835(16) 0.78926(16) 0.0257(6) Uani 1 1 d . . . . .
Si1 Si 0.500000 0.500000 0.500000 0.0259(16) Uani 1 2 d S . P . .
O1 O 0.2998(13) 0.4609(10) 0.7281(9) 0.041(2) Uani 1 1 d . . . . .
O4 O 0.2415(13) 0.3765(9) 0.8552(9) 0.040(3) Uani 1 1 d . . . . .
H4A H 0.194437 0.339240 0.853444 0.060 Uiso 1 1 d R U . . .
H4B H 0.259999 0.388979 0.903389 0.060 Uiso 1 1 d R U . . .
N1 N 0.0745(15) 0.3904(11) 0.7135(11) 0.036(3) Uani 1 1 d . . . . .
N2 N 0.1233(17) 0.5845(12) 0.7242(11) 0.041(3) Uani 1 1 d . . . . .
N3 N 0.0284(17) 0.4921(12) 0.8483(12) 0.045(3) Uani 1 1 d . . . . .
N4 N 0.2748(16) 0.5426(11) 0.8775(11) 0.037(3) Uani 1 1 d . . . . .
N5 N 0.3667(17) 0.5765(11) 0.9930(11) 0.037(4) Uani 1 1 d . . . . .
N6 N -0.0311(17) 0.2847(12) 0.6838(11) 0.038(3) Uani 1 1 d . . . . .
O6 O 0.5637(16) 0.6562(13) 0.6454(11) 0.061(4) Uani 1 1 d . . . . .
N7 N 0.0657(16) 0.6691(12) 0.6291(11) 0.036(3) Uani 1 1 d . . . . .
N8 N 0.4409(19) 0.5783(15) 0.9512(12) 0.057(6) Uani 1 1 d . . . . .
O8 O 0.9164(15) 0.4359(11) 0.5397(11) 0.053(3) Uani 1 1 d . . . . .
O10 O 0.5349(16) 0.2839(12) 0.4862(11) 0.062(3) Uani 1 1 d . . . . .
O12 O 0.3616(14) 0.3625(11) 0.6159(11) 0.055(3) Uani 1 1 d . . . . .
O14 O 0.7875(15) 0.5578(11) 0.5772(11) 0.055(3) Uani 1 1 d . . . . .
O16 O 0.5134(15) 0.4530(11) 0.7065(11) 0.057(2) Uani 1 1 d . . . . .
O18 O 0.7910(16) 0.6725(12) 0.6888(11) 0.063(4) Uani 1 1 d . . . . .
C2 C 0.0640(19) 0.5945(15) 0.6510(13) 0.038(3) Uani 1 1 d . U . . .
H2 H 0.026636 0.553776 0.619943 0.046 Uiso 1 1 calc R U . . .
N9 N 0.0559(19) 0.2726(13) 0.6466(13) 0.049(5) Uani 1 1 d . . . . .
C3 C 0.268(2) 0.5581(13) 0.9492(13) 0.037(4) Uani 1 1 d . . . . .
H3 H 0.202695 0.556659 0.967417 0.044 Uiso 1 1 calc R U . . .
O20 O 0.7474(17) 0.4090(11) 0.6157(12) 0.062(3) Uani 1 1 d . . . . .
O22 O 0.6836(16) 0.5284(11) 0.6901(11) 0.057(3) Uani 1 1 d . . . . .
O23 O 0.5712(15) 0.3273(12) 0.6351(12) 0.061(3) Uani 1 1 d . . . . .
O3 O 0.3902(16) 0.5818(11) 0.6617(10) 0.054(3) Uani 1 1 d . . . . .
N10 N 0.132(2) 0.7151(13) 0.6872(12) 0.052(5) Uani 1 1 d . . . . .
C4 C 0.384(2) 0.5548(15) 0.8794(14) 0.045(5) Uani 1 1 d . . . . .
H4 H 0.415421 0.547746 0.836345 0.054 Uiso 1 1 calc R U . . .
C5 C -0.039(2) 0.5522(18) 0.8406(17) 0.058(6) Uani 1 1 d . . . . .
H5 H -0.037575 0.595314 0.807211 0.070 Uiso 1 1 calc R U . . .
O13 O 0.7190(17) 0.3608(11) 0.4717(12) 0.064(3) Uani 1 1 d . . . . .
O7 O 0.6196(18) 0.2551(11) 0.3599(10) 0.063(5) Uani 1 1 d . . . . .
O15 O 0.7541(16) 0.5089(11) 0.4294(11) 0.059(3) Uani 1 1 d . . . . .
C6 C 0.113(2) 0.3374(15) 0.6709(15) 0.045(5) Uani 1 1 d . . . . .
H6 H 0.180945 0.345788 0.657832 0.054 Uiso 1 1 calc R U . . .
O2 O 0.616(3) 0.498(2) 0.561(2) 0.061(2) Uani 0.5 1 d . . P . .
O17 O 0.4139(14) 0.2105(11) 0.5789(12) 0.057(4) Uani 1 1 d . . . . .
C7 C 0.161(2) 0.6591(15) 0.7400(16) 0.053(7) Uani 1 1 d . . . . .
H7 H 0.206374 0.671061 0.788199 0.064 Uiso 1 1 calc R U . . .
C8 C 0.392(2) 0.5954(17) 1.0748(15) 0.062(8) Uani 1 1 d . . . . .
H8A H 0.420841 0.547829 1.103948 0.075 Uiso 1 1 calc R U . . .
H8B H 0.323921 0.609720 1.090295 0.075 Uiso 1 1 calc R U . . .
C9 C -0.010(2) 0.4454(18) 0.8992(17) 0.055(6) Uani 1 1 d . . . . .
H9 H 0.022850 0.397275 0.917765 0.066 Uiso 1 1 calc R U . . .
C10 C -0.118(2) 0.2245(16) 0.6800(15) 0.051(5) Uani 1 1 d . . . . .
H10A H -0.173357 0.245718 0.705782 0.061 Uiso 1 1 calc R U . . .
H10B H -0.085561 0.177882 0.709468 0.061 Uiso 1 1 calc R U . . .
O9 O 0.469(3) 0.410(2) 0.469(2) 0.056(3) Uani 0.5 1 d . . P . .
C11 C -0.0173(18) 0.3542(14) 0.7193(12) 0.034(4) Uani 1 1 d . . . . .
H11 H -0.067613 0.375847 0.745935 0.040 Uiso 1 1 calc R U . . .
O19 O 0.7172(15) 0.3829(11) 0.7638(11) 0.057(3) Uani 1 1 d . . . . .
O5 O 0.408(3) 0.533(2) 0.543(2) 0.057(4) Uani 0.5 1 d . . P . .
O21 O 0.511(2) 0.5575(19) 0.427(2) 0.040(5) Uani 0.5 1 d . . P . .
C12 C 0.019(2) 0.7059(17) 0.5556(15) 0.060(5) Uani 1 1 d D . . . .
H12A H -0.002514 0.663934 0.516994 0.071 Uiso 1 1 calc R U . . .
H12B H 0.076140 0.737153 0.539708 0.071 Uiso 1 1 calc R U . . .
N11 N -0.110(2) 0.5445(16) 0.8856(15) 0.070(6) Uani 1 1 d . . . . .
N12 N -0.099(2) 0.4729(16) 0.9206(15) 0.065(6) Uani 1 1 d . . . . .
C13 C -0.079(2) 0.7590(15) 0.5528(16) 0.054(5) Uani 1 1 d D . . . .
H13A H -0.131550 0.734447 0.579252 0.065 Uiso 1 1 calc R U . . .
H13B H -0.115439 0.770888 0.499127 0.065 Uiso 1 1 calc R U . . .
C1 C -0.027(2) 0.8382(16) 0.5977(19) 0.066(7) Uani 1 1 d D U . . .
H1A H -0.012330 0.829863 0.653909 0.079 Uiso 1 1 calc R U . . .
H1B H 0.042120 0.851351 0.583180 0.079 Uiso 1 1 calc R U . . .
O11 O 0.6722(16) 0.6840(13) 0.5357(11) 0.062(4) Uani 1 1 d . . . . .
C14 C -0.173(2) 0.1982(19) 0.5993(16) 0.064(8) Uani 1 1 d . . . . .
H14A H -0.123142 0.163333 0.579482 0.076 Uiso 0.5 1 calc R U P A 1
H14B H -0.185770 0.244962 0.565760 0.076 Uiso 0.5 1 calc R U P A 1
H14C H -0.120924 0.196545 0.565462 0.076 Uiso 0.5 1 calc R U P B 2
H14D H -0.232582 0.234637 0.576853 0.076 Uiso 0.5 1 calc R U P B 2
C15 C -0.232(5) 0.574(3) 0.872(4) 0.057(9) Uani 0.5 1 d D . P C 1
H15A H -0.266227 0.576161 0.816300 0.069 Uiso 0.5 1 calc R U P C 1
H15B H -0.276079 0.539106 0.897790 0.069 Uiso 0.5 1 calc R U P C 1
C16 C -0.219(3) 0.655(3) 0.908(5) 0.078(18) Uani 0.5 1 d D . P C 1
H16A H -0.170627 0.686740 0.882852 0.093 Uiso 0.5 1 calc R U P C 1
H16B H -0.183414 0.650320 0.963060 0.093 Uiso 0.5 1 calc R U P C 1
C17 C -0.175(6) 0.629(4) 0.884(5) 0.078(16) Uani 0.5 1 d . . P C 2
H17A H -0.138306 0.663313 0.926303 0.093 Uiso 0.5 1 calc R U P C 2
H17B H -0.177062 0.656661 0.834475 0.093 Uiso 0.5 1 calc R U P C 2
C18 C -0.279(6) 0.611(5) 0.891(6) 0.09(2) Uani 0.5 1 d . . P C 2
H18A H -0.278244 0.578595 0.937359 0.114 Uiso 0.5 1 calc R U P C 2
H18B H -0.320847 0.584235 0.845325 0.114 Uiso 0.5 1 calc R U P C 2
loop_
_atom_site_aniso_label
_atom_site_aniso_U_11
_atom_site_aniso_U_22
_atom_site_aniso_U_33
_atom_site_aniso_U_23
_atom_site_aniso_U_13
_atom_site_aniso_U_12
W1 0.0397(5) 0.0237(5) 0.0281(5) -0.0069(4) 0.0117(4) 0.0062(4)
W2 0.0282(5) 0.0480(6) 0.0192(4) -0.0039(4) 0.0124(4) -0.0090(4)
W3 0.0309(5) 0.0409(5) 0.0245(5) -0.0112(4) 0.0082(4) -0.0114(4)
W4 0.0334(5) 0.0208(4) 0.0399(5) 0.0024(4) 0.0133(4) -0.0008(4)
W5 0.0195(4) 0.0398(5) 0.0370(5) 0.0080(4) 0.0091(4) 0.0059(4)
W6 0.0357(5) 0.0438(6) 0.0181(4) 0.0039(4) 0.0029(4) 0.0126(4)
Co07 0.0292(15) 0.0265(15) 0.0226(14) -0.0030(11) 0.0087(12) -0.0036(12)
Si1 0.025(3) 0.031(4) 0.024(4) -0.007(3) 0.012(3) -0.001(3)
O1 0.042(5) 0.046(6) 0.034(5) -0.008(4) 0.007(5) -0.007(4)
O4 0.040(7) 0.035(5) 0.041(7) 0.000(5) 0.000(5) -0.008(5)
N1 0.037(5) 0.039(5) 0.033(6) -0.003(5) 0.006(4) -0.003(4)
N2 0.047(7) 0.039(4) 0.035(4) 0.001(4) 0.005(4) -0.003(4)
N3 0.049(5) 0.046(8) 0.043(8) -0.009(5) 0.018(6) -0.002(5)
N4 0.049(5) 0.033(6) 0.029(4) 0.000(4) 0.008(4) -0.005(5)
N5 0.051(6) 0.030(9) 0.030(4) -0.003(5) 0.008(4) 0.000(6)
N6 0.048(6) 0.043(6) 0.024(8) 0.001(5) 0.007(6) -0.011(5)
O6 0.058(7) 0.091(8) 0.041(9) 0.018(6) 0.024(6) 0.012(6)
N7 0.042(8) 0.044(4) 0.028(5) 0.001(4) 0.018(5) 0.009(4)
N8 0.053(5) 0.085(16) 0.034(6) -0.018(7) 0.010(4) -0.016(7)
O8 0.053(5) 0.054(8) 0.053(9) 0.009(6) 0.015(4) 0.001(4)
O10 0.064(8) 0.068(7) 0.059(6) 0.011(6) 0.027(6) 0.018(5)
O12 0.047(6) 0.058(5) 0.063(8) -0.022(5) 0.015(6) -0.006(5)
O14 0.061(6) 0.055(4) 0.056(6) 0.001(4) 0.027(5) -0.006(4)
O16 0.046(4) 0.063(7) 0.060(6) -0.023(5) 0.008(4) -0.003(3)
O18 0.064(7) 0.078(8) 0.049(7) -0.013(6) 0.018(6) -0.018(7)
C2 0.040(5) 0.043(4) 0.032(4) -0.001(3) 0.010(4) 0.005(4)
N9 0.061(8) 0.045(6) 0.047(10) -0.013(7) 0.023(7) -0.018(6)
C3 0.051(5) 0.031(11) 0.029(4) 0.001(5) 0.008(4) -0.002(6)
O20 0.077(6) 0.051(5) 0.069(5) 0.011(4) 0.040(6) 0.012(4)
O22 0.071(7) 0.060(4) 0.047(5) -0.001(4) 0.027(5) -0.001(4)
O23 0.051(5) 0.063(5) 0.071(6) -0.017(4) 0.016(5) 0.005(4)
O3 0.065(10) 0.052(5) 0.045(7) -0.004(5) 0.011(7) -0.013(4)
N10 0.075(12) 0.042(4) 0.036(6) 0.005(4) 0.007(7) -0.003(5)
C4 0.050(6) 0.052(14) 0.032(5) -0.010(7) 0.010(4) -0.010(6)
C5 0.070(10) 0.060(9) 0.055(13) 0.002(8) 0.032(9) 0.015(8)
O13 0.070(6) 0.052(6) 0.063(6) 0.007(5) -0.001(5) -0.004(4)
O7 0.101(14) 0.047(7) 0.041(8) -0.005(6) 0.017(7) 0.026(8)
O15 0.063(9) 0.060(8) 0.047(5) 0.006(5) -0.006(5) -0.020(7)
C6 0.050(7) 0.040(7) 0.049(11) -0.010(7) 0.020(8) -0.010(6)
O2 0.040(4) 0.081(5) 0.053(4) -0.001(4) -0.006(3) -0.003(3)
O17 0.043(9) 0.046(5) 0.084(13) 0.009(5) 0.018(7) 0.006(4)
C7 0.076(14) 0.039(5) 0.037(6) 0.005(4) 0.000(7) -0.010(6)
C8 0.063(12) 0.09(2) 0.033(5) -0.016(7) 0.010(6) -0.013(15)
C9 0.057(10) 0.058(9) 0.058(12) 0.003(8) 0.030(10) 0.006(7)
C10 0.057(9) 0.053(9) 0.043(10) -0.004(8) 0.012(7) -0.021(8)
O9 0.074(7) 0.037(4) 0.060(6) -0.019(4) 0.022(5) -0.013(4)
C11 0.034(5) 0.042(6) 0.022(8) 0.003(6) -0.001(6) -0.003(5)
O19 0.061(7) 0.063(8) 0.047(5) 0.000(5) 0.013(5) 0.010(6)
O5 0.057(7) 0.066(7) 0.063(7) 0.000(6) 0.043(6) 0.018(8)
O21 0.027(11) 0.048(8) 0.051(9) 0.013(9) 0.023(7) 0.008(9)
C12 0.077(11) 0.067(8) 0.034(6) 0.010(5) 0.011(6) 0.021(8)
N11 0.075(10) 0.076(9) 0.070(13) 0.014(8) 0.043(9) 0.024(7)
N12 0.066(10) 0.076(10) 0.064(13) 0.013(9) 0.036(9) 0.020(8)
C13 0.067(10) 0.055(9) 0.042(10) 0.021(7) 0.014(8) 0.011(6)
C1 0.071(10) 0.064(8) 0.065(11) 0.005(7) 0.018(8) 0.010(8)
O11 0.060(10) 0.087(7) 0.048(7) 0.017(7) 0.030(5) 0.016(6)
C14 0.071(17) 0.073(18) 0.046(11) -0.007(10) 0.011(9) -0.039(14)
C15 0.067(11) 0.040(17) 0.07(3) -0.002(14) 0.035(11) 0.006(10)
C16 0.08(3) 0.050(17) 0.11(5) -0.02(2) 0.05(3) -0.003(15)
C17 0.08(2) 0.074(13) 0.10(4) 0.015(16) 0.06(3) 0.023(15)
C18 0.08(2) 0.09(2) 0.14(7) 0.04(3) 0.06(3) 0.028(17)
loop_
_atom_type_symbol
_atom_type_description
_atom_type_scat_dispersion_real
_atom_type_scat_dispersion_imag
_atom_type_scat_source
C C 0.0033 0.0016 'International Tables Vol C Tables 4.2.6.8 and 6.1.1.4'
H H 0.0000 0.0000 'International Tables Vol C Tables 4.2.6.8 and 6.1.1.4'
Co Co 0.3494 0.9721 'International Tables Vol C Tables 4.2.6.8 and 6.1.1.4'
N N 0.0061 0.0033 'International Tables Vol C Tables 4.2.6.8 and 6.1.1.4'
O O 0.0106 0.0060 'International Tables Vol C Tables 4.2.6.8 and 6.1.1.4'
Si Si 0.0817 0.0704 'International Tables Vol C Tables 4.2.6.8 and 6.1.1.4'
W W -0.8490 6.8722 'International Tables Vol C Tables 4.2.6.8 and 6.1.1.4'
loop_
_geom_angle_atom_site_label_1
_geom_angle_atom_site_label_2
_geom_angle_atom_site_label_3
_geom_angle
_geom_angle_site_symmetry_1
_geom_angle_site_symmetry_3
_geom_angle_publ_flag
O6 W1 O3 84.6(8) 3_666 3_666 ?
O6 W1 O9 62.6(11) 3_666 . ?
O6 W1 O5 92.5(11) 3_666 3_666 ?
O10 W1 O6 87.1(8) . 3_666 ?
O10 W1 O3 158.0(8) . 3_666 ?
O10 W1 O13 92.7(9) . . ?
O10 W1 O9 63.5(11) . . ?
O10 W1 O5 97.3(11) . 3_666 ?
O3 W1 O9 94.6(11) 3_666 . ?
O3 W1 O5 62.8(10) 3_666 3_666 ?
O13 W1 O6 157.9(9) . 3_666 ?
O13 W1 O3 87.5(8) . 3_666 ?
O13 W1 O9 97.7(11) . . ?
O13 W1 O5 65.6(11) . 3_666 ?
O7 W1 O6 99.9(10) . 3_666 ?
O7 W1 O10 100.6(9) . . ?
O7 W1 O3 100.9(9) . 3_666 ?
O7 W1 O13 101.9(10) . . ?
O7 W1 O9 155.4(12) . . ?
O7 W1 O5 158.7(12) . 3_666 ?
O9 W1 O5 45.5(12) . 3_666 ?
O1 W2 O12 100.1(8) . . ?
O1 W2 O16 102.3(8) . . ?
O1 W2 O3 99.6(8) . . ?
O1 W2 O15 99.8(8) . 3_666 ?
O1 W2 O5 155.9(10) . . ?
O1 W2 O21 158.5(9) . 3_666 ?
O12 W2 O5 95.9(11) . . ?
O12 W2 O21 64.1(10) . 3_666 ?
O16 W2 O12 87.8(8) . . ?
O16 W2 O15 157.7(9) . 3_666 ?
O16 W2 O5 96.3(11) . . ?
O16 W2 O21 64.4(10) . 3_666 ?
O3 W2 O12 160.1(8) . . ?
O3 W2 O16 91.3(8) . . ?
O3 W2 O15 88.1(8) . 3_666 ?
O3 W2 O5 64.4(11) . . ?
O3 W2 O21 97.6(10) . 3_666 ?
O15 W2 O12 85.2(8) 3_666 . ?
O15 W2 O5 63.5(11) 3_666 . ?
O15 W2 O21 93.6(10) 3_666 3_666 ?
O21 W2 O5 45.5(11) 3_666 . ?
O6 W3 O22 89.1(8) . . ?
O6 W3 O2 94.2(11) . . ?
O6 W3 O9 61.9(11) . 3_666 ?
O6 W3 O11 87.1(8) . . ?
O14 W3 O6 155.6(9) . . ?
O14 W3 O22 89.4(8) . . ?
O14 W3 O2 63.7(11) . . ?
O14 W3 O9 94.0(10) . 3_666 ?
O14 W3 O11 85.2(8) . . ?
O18 W3 O6 103.1(10) . . ?
O18 W3 O14 101.1(9) . . ?
O18 W3 O22 102.0(9) . . ?
O18 W3 O2 156.9(11) . . ?
O18 W3 O9 157.5(11) . 3_666 ?
O18 W3 O11 100.3(10) . . ?
O22 W3 O2 62.6(11) . . ?
O22 W3 O9 94.7(11) . 3_666 ?
O22 W3 O11 157.6(9) . . ?
O9 W3 O2 45.5(12) 3_666 . ?
O11 W3 O2 95.7(11) . . ?
O11 W3 O9 64.2(11) . 3_666 ?
O10 W4 O23 86.9(8) . . ?
O10 W4 O9 62.0(10) . . ?
O10 W4 O21 94.2(10) . 3_666 ?
O12 W4 O10 158.7(9) . . ?
O12 W4 O23 87.5(8) . . ?
O12 W4 O9 98.1(11) . . ?
O12 W4 O21 64.8(9) . 3_666 ?
O12 W4 O11 92.9(8) . 3_666 ?
O23 W4 O9 94.9(11) . . ?
O23 W4 O21 64.2(10) . 3_666 ?
O17 W4 O10 99.2(9) . . ?
O17 W4 O12 102.1(9) . . ?
O17 W4 O23 100.9(9) . . ?
O17 W4 O9 154.8(11) . . ?
O17 W4 O21 159.4(11) . 3_666 ?
O17 W4 O11 99.1(9) . 3_666 ?
O21 W4 O9 45.6(11) 3_666 . ?
O11 W4 O10 85.3(8) 3_666 . ?
O11 W4 O23 159.5(9) 3_666 . ?
O11 W4 O9 64.7(11) 3_666 . ?
O11 W4 O21 97.5(10) 3_666 3_666 ?
O8 W5 O14 101.2(9) . . ?
O8 W5 O20 101.5(9) . . ?
O8 W5 O13 100.5(9) . . ?
O8 W5 O15 102.3(9) . . ?
O8 W5 O2 157.1(11) . . ?
O8 W5 O5 157.5(10) . 3_666 ?
O14 W5 O13 158.2(8) . . ?
O14 W5 O2 64.1(11) . . ?
O14 W5 O5 95.5(10) . 3_666 ?
O20 W5 O14 88.8(8) . . ?
O20 W5 O13 85.0(9) . . ?
O20 W5 O2 62.5(11) . . ?
O20 W5 O5 93.7(11) . 3_666 ?
O13 W5 O2 94.7(11) . . ?
O13 W5 O5 64.2(11) . 3_666 ?
O15 W5 O14 89.5(8) . . ?
O15 W5 O20 156.0(9) . . ?
O15 W5 O13 87.8(8) . . ?
O15 W5 O2 95.3(11) . . ?
O15 W5 O5 62.7(10) . 3_666 ?
O2 W5 O5 45.4(12) . 3_666 ?
O16 W6 O2 93.7(11) . . ?
O16 W6 O21 62.8(9) . 3_666 ?
O20 W6 O16 155.5(9) . . ?
O20 W6 O22 87.7(8) . . ?
O20 W6 O23 91.0(9) . . ?
O20 W6 O2 62.1(11) . . ?
O20 W6 O21 94.9(10) . 3_666 ?
O22 W6 O16 83.8(8) . . ?
O22 W6 O2 62.5(11) . . ?
O22 W6 O21 93.1(10) . 3_666 ?
O23 W6 O16 88.2(8) . . ?
O23 W6 O22 157.3(9) . . ?
O23 W6 O2 97.0(11) . . ?
O23 W6 O21 64.4(10) . 3_666 ?
O19 W6 O16 102.4(9) . . ?
O19 W6 O20 101.8(9) . . ?
O19 W6 O22 101.2(9) . . ?
O19 W6 O23 101.2(9) . . ?
O19 W6 O2 155.9(11) . . ?
O19 W6 O21 158.3(10) . 3_666 ?
O21 W6 O2 45.7(11) 3_666 . ?
O4 Co07 O1 81.1(6) . . ?
N1 Co07 O1 87.2(7) . . ?
N1 Co07 O4 84.2(7) . . ?
N1 Co07 N3 91.7(8) . . ?
N1 Co07 N4 166.0(7) . . ?
N2 Co07 O1 87.8(7) . . ?
N2 Co07 O4 166.6(7) . . ?
N2 Co07 N1 102.8(7) . . ?
N2 Co07 N3 93.3(8) . . ?
N2 Co07 N4 90.2(7) . . ?
N3 Co07 O1 178.6(7) . . ?
N3 Co07 O4 97.9(7) . . ?
N4 Co07 O1 87.9(7) . . ?
N4 Co07 O4 82.1(7) . . ?
N4 Co07 N3 92.9(8) . . ?
O2 Si1 O2 180.0 3_666 . ?
O2 Si1 O9 109(2) . . ?
O2 Si1 O9 71(2) . 3_666 ?
O2 Si1 O9 109(2) 3_666 3_666 ?
O2 Si1 O9 71(2) 3_666 . ?
O2 Si1 O21 108.9(18) 3_666 3_666 ?
O2 Si1 O21 108.9(18) . . ?
O2 Si1 O21 71.1(18) . 3_666 ?
O2 Si1 O21 71.1(18) 3_666 . ?
O9 Si1 O9 180.0 . 3_666 ?
O9 Si1 O21 109.9(18) . . ?
O9 Si1 O21 70.1(18) 3_666 . ?
O9 Si1 O21 70.1(18) . 3_666 ?
O9 Si1 O21 109.9(18) 3_666 3_666 ?
O5 Si1 O2 109(2) 3_666 3_666 ?
O5 Si1 O2 109(2) . . ?
O5 Si1 O2 71(2) . 3_666 ?
O5 Si1 O2 71(2) 3_666 . ?
O5 Si1 O9 109(2) 3_666 3_666 ?
O5 Si1 O9 109(2) . . ?
O5 Si1 O9 71(2) . 3_666 ?
O5 Si1 O9 71(2) 3_666 . ?
O5 Si1 O5 180(3) . 3_666 ?
O5 Si1 O21 110.8(17) 3_666 3_666 ?
O5 Si1 O21 69.2(17) 3_666 . ?
O5 Si1 O21 110.8(17) . . ?
O5 Si1 O21 69.2(17) . 3_666 ?
O21 Si1 O21 180.0 3_666 . ?
W2 O1 Co07 155.7(10) . . ?
Co07 O4 H4A 109.2 . . ?
Co07 O4 H4B 109.2 . . ?
H4A O4 H4B 104.5 . . ?
C6 N1 Co07 128.5(17) . . ?
C6 N1 C11 99(2) . . ?
C11 N1 Co07 127.5(16) . . ?
C2 N2 Co07 129.3(16) . . ?
C7 N2 Co07 130.3(17) . . ?
C7 N2 C2 100(2) . . ?
C5 N3 Co07 125.6(19) . . ?
C5 N3 C9 102(2) . . ?
C9 N3 Co07 132.7(18) . . ?
C3 N4 Co07 128.8(17) . . ?
C3 N4 C4 103(2) . . ?
C4 N4 Co07 125.7(16) . . ?
N8 N5 C3 111(2) . . ?
N8 N5 C8 122(2) . . ?
C3 N5 C8 127(2) . . ?
N9 N6 C10 121(2) . . ?
C11 N6 N9 108.4(19) . . ?
C11 N6 C10 131(2) . . ?
W3 O6 W1 140.3(11) . 3_666 ?
C2 N7 N10 111.0(19) . . ?
C2 N7 C12 130(2) . . ?
N10 N7 C12 119(2) . . ?
N5 N8 C4 103(2) . . ?
W1 O10 W4 139.7(11) . . ?
W4 O12 W2 135.3(10) . . ?
W3 O14 W5 137.6(10) . . ?
W2 O16 W6 137.8(11) . . ?
N2 C2 H2 124.5 . . ?
N7 C2 N2 111(2) . . ?
N7 C2 H2 124.5 . . ?
C6 N9 N6 99(2) . . ?
N4 C3 N5 111(2) . . ?
N4 C3 H3 124.7 . . ?
N5 C3 H3 124.7 . . ?
W6 O20 W5 140.2(11) . . ?
W3 O22 W6 140.1(10) . . ?
W6 O23 W4 136.5(11) . . ?
W2 O3 W1 137.7(10) . 3_666 ?
C7 N10 N7 98(2) . . ?
N4 C4 N8 113(2) . . ?
N4 C4 H4 123.7 . . ?
N8 C4 H4 123.7 . . ?
N3 C5 H5 124.3 . . ?
N3 C5 N11 111(3) . . ?
N11 C5 H5 124.3 . . ?
W1 O13 W5 136.1(11) . . ?
W5 O15 W2 138.5(11) . 3_666 ?
N1 C6 N9 120(2) . . ?
N1 C6 H6 119.9 . . ?
N9 C6 H6 119.9 . . ?
W5 O2 W3 94.0(12) . . ?
W5 O2 W6 94.6(13) . . ?
W6 O2 W3 94.1(13) . . ?
Si1 O2 W3 122(2) . . ?
Si1 O2 W5 123(2) . . ?
Si1 O2 W6 122(2) . . ?
N2 C7 H7 120.2 . . ?
N10 C7 N2 120(2) . . ?
N10 C7 H7 120.2 . . ?
N5 C8 H8A 108.6 . . ?
N5 C8 H8B 108.6 . . ?
N5 C8 C1 115(2) . 4_676 ?
H8A C8 H8B 107.5 . . ?
C1 C8 H8A 108.6 4_676 . ?
C1 C8 H8B 108.6 4_676 . ?
N3 C9 H9 122.4 . . ?
N12 C9 N3 115(3) . . ?
N12 C9 H9 122.4 . . ?
N6 C10 H10A 108.4 . . ?
N6 C10 H10B 108.4 . . ?
N6 C10 C14 115(2) . . ?
H10A C10 H10B 107.5 . . ?
C14 C10 H10A 108.4 . . ?
C14 C10 H10B 108.4 . . ?
W1 O9 W3 94.7(12) . 3_666 ?
W1 O9 W4 94.7(13) . . ?
W4 O9 W3 94.5(12) . 3_666 ?
Si1 O9 W1 122(2) . . ?
Si1 O9 W3 122(2) . 3_666 ?
Si1 O9 W4 122.1(19) . . ?
N1 C11 H11 123.3 . . ?
N6 C11 N1 113(2) . . ?
N6 C11 H11 123.3 . . ?
W1 O5 W5 94.0(12) 3_666 3_666 ?
W2 O5 W1 94.9(12) . 3_666 ?
W2 O5 W5 94.8(12) . 3_666 ?
Si1 O5 W1 122(2) . 3_666 ?
Si1 O5 W2 123(2) . . ?
Si1 O5 W5 121(2) . 3_666 ?
W2 O21 W4 95.6(11) 3_666 3_666 ?
W2 O21 W6 94.6(12) 3_666 3_666 ?
W4 O21 W6 94.7(11) 3_666 3_666 ?
Si1 O21 W2 121.8(16) . 3_666 ?
Si1 O21 W4 122.3(18) . 3_666 ?
Si1 O21 W6 120.9(16) . 3_666 ?
N7 C12 H12A 108.1 . . ?
N7 C12 H12B 108.1 . . ?
N7 C12 C13 117(2) . . ?
H12A C12 H12B 107.3 . . ?
C13 C12 H12A 108.1 . . ?
C13 C12 H12B 108.1 . . ?
C5 N11 N12 110(2) . . ?
C5 N11 C15 129(3) . . ?
C5 N11 C17 107(3) . . ?
N12 N11 C15 111(3) . . ?
N12 N11 C17 143(3) . . ?
C9 N12 N11 101(2) . . ?
C12 C13 H13A 111.0 . . ?
C12 C13 H13B 111.0 . . ?
C12 C13 C1 104(2) . . ?
H13A C13 H13B 109.0 . . ?
C1 C13 H13A 111.0 . . ?
C1 C13 H13B 111.0 . . ?
C8 C1 C13 108(2) 4_575 . ?
C8 C1 H1A 110.1 4_575 . ?
C8 C1 H1B 110.1 4_575 . ?
C13 C1 H1A 110.1 . . ?
C13 C1 H1B 110.1 . . ?
H1A C1 H1B 108.4 . . ?
W4 O11 W3 136.5(12) 3_666 . ?
C10 C14 H14A 108.2 . . ?
C10 C14 H14B 108.2 . . ?
C10 C14 H14C 110.5 . . ?
C10 C14 H14D 110.5 . . ?
C10 C14 C16 116(4) . 2_446 ?
C10 C14 C18 106(4) . 2_446 ?
H14A C14 H14B 107.4 . . ?
H14C C14 H14D 108.7 . . ?
C16 C14 H14A 108.2 2_446 . ?
C16 C14 H14B 108.2 2_446 . ?
C16 C14 C18 39(3) 2_446 2_446 ?
C18 C14 H14C 110.5 2_446 . ?
C18 C14 H14D 110.5 2_446 . ?
N11 C15 H15A 111.4 . . ?
N11 C15 H15B 111.4 . . ?
H15A C15 H15B 109.3 . . ?
C16 C15 N11 102(3) . . ?
C16 C15 H15A 111.4 . . ?
C16 C15 H15B 111.4 . . ?
C14 C16 H16A 109.1 2_456 . ?
C14 C16 H16B 109.1 2_456 . ?
C15 C16 C14 113(4) . 2_456 ?
C15 C16 H16A 109.1 . . ?
C15 C16 H16B 109.1 . . ?
H16A C16 H16B 107.8 . . ?
N11 C17 H17A 110.5 . . ?
N11 C17 H17B 110.5 . . ?
H17A C17 H17B 108.7 . . ?
C18 C17 N11 106(6) . . ?
C18 C17 H17A 110.5 . . ?
C18 C17 H17B 110.5 . . ?
C14 C18 H18A 111.6 2_456 . ?
C14 C18 H18B 111.6 2_456 . ?
C17 C18 H18A 111.6 . . ?
C17 C18 H18B 111.6 . . ?
H18A C18 H18B 109.4 . . ?
loop_
_geom_bond_atom_site_label_1
_geom_bond_atom_site_label_2
_geom_bond_distance
_geom_bond_site_symmetry_2
_geom_bond_publ_flag
W1 O6 1.878(19) 3_666 ?
W1 O10 1.844(19) . ?
W1 O3 1.918(18) 3_666 ?
W1 O13 1.859(19) . ?
W1 O7 1.644(17) . ?
W1 O9 2.38(4) . ?
W1 O5 2.41(4) 3_666 ?
W2 O1 1.675(16) . ?
W2 O12 1.960(18) . ?
W2 O16 1.866(18) . ?
W2 O3 1.851(18) . ?
W2 O15 1.897(17) 3_666 ?
W2 O5 2.37(4) . ?
W2 O21 2.36(3) 3_666 ?
W3 O6 1.866(19) . ?
W3 O14 1.862(18) . ?
W3 O18 1.669(18) . ?
W3 O22 1.875(19) . ?
W3 O2 2.42(4) . ?
W3 O9 2.41(4) 3_666 ?
W3 O11 1.927(18) . ?
W4 O10 1.908(19) . ?
W4 O12 1.847(18) . ?
W4 O23 1.936(19) . ?
W4 O17 1.668(18) . ?
W4 O9 2.41(4) . ?
W4 O21 2.39(3) 3_666 ?
W4 O11 1.886(19) 3_666 ?
W5 O8 1.659(18) . ?
W5 O14 1.904(18) . ?
W5 O20 1.890(19) . ?
W5 O13 1.947(19) . ?
W5 O15 1.870(18) . ?
W5 O2 2.38(4) . ?
W5 O5 2.42(4) 3_666 ?
W6 O16 1.897(18) . ?
W6 O20 1.861(19) . ?
W6 O22 1.890(19) . ?
W6 O23 1.872(19) . ?
W6 O2 2.42(4) . ?
W6 O19 1.652(18) . ?
W6 O21 2.42(3) 3_666 ?
Co07 O1 2.220(17) . ?
Co07 O4 2.168(15) . ?
Co07 N1 2.116(18) . ?
Co07 N2 2.11(2) . ?
Co07 N3 2.15(2) . ?
Co07 N4 2.132(19) . ?
Si1 O2 1.60(3) 3_666 ?
Si1 O2 1.60(3) . ?
Si1 O9 1.61(3) . ?
Si1 O9 1.61(3) 3_666 ?
Si1 O5 1.59(3) 3_666 ?
Si1 O5 1.59(3) . ?
Si1 O21 1.63(3) . ?
Si1 O21 1.63(3) 3_666 ?
O4 H4A 0.8501 . ?
O4 H4B 0.8499 . ?
N1 C6 1.31(3) . ?
N1 C11 1.31(3) . ?
N2 C2 1.34(3) . ?
N2 C7 1.34(3) . ?
N3 C5 1.30(3) . ?
N3 C9 1.35(3) . ?
N4 C3 1.30(3) . ?
N4 C4 1.36(3) . ?
N5 N8 1.29(3) . ?
N5 C3 1.33(3) . ?
N5 C8 1.43(3) . ?
N6 N9 1.39(3) . ?
N6 C10 1.46(3) . ?
N6 C11 1.31(3) . ?
N7 C2 1.31(3) . ?
N7 N10 1.39(3) . ?
N7 C12 1.43(3) . ?
N8 C4 1.36(3) . ?
C2 H2 0.9300 . ?
N9 C6 1.31(3) . ?
C3 H3 0.9300 . ?
N10 C7 1.31(3) . ?
C4 H4 0.9300 . ?
C5 H5 0.9300 . ?
C5 N11 1.31(3) . ?
C6 H6 0.9300 . ?
C7 H7 0.9300 . ?
C8 H8A 0.9700 . ?
C8 H8B 0.9700 . ?
C8 C1 1.494(10) 4_676 ?
C9 H9 0.9300 . ?
C9 N12 1.31(3) . ?
C10 H10A 0.9700 . ?
C10 H10B 0.9700 . ?
C10 C14 1.50(3) . ?
C11 H11 0.9300 . ?
C12 H12A 0.9700 . ?
C12 H12B 0.9700 . ?
C12 C13 1.495(10) . ?
N11 N12 1.34(3) . ?
N11 C15 1.56(6) . ?
N11 C17 1.62(7) . ?
C13 H13A 0.9700 . ?
C13 H13B 0.9700 . ?
C13 C1 1.60(4) . ?
C1 H1A 0.9700 . ?
C1 H1B 0.9700 . ?
C14 H14A 0.9700 . ?
C14 H14B 0.9700 . ?
C14 H14C 0.9700 . ?
C14 H14D 0.9700 . ?
C14 C16 1.500(10) 2_446 ?
C14 C18 1.59(8) 2_446 ?
C15 H15A 0.9700 . ?
C15 H15B 0.9700 . ?
C15 C16 1.500(10) . ?
C16 H16A 0.9700 . ?
C16 H16B 0.9700 . ?
C17 H17A 0.9700 . ?
C17 H17B 0.9700 . ?
C17 C18 1.36(9) . ?
C18 H18A 0.9700 . ?
C18 H18B 0.9700 . ?
loop_
_geom_torsion_atom_site_label_1
_geom_torsion_atom_site_label_2
_geom_torsion_atom_site_label_3
_geom_torsion_atom_site_label_4
_geom_torsion
_geom_torsion_site_symmetry_1
_geom_torsion_site_symmetry_2
_geom_torsion_site_symmetry_3
_geom_torsion_site_symmetry_4
_geom_torsion_publ_flag
Co07 N1 C6 N9 158.9(19) . . . . ?
Co07 N1 C11 N6 -156.4(15) . . . . ?
Co07 N2 C2 N7 -174.9(16) . . . . ?
Co07 N2 C7 N10 174(2) . . . . ?
Co07 N3 C5 N11 -178(2) . . . . ?
Co07 N3 C9 N12 -177(2) . . . . ?
Co07 N4 C3 N5 160.3(15) . . . . ?
Co07 N4 C4 N8 -163.5(17) . . . . ?
O1 W2 O16 W6 155.7(15) . . . . ?
O1 W2 O3 W1 -155.6(15) . . . 3_666 ?
N3 C5 N11 N12 -6(4) . . . . ?
N3 C5 N11 C15 -148(3) . . . . ?
N3 C5 N11 C17 170(4) . . . . ?
N3 C9 N12 N11 -5(4) . . . . ?
N5 N8 C4 N4 3(3) . . . . ?
N6 N9 C6 N1 -4(3) . . . . ?
N6 C10 C14 C16 -163(3) . . . 2_446 ?
N6 C10 C14 C18 156(3) . . . 2_446 ?
O6 W1 O10 W4 -57.0(18) 3_666 . . . ?
O6 W1 O13 W5 -12(3) 3_666 . . . ?
O6 W3 O14 W5 -35(3) . . . . ?
O6 W3 O22 W6 104.0(17) . . . . ?
N7 N10 C7 N2 1(3) . . . . ?
N7 C12 C13 C1 74(3) . . . . ?
N8 N5 C3 N4 4(3) . . . . ?
N8 N5 C8 C1 37(4) . . . 4_676 ?
O8 W5 O20 W6 154.1(18) . . . . ?
O8 W5 O15 W2 154.3(17) . . . 3_666 ?
O10 W1 O13 W5 -101.0(17) . . . . ?
O10 W4 O12 W2 -16(3) . . . . ?
O12 W2 O1 Co07 -114(2) . . . . ?
O12 W2 O16 W6 55.9(16) . . . . ?
O12 W2 O3 W1 15(3) . . . 3_666 ?
O14 W3 O6 W1 -18(3) . . . 3_666 ?
O14 W3 O22 W6 -51.6(17) . . . . ?
O14 W5 O20 W6 52.9(19) . . . . ?
O14 W5 O15 W2 -104.3(17) . . . 3_666 ?
O16 W2 O1 Co07 156(2) . . . . ?
O16 W2 O3 W1 101.7(16) . . . 3_666 ?
O16 W6 O20 W5 18(3) . . . . ?
O16 W6 O22 W3 -106.4(18) . . . . ?
O16 W6 O23 W4 55.8(16) . . . . ?
O18 W3 O6 W1 153.3(17) . . . 3_666 ?
O18 W3 O14 W5 153.0(16) . . . . ?
O18 W3 O22 W6 -152.8(17) . . . . ?
C2 N2 C7 N10 1(3) . . . . ?
C2 N7 N10 C7 -2(3) . . . . ?
C2 N7 C12 C13 109(3) . . . . ?
N9 N6 C10 C14 -54(3) . . . . ?
N9 N6 C11 N1 -3(3) . . . . ?
C3 N4 C4 N8 -1(3) . . . . ?
C3 N5 N8 C4 -4(3) . . . . ?
C3 N5 C8 C1 -140(3) . . . 4_676 ?
O20 W5 O15 W2 -19(3) . . . 3_666 ?
O20 W6 O16 W2 33(3) . . . . ?
O20 W6 O22 W3 50.7(17) . . . . ?
O20 W6 O23 W4 -99.8(16) . . . . ?
O22 W3 O6 W1 -104.6(18) . . . 3_666 ?
O22 W3 O14 W5 50.9(16) . . . . ?
O22 W6 O16 W2 103.0(17) . . . . ?
O22 W6 O20 W5 -51.7(19) . . . . ?
O22 W6 O23 W4 -13(3) . . . . ?
O23 W4 O12 W2 58.7(15) . . . . ?
O23 W6 O16 W2 -55.7(17) . . . . ?
O23 W6 O20 W5 105.6(19) . . . . ?
O23 W6 O22 W3 -36(3) . . . . ?
O3 W1 O10 W4 11(4) 3_666 . . . ?
O3 W1 O13 W5 57.0(17) 3_666 . . . ?
O3 W2 O1 Co07 63(2) . . . . ?
O3 W2 O16 W6 -104.2(16) . . . . ?
N10 N7 C2 N2 2(3) . . . . ?
N10 N7 C12 C13 -77(3) . . . . ?
C4 N4 C3 N5 -2(3) . . . . ?
C5 N3 C9 N12 2(3) . . . . ?
C5 N11 N12 C9 6(3) . . . . ?
C5 N11 C15 C16 -91(6) . . . . ?
C5 N11 C17 C18 148(6) . . . . ?
O13 W1 O10 W4 100.9(18) . . . . ?
O13 W5 O20 W6 -106.2(19) . . . . ?
O13 W5 O15 W2 54.0(18) . . . 3_666 ?
O7 W1 O10 W4 -156.5(18) . . . . ?
O7 W1 O13 W5 157.6(16) . . . . ?
O15 W2 O1 Co07 -27(2) 3_666 . . . ?
O15 W2 O16 W6 -16(3) 3_666 . . . ?
O15 W2 O3 W1 -56.0(16) 3_666 . . 3_666 ?
O15 W5 O20 W6 -33(3) . . . . ?
C6 N1 C11 N6 1(3) . . . . ?
O2 W3 O6 W1 -42(2) . . . 3_666 ?
O2 W3 O14 W5 -8.6(16) . . . . ?
O2 W3 O22 W6 8.9(17) . . . . ?
O2 W5 O20 W6 -8.3(18) . . . . ?
O2 W5 O15 W2 -40.4(19) . . . 3_666 ?
O2 W6 O16 W2 41.2(18) . . . . ?
O2 W6 O20 W5 8.2(18) . . . . ?
O2 W6 O22 W3 -8.9(17) . . . . ?
O2 W6 O23 W4 -37.8(19) . . . . ?
O2 Si1 O9 W1 122(3) 3_666 . . . ?
O2 Si1 O9 W1 -58(3) . . . . ?
O2 Si1 O9 W3 -178(2) . . . 3_666 ?
O2 Si1 O9 W3 2(2) 3_666 . . 3_666 ?
O2 Si1 O9 W4 -118(3) 3_666 . . . ?
O2 Si1 O9 W4 62(3) . . . . ?
O2 Si1 O5 W1 64(3) . . . 3_666 ?
O2 Si1 O5 W1 -116(3) 3_666 . . 3_666 ?
O2 Si1 O5 W2 -58(3) . . . . ?
O2 Si1 O5 W2 122(3) 3_666 . . . ?
O2 Si1 O5 W5 2(2) 3_666 . . 3_666 ?
O2 Si1 O5 W5 -178(2) . . . 3_666 ?
O2 Si1 O21 W2 -117(3) 3_666 . . 3_666 ?
O2 Si1 O21 W2 63(3) . . . 3_666 ?
O2 Si1 O21 W4 121(2) 3_666 . . 3_666 ?
O2 Si1 O21 W4 -59(2) . . . 3_666 ?
O2 Si1 O21 W6 -179(2) . . . 3_666 ?
O2 Si1 O21 W6 1(2) 3_666 . . 3_666 ?
O17 W4 O12 W2 159.3(14) . . . . ?
C7 N2 C2 N7 -2(3) . . . . ?
C8 N5 N8 C4 178(2) . . . . ?
C8 N5 C3 N4 -179(2) . . . . ?
C9 N3 C5 N11 3(3) . . . . ?
C10 N6 N9 C6 -176(2) . . . . ?
C10 N6 C11 N1 176(2) . . . . ?
O9 W1 O10 W4 3.7(17) . . . . ?
O9 W1 O13 W5 -37.4(19) . . . . ?
O9 W3 O6 W1 -8.8(17) 3_666 . . 3_666 ?
O9 W3 O14 W5 -43.7(17) 3_666 . . . ?
O9 W3 O22 W6 42.3(19) 3_666 . . . ?
O9 W4 O12 W2 -35.9(17) . . . . ?
O9 Si1 O2 W3 -178(2) . . . . ?
O9 Si1 O2 W3 2(2) 3_666 . . . ?
O9 Si1 O2 W5 62(3) . . . . ?
O9 Si1 O2 W5 -118(3) 3_666 . . . ?
O9 Si1 O2 W6 121(3) 3_666 . . . ?
O9 Si1 O2 W6 -59(3) . . . . ?
O9 Si1 O5 W1 -177(2) . . . 3_666 ?
O9 Si1 O5 W1 3(2) 3_666 . . 3_666 ?
O9 Si1 O5 W2 61(3) . . . . ?
O9 Si1 O5 W2 -119(3) 3_666 . . . ?
O9 Si1 O5 W5 -60(3) . . . 3_666 ?
O9 Si1 O5 W5 120(3) 3_666 . . 3_666 ?
O9 Si1 O21 W2 -57(2) . . . 3_666 ?
O9 Si1 O21 W2 123(2) 3_666 . . 3_666 ?
O9 Si1 O21 W4 1.6(18) 3_666 . . 3_666 ?
O9 Si1 O21 W4 -178.4(18) . . . 3_666 ?
O9 Si1 O21 W6 -118(2) 3_666 . . 3_666 ?
O9 Si1 O21 W6 62(2) . . . 3_666 ?
C11 N1 C6 N9 2(3) . . . . ?
C11 N6 N9 C6 4(2) . . . . ?
C11 N6 C10 C14 127(3) . . . . ?
O19 W6 O16 W2 -156.8(16) . . . . ?
O19 W6 O20 W5 -152.7(18) . . . . ?
O19 W6 O22 W3 152.2(17) . . . . ?
O19 W6 O23 W4 158.0(16) . . . . ?
O5 W1 O10 W4 35(2) 3_666 . . . ?
O5 W1 O13 W5 -4.2(16) 3_666 . . . ?
O5 W2 O1 Co07 17(4) . . . . ?
O5 W2 O16 W6 -39.8(18) . . . . ?
O5 W2 O3 W1 5.4(16) . . . 3_666 ?
O5 W5 O20 W6 -43(2) 3_666 . . . ?
O5 W5 O15 W2 -7.9(17) 3_666 . . 3_666 ?
O5 Si1 O2 W3 121(3) 3_666 . . . ?
O5 Si1 O2 W3 -59(3) . . . . ?
O5 Si1 O2 W5 2(2) 3_666 . . . ?
O5 Si1 O2 W5 -178(2) . . . . ?
O5 Si1 O2 W6 -120(3) 3_666 . . . ?
O5 Si1 O2 W6 60(3) . . . . ?
O5 Si1 O9 W1 3(2) 3_666 . . . ?
O5 Si1 O9 W1 -177(2) . . . . ?
O5 Si1 O9 W3 -117(3) 3_666 . . 3_666 ?
O5 Si1 O9 W3 63(3) . . . 3_666 ?
O5 Si1 O9 W4 -57(3) . . . . ?
O5 Si1 O9 W4 123(3) 3_666 . . . ?
O5 Si1 O21 W2 2(2) 3_666 . . 3_666 ?
O5 Si1 O21 W2 -178(2) . . . 3_666 ?
O5 Si1 O21 W4 61(2) . . . 3_666 ?
O5 Si1 O21 W4 -119(2) 3_666 . . 3_666 ?
O5 Si1 O21 W6 -59(2) . . . 3_666 ?
O5 Si1 O21 W6 121(2) 3_666 . . 3_666 ?
O21 W2 O1 Co07 -154(3) 3_666 . . . ?
O21 W2 O16 W6 -6.4(15) 3_666 . . . ?
O21 W2 O3 W1 37.4(17) 3_666 . . 3_666 ?
O21 W4 O12 W2 -3.9(14) 3_666 . . . ?
O21 W6 O16 W2 6.3(15) 3_666 . . . ?
O21 W6 O20 W5 41(2) 3_666 . . . ?
O21 W6 O22 W3 -44.2(18) 3_666 . . . ?
O21 W6 O23 W4 -4.7(15) 3_666 . . . ?
O21 Si1 O2 W3 -118(3) 3_666 . . . ?
O21 Si1 O2 W3 62(3) . . . . ?
O21 Si1 O2 W5 -58(3) . . . . ?
O21 Si1 O2 W5 122(3) 3_666 . . . ?
O21 Si1 O2 W6 -179(2) . . . . ?
O21 Si1 O2 W6 1(2) 3_666 . . . ?
O21 Si1 O9 W1 -119(3) 3_666 . . . ?
O21 Si1 O9 W1 61(3) . . . . ?
O21 Si1 O9 W3 121(2) 3_666 . . 3_666 ?
O21 Si1 O9 W3 -59(2) . . . 3_666 ?
O21 Si1 O9 W4 1.6(18) 3_666 . . . ?
O21 Si1 O9 W4 -178.4(18) . . . . ?
O21 Si1 O5 W1 -56(3) . . . 3_666 ?
O21 Si1 O5 W1 124(3) 3_666 . . 3_666 ?
O21 Si1 O5 W2 2(2) 3_666 . . . ?
O21 Si1 O5 W2 -178(2) . . . . ?
O21 Si1 O5 W5 -118(3) 3_666 . . 3_666 ?
O21 Si1 O5 W5 62(3) . . . 3_666 ?
C12 N7 C2 N2 177(2) . . . . ?
C12 N7 N10 C7 -177(2) . . . . ?
C12 C13 C1 C8 161(2) . . . 4_575 ?
N11 C15 C16 C14 179(5) . . . 2_456 ?
N11 C17 C18 C14 172(5) . . . 2_456 ?
N12 N11 C15 C16 128(5) . . . . ?
N12 N11 C17 C18 -39(10) . . . . ?
O11 W3 O6 W1 53.3(18) . . . 3_666 ?
O11 W3 O14 W5 -107.3(16) . . . . ?
O11 W3 O22 W6 24(3) . . . . ?
O11 W4 O12 W2 -100.8(15) 3_666 . . . ?
C15 N11 N12 C9 156(3) . . . . ?
C17 N11 N12 C9 -167(6) . . . . ?
