#------------------------------------------------------------------------------
#$Date: 2022-02-08 01:42:51 +0200 (Tue, 08 Feb 2022) $
#$Revision: 272847 $
#$URL: file:///home/coder/svn-repositories/cod/cif/7/24/43/7244367.cif $
#------------------------------------------------------------------------------
#
# This file is available in the Crystallography Open Database (COD),
# http://www.crystallography.net/
#
# All data on this site have been placed in the public domain by the
# contributors.
#
data_7244367
loop_
_publ_author_name
'Sakamoto, Hikaru'
'Ito, Akitaka'
'Ohtani, Masataka'
_publ_section_title
;
 Unusual ligand substitution of a metal-organic framework with distorted
 metal--ligand coordination
;
_journal_name_full               CrystEngComm
_journal_paper_doi               10.1039/D2CE00060A
_journal_year                    2022
_chemical_formula_moiety         'C16 H2.88 F5.12 O8 Zn2'
_chemical_formula_sum            'C16 H2.88 F5.12 O8 Zn2'
_chemical_formula_weight         551.04
_space_group_crystal_system      monoclinic
_space_group_IT_number           14
_space_group_name_Hall           '-P 2ybc'
_space_group_name_H-M_alt        'P 1 21/c 1'
_atom_sites_solution_hydrogens   geom
_atom_sites_solution_primary     dual
_audit_creation_date             2020-11-01
_audit_creation_method
;
Olex2 1.3-ac4
(compiled 2019.04.23 svn.r3594 for Rigaku Oxford Diffraction, GUI svn.r5739)
;
_audit_update_record
;
2021-12-10 deposited with the CCDC.	2022-01-26 downloaded from the CCDC.
;
_cell_angle_alpha                90
_cell_angle_beta                 100.241(4)
_cell_angle_gamma                90
_cell_formula_units_Z            4
_cell_length_a                   13.8857(7)
_cell_length_b                   4.77750(10)
_cell_length_c                   25.5982(8)
_cell_measurement_reflns_used    6355
_cell_measurement_temperature    93.15
_cell_measurement_theta_max      30.0820
_cell_measurement_theta_min      2.0210
_cell_volume                     1671.10(11)
_computing_cell_refinement       'CrysAlisPro 1.171.40.47a (Rigaku OD, 2019)'
_computing_data_collection       'CrysAlisPro 1.171.40.47a (Rigaku OD, 2019)'
_computing_data_reduction        'CrysAlisPro 1.171.40.47a (Rigaku OD, 2019)'
_computing_molecular_graphics    'Olex2 (Dolomanov et al., 2009)'
_computing_publication_material  'Olex2 (Dolomanov et al., 2009)'
_computing_structure_refinement  'ShelXL (Sheldrick, 2015)'
_computing_structure_solution    'ShelXT (Sheldrick, 2015)'
_diffrn_ambient_temperature      93.15
_diffrn_detector                 'CCD plate'
_diffrn_detector_area_resol_mean 10.0000
_diffrn_detector_type            HyPix
_diffrn_measured_fraction_theta_full 0.997
_diffrn_measured_fraction_theta_max 0.997
_diffrn_measurement_details
;
List of Runs (angles in degrees, time in seconds):

  # Type    Start    End  Width  t~exp~   \w     \q     \k     \f   Frames
#--------------------------------------------------------------------------
  1  \w    -19.00   6.00   0.50   82.86    --   12.40 -89.00  79.00   50
  2  \w    -40.00  15.00   0.50   82.86    --  -13.03 -89.00  79.00  110
  3  \w    -15.00  60.00   0.50   82.86    --  -13.03  57.00-120.00  150
  4  \w    -53.00   0.00   0.50   82.86    --  -13.03  89.00-164.00  106
  5  \w     55.00  95.00   0.50   82.86    --   12.40 178.00 120.00   80
  6  \w    -93.00 -58.00   0.50   82.86    --  -13.03-178.00-120.00   70
;
_diffrn_measurement_device       'four-circle diffractometer'
_diffrn_measurement_device_type
'XtaLAB Synergy, Single source at offset/far, HyPix'
_diffrn_measurement_method       '\w scans'
_diffrn_orient_matrix_type
'CrysAlisPro convention (1999,Acta A55,543-557)'
_diffrn_orient_matrix_UB_11      0.0386140000
_diffrn_orient_matrix_UB_12      -0.0990998000
_diffrn_orient_matrix_UB_13      0.0029727000
_diffrn_orient_matrix_UB_21      0.0294305000
_diffrn_orient_matrix_UB_22      0.0908606000
_diffrn_orient_matrix_UB_23      0.0181155000
_diffrn_orient_matrix_UB_31      -0.0182254000
_diffrn_orient_matrix_UB_32      -0.0632169000
_diffrn_orient_matrix_UB_33      0.0213555000
_diffrn_radiation_monochromator  mirror
_diffrn_radiation_probe          x-ray
_diffrn_radiation_type           'Mo K\a'
_diffrn_radiation_wavelength     0.71073
_diffrn_reflns_av_R_equivalents  0.0356
_diffrn_reflns_av_unetI/netI     0.0357
_diffrn_reflns_Laue_measured_fraction_full 0.997
_diffrn_reflns_Laue_measured_fraction_max 0.997
_diffrn_reflns_limit_h_max       14
_diffrn_reflns_limit_h_min       -17
_diffrn_reflns_limit_k_max       4
_diffrn_reflns_limit_k_min       -5
_diffrn_reflns_limit_l_max       31
_diffrn_reflns_limit_l_min       -31
_diffrn_reflns_number            10283
_diffrn_reflns_point_group_measured_fraction_full 0.997
_diffrn_reflns_point_group_measured_fraction_max 0.997
_diffrn_reflns_theta_full        25.242
_diffrn_reflns_theta_max         26.362
_diffrn_reflns_theta_min         2.386
_diffrn_source                   'micro-focus sealed X-ray tube'
_diffrn_source_type              'PhotonJet (Mo) X-ray Source'
_exptl_absorpt_coefficient_mu    2.975
_exptl_absorpt_correction_T_max  1.000
_exptl_absorpt_correction_T_min  0.484
_exptl_absorpt_correction_type   gaussian
_exptl_absorpt_process_details
;
CrysAlisPro 1.171.40.47a (Rigaku Oxford Diffraction, 2019)
Numerical absorption correction based on gaussian integration over
			a multifaceted crystal model
Empirical absorption correction using spherical harmonics,
 implemented in SCALE3 ABSPACK scaling algorithm.
;
_exptl_crystal_colour            'clear colourless'
_exptl_crystal_colour_lustre     clear
_exptl_crystal_colour_primary    colourless
_exptl_crystal_density_diffrn    2.190
_exptl_crystal_description       plate
_exptl_crystal_F_000             1076
_exptl_crystal_size_max          0.583
_exptl_crystal_size_mid          0.083
_exptl_crystal_size_min          0.014
_refine_diff_density_max         1.390
_refine_diff_density_min         -0.824
_refine_diff_density_rms         0.132
_refine_ls_extinction_method     none
_refine_ls_goodness_of_fit_ref   1.101
_refine_ls_hydrogen_treatment    constr
_refine_ls_matrix_type           full
_refine_ls_number_parameters     309
_refine_ls_number_reflns         3382
_refine_ls_number_restraints     0
_refine_ls_restrained_S_all      1.101
_refine_ls_R_factor_all          0.0540
_refine_ls_R_factor_gt           0.0453
_refine_ls_shift/su_max          0.000
_refine_ls_shift/su_mean         0.000
_refine_ls_structure_factor_coef Fsqd
_refine_ls_weighting_details
'w=1/[\s^2^(Fo^2^)+(0.0637P)^2^+5.3940P] where P=(Fo^2^+2Fc^2^)/3'
_refine_ls_weighting_scheme      calc
_refine_ls_wR_factor_gt          0.1194
_refine_ls_wR_factor_ref         0.1240
_reflns_Friedel_coverage         0.000
_reflns_number_gt                2922
_reflns_number_total             3382
_reflns_threshold_expression     'I > 2\s(I)'
_iucr_refine_instructions_details
;
TITL kuths4-129b_3_a.res in P2(1)/c
    kuths4-129b_3.res
    created by SHELXL-2018/3 at 17:01:05 on 01-Nov-2020
REM Old TITL kuths4-129b_3_a.res in P2(1)/c
REM SHELXT solution in P2(1)/c: R1 0.126, Rweak 0.002, Alpha 0.040
REM <I/s> 0.436 for 428 systematic absences, Orientation as input
REM Formula found by SHELXT: C16 F9 O7 Zn2
CELL 0.71073 13.8857 4.7775 25.5982 90 100.241 90
ZERR 4 0.0007 0.0001 0.0008 0 0.004 0
LATT 1
SYMM -X,0.5+Y,0.5-Z
SFAC C H F O Zn
UNIT 64 11.53 20.47 32 8

L.S. 4
PLAN  5
TEMP -180
list 4
fmap 2
acta
OMIT 2 1 8
OMIT -1 0 2
OMIT 5 0 0
OMIT -3 0 12
OMIT 0 0 8
OMIT -2 0 4
OMIT -2 0 8
REM <olex2.extras>
REM <HklSrc "%.\\KUTHS4-129b_3.hkl">
REM </olex2.extras>

WGHT    0.063700    5.394001
FVAR       0.28179   0.63731   0.64204
ZN01  5    0.436402    0.695577    0.319512    11.00000    0.02979    0.01503 =
         0.00875    0.00175    0.00460    0.00206
ZN02  5    0.574195    0.375462    0.439751    11.00000    0.03084    0.01594 =
         0.00826    0.00198    0.00443    0.00029
O003  4    0.394166    0.228820    0.546164    11.00000    0.03894    0.01227 =
         0.01291    0.00056    0.00128   -0.00088
O004  4    0.344791   -0.163034    0.504004    11.00000    0.04269    0.01616 =
         0.01112    0.00231    0.00119    0.00242
O005  4    0.571694    0.635878    0.314399    11.00000    0.02656    0.02373 =
         0.01874    0.00411    0.00637    0.00477
O006  4    0.583378    0.594472    0.197048    11.00000    0.03333    0.01276 =
         0.01383   -0.00247    0.00065   -0.00192
O007  4    0.653222    0.980046    0.233606    11.00000    0.03761    0.01490 =
         0.01309   -0.00161    0.00178   -0.00124
O008  4    0.437315    0.315420    0.440973    11.00000    0.02610    0.02470 =
         0.02195    0.00380    0.00635   -0.00067
O009  4    0.377371    0.645019    0.382001    11.00000    0.05658    0.02097 =
         0.01362    0.00345    0.01484   -0.00203
O00A  4    0.625652    0.310456    0.375354    11.00000    0.04922    0.02245 =
         0.01236    0.00243    0.01213    0.00512
C00B  1    0.647475    0.718381    0.230117    11.00000    0.03118    0.01692 =
         0.00882   -0.00095    0.00810   -0.00288
C00C  1    0.340452    0.097476    0.509365    11.00000    0.03134    0.01780 =
         0.00732    0.00294    0.00605    0.00020
C00D  1    0.368523    0.457804    0.415849    11.00000    0.04211    0.01439 =
         0.00659   -0.00074    0.00460   -0.00085
C00E  1    0.728925    0.553022    0.263044    11.00000    0.02799    0.01383 =
         0.01528   -0.00294    0.00349   -0.00296
C00F  1    0.633153    0.458985    0.335995    11.00000    0.03376    0.01966 =
         0.00881   -0.00292    0.00248    0.00063
C00G  1    0.269798    0.407902    0.428785    11.00000    0.03216    0.01344 =
         0.01338   -0.00136    0.00022    0.00009
C00H  1    0.722150    0.423176    0.311538    11.00000    0.03058    0.02017 =
         0.01082   -0.00252    0.00133   -0.00121
PART 1
F00I  3    0.799290    0.122261    0.381026    31.00000    0.05176    0.05582 =
         0.02287    0.01988    0.00652    0.02371
F00J  3    0.817075    0.638778    0.194770    31.00000    0.05312    0.05609 =
         0.04253    0.02733    0.03188    0.01142
PART 0
C00K  1    0.799857    0.255614    0.335789    11.00000    0.04024    0.02578 =
         0.01455    0.00313    0.00509    0.00302
PART 2
AFIX  43
H00K  2    0.797120    0.169305    0.368927   -31.00000   -1.20000
AFIX   0
PART 0
C00L  1    0.258000    0.239600    0.472203    11.00000    0.03178    0.01644 =
         0.01420   -0.00017    0.00456   -0.00161
PART 1
F00M  3    0.155137    0.040526    0.524691    21.00000    0.04544    0.06426 =
         0.04533    0.02638    0.01989   -0.00752
PART 0
C00N  1    0.186326    0.530160    0.398972    11.00000    0.04309    0.02918 =
         0.01867    0.00350   -0.00308   -0.00158
PART 2
AFIX  43
H00N  2    0.192954    0.646887    0.369775   -21.00000   -1.20000
AFIX   0
PART 0
C00O  1    0.811912    0.513653    0.241128    11.00000    0.04304    0.02532 =
         0.02229    0.00427    0.01345   -0.00152
PART 2
AFIX  43
H00O  2    0.816952    0.605349    0.208794   -31.00000   -1.20000
AFIX   0
PART 0
C00P  1    0.880442    0.214308    0.312109    11.00000    0.03040    0.03287 =
         0.03640    0.00180    0.00244    0.00652
PART 2
AFIX  43
H00P  2    0.931678    0.094579    0.328449   -31.00000   -1.20000
AFIX   0
PART 0
PART 1
F00Q  3    0.192956    0.689055    0.356590    21.00000    0.06177    0.05759 =
         0.04145    0.03095   -0.01345    0.00076
PART 0
C00R  1    0.887356    0.345310    0.264883    11.00000    0.02994    0.03531 =
         0.04764    0.00721    0.01755    0.00561
PART 2
AFIX  43
H00R  2    0.943557    0.319440    0.248997   -31.00000   -1.20000
AFIX   0
PART 0
C00S  1    0.165521    0.194862    0.483019    11.00000    0.03651    0.02975 =
         0.02771    0.00517    0.00833   -0.00051
PART 2
AFIX  43
H00S  2    0.157854    0.079291    0.512201   -21.00000   -1.20000
AFIX   0
PART 0
PART 1
F00T  3    0.952898    0.050574    0.334749    31.00000    0.04115    0.05466 =
         0.05978    0.01945    0.00933    0.02200
PART 0
C00U  1    0.095004    0.485634    0.410863    11.00000    0.03257    0.03685 =
         0.04566    0.00656   -0.00911    0.00520
PART 2
AFIX  43
H00U  2    0.039400    0.573275    0.390376   -21.00000   -1.20000
AFIX   0
PART 0
C00V  1    0.084184    0.312903    0.452734    11.00000    0.03062    0.03806 =
         0.05176    0.00476    0.00583    0.00022
PART 2
AFIX  43
H00V  2    0.020974    0.276182    0.460488   -21.00000   -1.20000
AFIX   0
PART 0
PART 1
F00W  3    0.018924    0.605187    0.381781    21.00000    0.04506    0.05965 =
         0.09191    0.02295   -0.02519    0.01218
F00X  3   -0.002607    0.268042    0.464170    21.00000    0.03196    0.06962 =
         0.08892    0.00751    0.00807   -0.00316
F00Y  3    0.963919    0.307343    0.241700    31.00000    0.04898    0.08472 =
         0.07259    0.03352    0.03977    0.02573
HKLF 4




REM  kuths4-129b_3_a.res in P2(1)/c
REM wR2 = 0.1240, GooF = S = 1.101, Restrained GooF = 1.101 for all data
REM R1 = 0.0453 for 2922 Fo > 4sig(Fo) and 0.0540 for all 3382 data
REM 309 parameters refined using 0 restraints

END  
     
WGHT      0.0637      5.3940 

REM Highest difference peak  1.390,  deepest hole -0.824,  1-sigma level  0.132
Q1    1   0.5013  0.3417  0.4342  11.00000  0.05    1.39
Q2    1   0.5078  0.7007  0.3251  11.00000  0.05    1.37
Q3    1   0.3674  0.6644  0.3119  11.00000  0.05    1.26
Q4    1   0.5722  0.1706  0.4373  11.00000  0.05    1.22
Q5    1   0.6403  0.3739  0.4448  11.00000  0.05    1.22

  REM The information below was added by Olex2.
  REM
  REM R1 = 0.0453 for 2922 Fo > 4sig(Fo) and 0.0540 for all 11066 data
  REM n/a parameters refined using n/a restraints
  REM Highest difference peak 1.39, deepest hole -0.82
  REM Mean Shift 0, Max Shift 0.000.

  REM +++ Tabular Listing of Refinement Information +++
  REM R1_all = 0.0540
  REM R1_gt = 0.0453
  REM wR_ref = 0.1240
  REM GOOF = 1.101
  REM Shift_max = 0.000
  REM Shift_mean = 0
  REM Reflections_all = 11066
  REM Reflections_gt = 2922
  REM Parameters = n/a
  REM Hole = -0.82
  REM Peak = 1.39
  REM Flack = n/a

  
;
_cod_data_source_file            d2ce00060a2.cif
_cod_data_source_block           kuths4-129b_3
_cod_database_code               7244367
_shelx_shelxl_version_number     2018/3
_chemical_oxdiff_formula         'C60 F48 O20 Zn8 H1 '
_shelx_space_group_comment
;
The symmetry employed for this shelxl refinement is uniquely defined
by the following loop, which should always be used as a source of
symmetry information in preference to the above space-group names.
They are only intended as comments.
;
_diffrn_oxdiff_digest_frames
;
011fe740f7eb75914938ad6a4490fbcf8b00566bfcf
;
_diffrn_oxdiff_digest_hkl
;
011b8b1639caae29b9a47e86dad3372d8ab6da
;
_reflns_odcompleteness_completeness 99.82
_reflns_odcompleteness_iscentric 1
_reflns_odcompleteness_theta     26.32
_olex2_refinement_description
;
1. Fixed Uiso
 At 1.2 times of:
  All C(H) groups
2. Others
 Sof(H00N)=Sof(H00S)=Sof(H00U)=Sof(H00V)=1-FVAR(1)
 Sof(F00M)=Sof(F00Q)=Sof(F00W)=Sof(F00X)=FVAR(1)
 Sof(H00K)=Sof(H00O)=Sof(H00P)=Sof(H00R)=1-FVAR(2)
 Sof(F00I)=Sof(F00J)=Sof(F00T)=Sof(F00Y)=FVAR(2)
3.a Aromatic/amide H refined with riding coordinates:
 C00K(H00K), C00N(H00N), C00O(H00O), C00P(H00P), C00R(H00R), C00S(H00S),
 C00U(H00U), C00V(H00V)
;
_olex2_submission_special_instructions 'No special instructions were received'
_oxdiff_exptl_absorpt_empirical_details
;
Empirical correction (ABSPACK) includes:
- Absorption correction using spherical harmonics
- Frame scaling
;
_oxdiff_exptl_absorpt_empirical_full_max 1.680
_oxdiff_exptl_absorpt_empirical_full_min 0.585
loop_
_space_group_symop_operation_xyz
'x, y, z'
'-x, y+1/2, -z+1/2'
'-x, -y, -z'
'x, -y-1/2, z-1/2'
loop_
_atom_site_label
_atom_site_type_symbol
_atom_site_fract_x
_atom_site_fract_y
_atom_site_fract_z
_atom_site_U_iso_or_equiv
_atom_site_adp_type
_atom_site_occupancy
_atom_site_site_symmetry_order
_atom_site_calc_flag
_atom_site_refinement_flags_posn
_atom_site_refinement_flags_adp
_atom_site_refinement_flags_occupancy
_atom_site_disorder_assembly
_atom_site_disorder_group
Zn01 Zn 0.43640(4) 0.69558(10) 0.31951(2) 0.01771(16) Uani 1 1 d . . . . .
Zn02 Zn 0.57419(4) 0.37546(10) 0.43975(2) 0.01823(16) Uani 1 1 d . . . . .
O003 O 0.3942(2) 0.2288(6) 0.54616(11) 0.0218(7) Uani 1 1 d . . . . .
O004 O 0.3448(2) -0.1630(6) 0.50400(11) 0.0238(7) Uani 1 1 d . . . . .
O005 O 0.5717(2) 0.6359(7) 0.31440(11) 0.0227(7) Uani 1 1 d . . . . .
O006 O 0.5834(2) 0.5945(6) 0.19705(11) 0.0204(6) Uani 1 1 d . . . . .
O007 O 0.6532(2) 0.9800(6) 0.23361(11) 0.0222(7) Uani 1 1 d . . . . .
O008 O 0.4373(2) 0.3154(7) 0.44097(11) 0.0240(7) Uani 1 1 d . . . . .
O009 O 0.3774(3) 0.6450(7) 0.38200(12) 0.0293(8) Uani 1 1 d . . . . .
O00A O 0.6257(3) 0.3105(7) 0.37535(12) 0.0272(7) Uani 1 1 d . . . . .
C00B C 0.6475(3) 0.7184(9) 0.23012(15) 0.0184(9) Uani 1 1 d . . . . .
C00C C 0.3405(3) 0.0975(9) 0.50936(15) 0.0185(9) Uani 1 1 d . . . . .
C00D C 0.3685(3) 0.4578(9) 0.41585(15) 0.0210(9) Uani 1 1 d . . . . .
C00E C 0.7289(3) 0.5530(9) 0.26304(16) 0.0191(9) Uani 1 1 d . . . . .
C00F C 0.6332(3) 0.4590(9) 0.33599(15) 0.0209(9) Uani 1 1 d . . . . .
C00G C 0.2698(3) 0.4079(9) 0.42879(16) 0.0201(9) Uani 1 1 d . . . . .
C00H C 0.7222(3) 0.4232(9) 0.31154(15) 0.0208(9) Uani 1 1 d . . . . .
F00I F 0.7993(4) 0.1223(11) 0.38103(18) 0.0435(15) Uani 0.642(7) 1 d . . P A 1
F00J F 0.8171(4) 0.6388(12) 0.1948(2) 0.0477(16) Uani 0.642(7) 1 d . . P A 1
C00K C 0.7999(4) 0.2556(10) 0.33579(17) 0.0268(10) Uani 1 1 d . . . . .
H00K H 0.797120 0.169305 0.368927 0.032 Uiso 0.358(7) 1 calc R . P A 2
C00L C 0.2580(3) 0.2396(9) 0.47220(16) 0.0207(9) Uani 1 1 d . . . . .
F00M F 0.1551(4) 0.0405(13) 0.5247(2) 0.0502(17) Uani 0.637(7) 1 d . . P B 1
C00N C 0.1863(4) 0.5302(11) 0.39897(18) 0.0314(11) Uani 1 1 d . . . . .
H00N H 0.192954 0.646887 0.369775 0.038 Uiso 0.363(7) 1 calc R . P B 2
C00O C 0.8119(4) 0.5137(11) 0.24113(18) 0.0293(11) Uani 1 1 d . . . . .
H00O H 0.816952 0.605349 0.208794 0.035 Uiso 0.358(7) 1 calc R . P A 2
C00P C 0.8804(4) 0.2143(12) 0.3121(2) 0.0337(12) Uani 1 1 d . . . . .
H00P H 0.931678 0.094579 0.328449 0.040 Uiso 0.358(7) 1 calc R . P A 2
F00Q F 0.1930(4) 0.6891(13) 0.3566(2) 0.0564(18) Uani 0.637(7) 1 d . . P B 1
C00R C 0.8874(4) 0.3453(12) 0.2649(2) 0.0363(12) Uani 1 1 d . . . . .
H00R H 0.943557 0.319440 0.248997 0.044 Uiso 0.358(7) 1 calc R . P A 2
C00S C 0.1655(4) 0.1949(11) 0.4830(2) 0.0310(11) Uani 1 1 d . . . . .
H00S H 0.157854 0.079291 0.512201 0.037 Uiso 0.363(7) 1 calc R . P B 2
F00T F 0.9529(4) 0.0506(13) 0.3347(2) 0.0518(17) Uani 0.642(7) 1 d . . P A 1
C00U C 0.0950(4) 0.4856(13) 0.4109(2) 0.0403(13) Uani 1 1 d . . . . .
H00U H 0.039400 0.573275 0.390376 0.048 Uiso 0.363(7) 1 calc R . P B 2
C00V C 0.0842(4) 0.3129(13) 0.4527(2) 0.0403(13) Uani 1 1 d . . . . .
H00V H 0.020974 0.276182 0.460488 0.048 Uiso 0.363(7) 1 calc R . P B 2
F00W F 0.0189(4) 0.6052(14) 0.3818(3) 0.070(2) Uani 0.637(7) 1 d . . P B 1
F00X F -0.0026(4) 0.2680(15) 0.4642(3) 0.064(2) Uani 0.637(7) 1 d . . P B 1
F00Y F 0.9639(4) 0.3073(15) 0.2417(3) 0.065(2) Uani 0.642(7) 1 d . . P A 1
loop_
_atom_site_aniso_label
_atom_site_aniso_U_11
_atom_site_aniso_U_22
_atom_site_aniso_U_33
_atom_site_aniso_U_23
_atom_site_aniso_U_13
_atom_site_aniso_U_12
Zn01 0.0298(3) 0.0150(3) 0.0087(2) 0.00175(17) 0.00460(19) 0.00206(19)
Zn02 0.0308(3) 0.0159(3) 0.0083(2) 0.00198(17) 0.00443(19) 0.0003(2)
O003 0.039(2) 0.0123(15) 0.0129(14) 0.0006(11) 0.0013(12) -0.0009(13)
O004 0.043(2) 0.0162(16) 0.0111(14) 0.0023(11) 0.0012(13) 0.0024(13)
O005 0.0266(18) 0.0237(16) 0.0187(15) 0.0041(12) 0.0064(12) 0.0048(13)
O006 0.0333(18) 0.0128(15) 0.0138(13) -0.0025(11) 0.0007(12) -0.0019(13)
O007 0.0376(19) 0.0149(15) 0.0131(14) -0.0016(11) 0.0018(12) -0.0012(13)
O008 0.0261(18) 0.0247(17) 0.0219(16) 0.0038(12) 0.0064(13) -0.0007(13)
O009 0.057(2) 0.0210(16) 0.0136(15) 0.0035(12) 0.0148(14) -0.0020(15)
O00A 0.049(2) 0.0224(17) 0.0124(14) 0.0024(12) 0.0121(13) 0.0051(15)
C00B 0.031(2) 0.017(2) 0.0088(18) -0.0009(15) 0.0081(16) -0.0029(18)
C00C 0.031(2) 0.018(2) 0.0073(17) 0.0029(15) 0.0060(16) 0.0002(18)
C00D 0.042(3) 0.014(2) 0.0066(17) -0.0007(15) 0.0046(17) -0.0008(19)
C00E 0.028(2) 0.014(2) 0.0153(19) -0.0029(16) 0.0035(16) -0.0030(17)
C00F 0.034(3) 0.020(2) 0.0088(18) -0.0029(16) 0.0025(16) 0.0006(19)
C00G 0.032(3) 0.013(2) 0.0134(19) -0.0014(15) 0.0002(16) 0.0001(17)
C00H 0.031(2) 0.020(2) 0.0108(18) -0.0025(16) 0.0013(16) -0.0012(18)
F00I 0.052(3) 0.056(3) 0.023(2) 0.020(2) 0.007(2) 0.024(3)
F00J 0.053(3) 0.056(3) 0.043(3) 0.027(3) 0.032(2) 0.011(3)
C00K 0.040(3) 0.026(2) 0.015(2) 0.0031(18) 0.0051(18) 0.003(2)
C00L 0.032(3) 0.016(2) 0.0142(19) -0.0002(16) 0.0046(17) -0.0016(18)
F00M 0.045(3) 0.064(4) 0.045(3) 0.026(3) 0.020(2) -0.008(3)
C00N 0.043(3) 0.029(3) 0.019(2) 0.0035(19) -0.0031(19) -0.002(2)
C00O 0.043(3) 0.025(2) 0.022(2) 0.0043(19) 0.013(2) -0.002(2)
C00P 0.030(3) 0.033(3) 0.036(3) 0.002(2) 0.002(2) 0.007(2)
F00Q 0.062(4) 0.058(4) 0.041(3) 0.031(3) -0.013(3) 0.001(3)
C00R 0.030(3) 0.035(3) 0.048(3) 0.007(2) 0.018(2) 0.006(2)
C00S 0.037(3) 0.030(3) 0.028(2) 0.005(2) 0.008(2) -0.001(2)
F00T 0.041(3) 0.055(4) 0.060(3) 0.019(3) 0.009(2) 0.022(3)
C00U 0.033(3) 0.037(3) 0.046(3) 0.007(2) -0.009(2) 0.005(2)
C00V 0.031(3) 0.038(3) 0.052(3) 0.005(3) 0.006(2) 0.000(2)
F00W 0.045(4) 0.060(4) 0.092(5) 0.023(3) -0.025(3) 0.012(3)
F00X 0.032(3) 0.070(4) 0.089(5) 0.008(4) 0.008(3) -0.003(3)
F00Y 0.049(4) 0.085(5) 0.073(4) 0.034(4) 0.040(3) 0.026(3)
loop_
_atom_type_symbol
_atom_type_description
_atom_type_scat_dispersion_real
_atom_type_scat_dispersion_imag
_atom_type_scat_source
C C 0.0033 0.0016 'International Tables Vol C Tables 4.2.6.8 and 6.1.1.4'
H H 0.0000 0.0000 'International Tables Vol C Tables 4.2.6.8 and 6.1.1.4'
F F 0.0171 0.0103 'International Tables Vol C Tables 4.2.6.8 and 6.1.1.4'
O O 0.0106 0.0060 'International Tables Vol C Tables 4.2.6.8 and 6.1.1.4'
Zn Zn 0.2839 1.4301 'International Tables Vol C Tables 4.2.6.8 and 6.1.1.4'
loop_
_exptl_crystal_face_index_h
_exptl_crystal_face_index_k
_exptl_crystal_face_index_l
_exptl_crystal_face_perp_dist
-1 -2 0 0.3688
1 2 1 0.2007
1 0 -2 0.0110
1 0 0 0.0137
-1 0 0 0.0003
-1 0 2 0.0472
loop_
_geom_angle_atom_site_label_1
_geom_angle_atom_site_label_2
_geom_angle_atom_site_label_3
_geom_angle
_geom_angle_site_symmetry_1
_geom_angle_site_symmetry_3
_geom_angle_publ_flag
O005 Zn01 O006 103.29(13) . 2_655 ?
O005 Zn01 O007 112.38(13) . 2_645 ?
O005 Zn01 O009 126.73(14) . . ?
O006 Zn01 O007 108.22(12) 2_655 2_645 ?
O009 Zn01 O006 103.65(13) . 2_655 ?
O009 Zn01 O007 101.37(14) . 2_645 ?
O004 Zn02 O003 106.59(13) 3_656 3_666 ?
O008 Zn02 O003 109.26(14) . 3_666 ?
O008 Zn02 O004 110.61(13) . 3_656 ?
O008 Zn02 O00A 120.29(14) . . ?
O00A Zn02 O003 101.95(13) . 3_666 ?
O00A Zn02 O004 107.10(14) . 3_656 ?
C00C O003 Zn02 134.5(3) . 3_666 ?
C00C O004 Zn02 118.0(3) . 3_656 ?
C00F O005 Zn01 131.5(3) . . ?
C00B O006 Zn01 131.0(3) . 2_645 ?
C00B O007 Zn01 116.7(3) . 2_655 ?
C00D O008 Zn02 125.1(3) . . ?
C00D O009 Zn01 139.4(3) . . ?
C00F O00A Zn02 133.7(3) . . ?
O006 C00B C00E 119.9(4) . . ?
O007 C00B O006 122.9(4) . . ?
O007 C00B C00E 116.8(4) . . ?
O003 C00C C00L 121.9(4) . . ?
O004 C00C O003 122.8(4) . . ?
O004 C00C C00L 115.0(4) . . ?
O008 C00D O009 125.2(5) . . ?
O008 C00D C00G 116.6(4) . . ?
O009 C00D C00G 118.1(4) . . ?
C00H C00E C00B 124.3(4) . . ?
C00O C00E C00B 116.2(4) . . ?
C00O C00E C00H 119.4(4) . . ?
O005 C00F C00H 116.2(4) . . ?
O00A C00F O005 126.0(4) . . ?
O00A C00F C00H 117.8(4) . . ?
C00L C00G C00D 120.7(4) . . ?
C00N C00G C00D 121.3(4) . . ?
C00N C00G C00L 118.0(4) . . ?
C00E C00H C00F 120.7(4) . . ?
C00K C00H C00E 118.5(4) . . ?
C00K C00H C00F 120.8(4) . . ?
F00I C00K C00H 122.7(5) . . ?
F00I C00K C00P 116.6(5) . . ?
C00P C00K C00H 120.7(4) . . ?
C00G C00L C00C 124.9(4) . . ?
C00S C00L C00C 115.6(4) . . ?
C00S C00L C00G 119.5(4) . . ?
F00Q C00N C00G 120.6(5) . . ?
F00Q C00N C00U 117.8(5) . . ?
C00U C00N C00G 121.6(5) . . ?
F00J C00O C00E 118.6(5) . . ?
F00J C00O C00R 119.7(5) . . ?
C00R C00O C00E 121.7(4) . . ?
C00K C00P C00R 120.6(5) . . ?
F00T C00P C00K 120.4(5) . . ?
F00T C00P C00R 119.1(5) . . ?
C00O C00R C00P 119.1(5) . . ?
F00Y C00R C00O 119.6(5) . . ?
F00Y C00R C00P 121.3(5) . . ?
F00M C00S C00L 119.1(5) . . ?
F00M C00S C00V 119.1(5) . . ?
C00V C00S C00L 121.7(5) . . ?
C00N C00U C00V 119.8(5) . . ?
F00W C00U C00N 119.3(6) . . ?
F00W C00U C00V 120.9(6) . . ?
C00S C00V C00U 119.4(5) . . ?
F00X C00V C00S 120.3(6) . . ?
F00X C00V C00U 120.2(6) . . ?
loop_
_geom_bond_atom_site_label_1
_geom_bond_atom_site_label_2
_geom_bond_distance
_geom_bond_site_symmetry_2
_geom_bond_publ_flag
Zn01 O005 1.927(3) . ?
Zn01 O006 1.961(3) 2_655 ?
Zn01 O007 1.964(3) 2_645 ?
Zn01 O009 1.938(3) . ?
Zn02 O003 1.960(3) 3_666 ?
Zn02 O004 1.947(3) 3_656 ?
Zn02 O008 1.928(3) . ?
Zn02 O00A 1.935(3) . ?
O003 C00C 1.260(5) . ?
O004 C00C 1.255(5) . ?
O005 C00F 1.257(5) . ?
O006 C00B 1.261(5) . ?
O007 C00B 1.255(5) . ?
O008 C00D 1.253(5) . ?
O009 C00D 1.266(5) . ?
O00A C00F 1.252(5) . ?
C00B C00E 1.508(6) . ?
C00C C00L 1.513(6) . ?
C00D C00G 1.486(6) . ?
C00E C00H 1.406(6) . ?
C00E C00O 1.381(6) . ?
C00F C00H 1.491(6) . ?
C00G C00L 1.405(6) . ?
C00G C00N 1.397(7) . ?
C00H C00K 1.397(7) . ?
F00I C00K 1.323(6) . ?
F00J C00O 1.342(6) . ?
C00K C00P 1.378(7) . ?
C00L C00S 1.378(7) . ?
F00M C00S 1.326(7) . ?
C00N F00Q 1.341(7) . ?
C00N C00U 1.372(8) . ?
C00O C00R 1.374(7) . ?
C00P C00R 1.380(8) . ?
C00P F00T 1.324(7) . ?
C00R F00Y 1.319(7) . ?
C00S C00V 1.372(8) . ?
C00U C00V 1.382(8) . ?
C00U F00W 1.310(7) . ?
C00V F00X 1.307(8) . ?
loop_
_refln_index_h
_refln_index_k
_refln_index_l
_refln_F_squared_meas
_refln_F_squared_sigma
0 0 3 0.11 0.41
0 0 -3 0.33 0.44
0 0 3 -0.13 0.42
0 0 -3 0.24 0.42
0 0 3 0.78 0.49
0 0 4 363.23 12.53
0 0 4 382.44 12.69
0 0 -4 365 12.69
0 0 4 368.4 12.67
0 0 -4 370.36 12.71
0 0 5 0.16 0.7
0 0 5 -0.04 0.68
0 0 -5 -0.13 0.84
0 0 5 0.21 0.79
0 0 -5 0.18 0.66
0 0 -6 95.54 4.09
0 0 6 102.43 4.1
0 0 6 100.57 3.91
0 0 6 100.93 4.09
0 0 -6 97.94 4.12
0 0 7 0.39 0.92
0 0 -7 0.12 1.1
0 0 7 -0.06 0.87
0 0 7 0.06 0.98
0 0 -7 0.71 0.91
0 0 8 2373.64 79.86
0 0 8 2417.78 80.12
0 0 -8 2420.09 80.21
0 0 -8 2427.73 80.28
0 0 9 0.83 1.01
0 0 -9 0.56 1.3
0 0 -9 0.69 1.02
0 0 9 0.58 1.17
0 0 10 184.61 7.17
0 0 10 199.11 7.53
0 0 -10 182.72 7.62
0 0 -10 188.78 7.69
0 0 11 -0.67 0.99
0 0 -11 1.3 1.36
0 0 -11 -0.99 1.22
0 0 11 1.14 1.29
0 0 12 127.4 5.21
0 0 12 119.35 5.45
0 0 -12 122.28 5.82
0 0 -12 115.24 5.67
0 0 13 0.08 1.07
0 0 -13 0.47 1.57
0 0 -13 1.71 1.43
0 0 13 -0.3 1.29
0 0 -14 955.47 32.87
0 0 14 942.59 32.3
0 0 14 918.05 31.89
0 0 -14 913.08 32.61
0 0 -15 2.33 0.96
0 0 15 1.25 1.31
0 0 -15 2.33 1.86
0 0 -15 1.25 1.75
0 0 15 1.14 1.56
0 0 16 3945.7 126.48
0 0 -16 3806.54 125.49
0 0 -16 3724.9 127.18
0 0 -16 3815.88 126.89
0 0 16 3659.35 125.97
0 0 17 0.5 1.31
0 0 -17 0.37 1.94
0 0 -17 1.65 1.1
0 0 -18 354.72 14.67
0 0 -18 357.65 12.79
0 0 18 349.36 13.29
0 0 -19 0.42 2.03
0 0 19 -0.65 1.51
0 0 -20 137.35 7.57
0 0 20 137.91 6.26
0 0 -21 1.9 2.45
0 0 21 0.59 1.48
0 0 -22 138.85 7.82
0 0 22 120.21 5.94
0 0 -23 1.89 2.92
0 0 23 1.26 1.77
0 0 -24 584.64 22.79
0 0 24 543.68 20.28
0 0 -25 0.3 3.18
0 0 25 2.92 1.89
0 0 26 40.06 3.35
0 0 -26 41.04 5.13
0 0 -27 -2.63 3.57
0 0 27 0.69 1.92
0 0 28 27.1 2.94
0 0 -28 33.72 5.11
0 0 -29 -5.15 4.26
0 0 29 -1.15 2.15
0 0 -30 7.39 4.42
0 0 30 10.45 2.51
0 0 -31 0.41 4.51
0 1 0 0.11 0.73
0 1 -1 1416.03 47.94
0 -1 -1 1456.06 47.69
0 -1 2 315.31 10.31
0 1 -2 311.29 10.37
0 -1 -2 282.9 10.31
0 1 -2 287.02 10.68
0 -1 -2 321.98 10.26
0 1 -2 308.12 10.39
0 -1 -2 296.66 10.34
0 -1 -3 534.79 18.7
0 1 -3 553.9 18.74
0 1 -3 567.56 18.74
0 -1 -3 563.22 18.7
0 1 -3 569.2 19.04
0 1 3 547.25 18.62
0 -1 3 558.96 18.65
0 -1 4 2205.22 71.8
0 1 -4 2214.06 71.77
0 -1 -4 2142.64 71.72
0 1 -4 2184.99 71.74
0 -1 -4 2165.78 71.7
0 1 -4 2060.25 71.94
0 -1 4 2131 71.93
0 -1 4 2166.81 71.64
0 1 4 2173.51 71.62
0 -1 5 1048.11 33.99
0 1 -5 971.6 34
0 -1 -5 1026.37 34.04
0 -1 -5 981.26 33.96
0 1 -5 979.55 33.99
0 1 -5 1042.48 34.24
0 -1 5 1095.94 34.26
0 1 5 1018.86 33.89
0 -1 5 974.76 33.88
0 -1 6 842.25 28.26
0 1 -6 873.05 28.32
0 -1 -6 839.41 28.45
0 1 -6 816.97 28.43
0 -1 -6 804.5 28.35
0 1 -6 846.3 28.42
0 -1 6 896 28.58
0 1 6 835.3 28.27
0 -1 6 790.34 28.24
0 1 -7 1657.89 53.91
0 -1 -7 1576.88 54.12
0 1 -7 1545.18 54.13
0 -1 -7 1659.57 54.12
0 1 -7 1563.94 54.06
0 -1 7 1730.18 54.23
0 1 7 1585.26 53.94
0 -1 7 1600.89 53.97
0 1 8 15.82 1.58
0 -1 8 16.48 1.61
0 1 -8 20 1.59
0 -1 -8 12.19 1.58
0 1 -8 15.53 1.67
0 1 -8 15.04 1.74
0 -1 -8 11.94 1.66
0 -1 8 21.01 1.82
0 1 8 12.83 0.9
0 1 9 681.26 23.58
0 -1 9 706.56 23.62
0 1 -9 683.12 23.42
0 1 -9 697.2 23.9
0 -1 -9 667.84 23.86
0 -1 -9 651.76 23.75
0 1 -9 691.46 23.79
0 -1 9 723.84 23.84
0 1 9 671.08 22.81
0 -1 10 147.61 6.13
0 1 10 148.78 6.13
0 1 -10 151.33 5.93
0 -1 -10 144.18 6.4
0 1 -10 147.88 6.41
0 -1 -10 144.15 6.37
0 1 -10 151.82 6.34
0 -1 10 160.31 6.33
0 1 10 145.15 5.35
0 -1 11 54.06 3.03
0 1 11 54.61 3.04
0 1 -11 48.64 2.69
0 1 -11 51.07 3.16
0 -1 -11 47.43 3.14
0 -1 -11 48.24 3.19
0 1 -11 48.62 3.08
0 -1 11 54.15 3.07
0 1 11 47.75 2.22
0 -1 12 1317.57 44.66
0 1 12 1273.89 44.63
0 1 -12 1353.35 44.37
0 -1 -12 1271.61 45.1
0 1 -12 1367.66 45.22
0 -1 -12 1190.13 44.83
0 1 -12 1339.54 45.02
0 -1 12 1433.75 44.94
0 1 12 1301.28 43.83
0 -1 13 22.2 2.21
0 1 13 22.75 2.15
0 1 -13 22.08 1.87
0 -1 -13 19.04 2.35
0 1 -13 22.6 2.34
0 -1 -13 19.93 2.36
0 1 -13 23.09 2.35
0 -1 13 22.06 2.22
0 1 13 22.97 1.52
0 -1 14 74.9 4.07
0 1 14 79.36 4.21
0 1 -14 73.05 4.33
0 -1 -14 66.72 4.29
0 1 -14 72.76 3.71
0 1 -14 84.11 4.65
0 -1 -14 68.11 4.4
0 -1 14 77.61 4.13
0 1 14 75.12 3.31
0 1 -15 2.8 1.43
0 -1 -15 0.84 1.81
0 1 -15 1.37 1.77
0 1 -15 3.53 1.51
0 -1 -15 -0.16 1.8
0 1 15 1.14 1.43
0 -1 15 3.48 1.66
0 1 -15 3.7 1.8
0 -1 15 3.39 1.47
0 1 15 2.42 1.06
0 1 -16 234.05 8.4
0 -1 -16 227.51 8.49
0 -1 16 190.52 8.21
0 1 16 182.18 8.23
0 -1 -16 196.82 8.97
0 1 -16 185.3 8.75
0 1 -16 189.08 7.76
0 -1 -16 167.2 8.6
0 1 -16 173.14 8.51
0 1 16 186.89 7.31
0 -1 16 197.2 8.3
0 1 17 780.28 26.25
0 -1 17 750.3 27.19
0 1 -17 751.74 26.71
0 -1 -17 777.07 28.24
0 1 -17 769.47 28.05
0 -1 18 23.69 2.6
0 1 18 23.4 1.92
0 -1 -18 18.43 2.99
0 1 -18 19.75 2.98
0 1 19 17.19 1.76
0 -1 19 18.08 2.48
0 1 -19 14.62 2.76
0 -1 -19 16.92 3.07
0 -1 20 737.15 26.87
0 1 20 757.66 25.9
0 -1 -20 751.83 28.24
0 1 -20 743.18 28.04
0 1 21 6.18 1.57
0 -1 21 8.5 2.28
0 1 -21 5.7 2.76
0 -1 -21 2.23 2.76
0 -1 22 149.29 7.55
0 1 22 171.34 6.82
0 -1 -22 172.65 9.22
0 1 -22 164.36 8.9
0 1 23 27.5 2.38
0 -1 23 32.65 3.24
0 1 -23 29.85 4.09
0 -1 -23 26.33 4.23
0 -1 24 178.49 8.54
0 1 -24 196.66 10.19
0 -1 -24 193.25 10.45
0 -1 25 217.5 9.83
0 1 -25 220.61 11.43
0 -1 -25 244.87 12
0 -1 26 104.76 6.05
0 -1 -26 125.75 8.18
0 1 -26 110.14 7.56
0 -1 27 9.12 2.56
0 1 -27 4.87 3.61
0 -1 -27 6.17 3.99
0 -1 28 224.97 10.24
0 -1 -28 248.71 13.1
0 1 -28 240.84 12.62
0 -1 29 6.69 2.78
0 1 -29 5.82 4.09
0 -1 -29 11.89 4.55
0 -1 30 353.49 15.09
0 -1 -30 415.69 18.86
0 1 -30 407 18.33
0 -1 31 6.91 2.87
0 -1 -31 3.44 4.84
0 1 -31 2.04 4.76
0 -2 0 959.32 32.36
0 -2 -1 387.16 13.37
0 -2 1 382.71 13.6
0 -2 2 62.75 3.11
0 -2 -2 62.33 2.68
0 -2 3 1141.19 37.47
0 -2 -3 1214.11 36.81
0 2 -3 1078.72 36.56
0 -2 -3 1098.8 36.58
0 -2 -3 1079.04 36.72
0 2 -3 1074.51 36.77
0 -2 -4 80.52 2.49
0 -2 4 53.68 2.42
0 2 -4 90.06 2.5
0 -2 4 54.32 3.13
0 -2 5 3004.63 98.88
0 2 -5 2943.36 97.97
0 -2 -5 3004.75 98
0 -2 -5 2887.62 98.27
0 2 -5 3015.55 98.39
0 2 -6 854.96 27.53
0 -2 -6 862.3 27.45
0 -2 6 797.25 27.7
0 -2 -6 787.61 27
0 2 -6 769.82 26.95
0 -2 7 7.33 1.35
0 2 -7 5.09 1.24
0 -2 -7 5.67 1.24
0 2 -7 5.6 0.9
0 -2 -7 5.16 0.99
0 -2 8 350.97 13.92
0 2 -8 393.33 13.41
0 -2 -8 404.68 13.5
0 -2 -8 369.93 13.92
0 2 -8 388.63 14.05
0 -2 9 94.92 4.49
0 -2 -9 98.3 4.14
0 2 -9 95.55 4.06
0 -2 -9 100.13 4.66
0 2 -9 105.26 4.78
0 -2 -10 30.34 2.07
0 2 -10 34.5 2.05
0 2 -10 26.67 2.5
0 -2 -10 26.74 2.38
0 -2 -10 23.94 2.34
0 -2 11 1343.41 44.1
0 -2 -11 1276.03 43.96
0 2 -11 1308.49 44.04
0 -2 -11 1284.86 43.21
0 2 -11 1231.92 43.09
0 -2 -11 1290.22 43.88
0 2 -12 96.67 4.43
0 -2 -12 92.69 4.47
0 2 -12 102.91 3.75
0 -2 12 111.82 5.3
0 2 -12 105.82 5.27
0 -2 -12 94.91 5.1
0 -2 -12 97.08 5.1
0 -2 -13 1136.4 37.58
0 2 -13 1117.36 37.55
0 -2 13 1179.84 37.48
0 -2 -13 1046.77 36.48
0 2 -13 1076.02 36.44
0 2 -13 1032.23 35.68
0 -2 -14 240.05 9.27
0 2 -14 230.18 9.12
0 -2 14 262.07 10.11
0 -2 -14 236.53 10.16
0 2 -14 225.94 10.04
0 2 -15 30.6 2.52
0 -2 -15 32.36 2.59
0 -2 -15 35.17 3.29
0 2 -15 38.12 3.32
0 -2 15 33.51 3.08
0 2 -16 283.15 11.96
0 -2 -16 254.88 11.82
0 -2 -16 300.24 10.95
0 2 -16 316.19 11.03
0 -2 16 299.15 11.69
0 -2 16 244.4 10.53
0 2 -17 38 3.58
0 -2 -17 36.35 3.76
0 -2 17 40.74 3.53
0 -2 17 35.49 2.53
0 2 -18 23.9 3.08
0 -2 -18 27.63 3.46
0 -2 18 28.6 3.14
0 -2 -19 113.2 6.82
0 2 -19 101.69 6.44
0 -2 19 123.99 6.27
0 2 -20 102.18 6.43
0 -2 -20 102.34 6.58
0 -2 20 99.22 5.68
0 -2 -21 475.93 19.24
0 2 -21 473.9 19.01
0 -2 21 452.68 17.9
0 -2 -22 163.43 9.17
0 2 -22 169.37 8.95
0 -2 22 166.9 8.14
0 -2 -23 5.62 3.24
0 2 -23 5.6 2.91
0 -2 23 5.14 2.49
0 -2 -24 21.76 4.38
0 2 -24 25.93 4.13
0 -2 24 29.28 3.51
0 -2 -25 24.34 4.45
0 2 -25 18.17 3.85
0 -2 25 21.97 3.16
0 2 -26 14.76 3.89
0 -2 -26 14.7 4.33
0 -2 26 12.45 2.9
0 -2 -27 29.53 5.2
0 2 -27 34.73 4.94
0 -2 27 31.4 3.68
0 -2 28 86.06 5.88
0 2 -28 100.28 7.89
0 -2 -28 102.4 8.25
0 -2 29 309.38 13.47
0 -2 -29 321.66 16.19
0 2 -29 322.91 15.78
0 -3 0 -0.22 1.1
0 -3 -1 409.4 14.22
0 -3 1 388.46 14.39
0 -3 2 393.29 14.51
0 -3 -2 404.48 14.1
0 -3 3 263.06 10.74
0 -3 -3 297.02 10.2
0 -3 4 45.01 2.89
0 -3 4 32.28 2.19
0 -3 5 1.63 1.43
0 3 -5 0.99 0.71
0 -3 -5 1.36 0.66
0 -3 5 0.47 1.13
0 -3 6 334.49 12.06
0 3 -6 307.19 10.62
0 -3 -6 302 10.63
0 3 -7 83.12 3.87
0 -3 7 80.2 4.36
0 3 -7 81.99 3.35
0 -3 -7 79.66 3.38
0 -3 7 91.14 4.61
0 -3 8 7.19 1.88
0 3 -8 4.08 1.59
0 -3 -8 3.49 1.45
0 -3 8 8.29 2.08
0 3 -8 16.28 1.39
0 -3 -8 14.76 1.46
0 -3 9 1159.2 37.17
0 -3 9 1019.6 36.75
0 -3 -9 1093.44 36.37
0 3 -9 1056.44 36.41
0 3 -9 1031.07 35.63
0 -3 -9 1058.65 35.7
0 -3 10 803.92 26.7
0 -3 -10 748.93 26.08
0 3 -10 758.9 26.18
0 -3 10 690.07 26.2
0 -3 -10 718.06 25.26
0 3 -10 748.95 25.24
0 3 -11 3.37 1.26
0 -3 -11 0.96 1.3
0 -3 11 2.34 2.02
0 -3 11 1.62 1.7
0 -3 -11 3.34 1.8
0 3 -11 1.39 1.74
0 -3 12 138.14 6.84
0 -3 12 113.24 6.21
0 3 -12 164.9 5.81
0 -3 -12 153.45 5.87
0 3 -12 117.94 6.47
0 -3 -12 109.72 6.32
0 3 -13 194.06 7.95
0 -3 -13 213.04 8.11
0 3 -13 220.35 9.3
0 -3 -13 210.85 9.14
0 3 -14 259.45 9.94
0 3 -14 285.25 11.38
0 -3 -14 256.54 11.05
0 -3 -14 260.22 10.02
0 3 -15 99.47 5.8
0 -3 -15 94.24 5.73
0 -3 -15 97.03 4.66
0 3 -15 97.18 4.6
0 3 -16 31.33 3.62
0 -3 -16 31.11 3.58
0 3 -16 32.66 2.73
0 -3 -16 34.77 2.75
0 -3 17 659.15 23.92
0 -3 -17 603.47 24.07
0 3 -17 658.81 24.3
0 -3 -18 68.6 5.25
0 3 -18 73.5 5.3
0 -3 18 62.3 3.97
0 -3 18 75.45 4.96
0 3 -19 41.95 4.27
0 -3 19 38.05 2.97
0 -3 19 39.27 3.97
0 -3 -19 34.93 4.23
0 -3 20 3.88 2.54
0 -3 20 2.33 1.72
0 3 -20 0.48 2.73
0 -3 -20 0.95 2.98
0 -3 21 13.13 2.96
0 3 -21 13.63 3.45
0 -3 -21 8.03 3.53
0 -3 22 40.24 4.04
0 3 -22 28.21 4.1
0 -3 -22 39.79 4.77
0 -3 23 5.23 2.72
0 -3 -23 -1.11 3.4
0 3 -23 5.78 3.31
0 -3 -24 46.6 5.52
0 -3 24 49.5 4.5
0 3 -24 41.61 5.02
0 -3 -25 398.67 17.61
0 3 -25 369.86 17.14
0 -3 25 411.79 16.42
0 -3 -26 38.15 5.43
0 3 -26 38.15 4.94
0 -3 26 38.65 4.23
0 -3 27 4.91 2.85
0 -3 -27 5.5 4.18
0 3 -27 3.49 3.68
0 -4 0 134.99 5.93
0 -4 1 209.51 8.46
0 -4 2 189.92 7.92
0 -4 3 13.31 2.06
0 -4 3 17.46 2.25
0 -4 4 11.47 1.94
0 -4 4 10.63 2.04
0 -4 5 148.19 6.62
0 -4 5 133.6 5.56
0 -4 6 56.18 3.86
0 -4 7 319.94 13.79
0 -4 7 384.68 13.94
0 -4 8 146.1 7.49
0 -4 8 177.43 7.71
0 -4 9 171.27 8.26
0 -4 9 199.57 8.43
0 -4 -9 176.01 6.67
0 -4 10 10.14 2.52
0 -4 -10 10.6 1.61
0 -4 10 7.92 2.5
0 -4 11 2.51 2.17
0 -4 11 2.43 2.26
0 -4 -11 2.04 1.43
0 -4 12 60.45 4.56
0 -4 -12 72.99 3.7
0 -4 12 78.59 4.95
0 -4 13 274.23 12.32
0 -4 -13 313.77 11.43
0 -4 13 321.49 12.9
0 -4 -14 208.17 7.92
0 -4 14 190.22 9.07
0 -4 15 19.54 3.14
0 -4 15 18.4 2.83
0 -4 -15 22.61 2.65
0 4 -16 448.9 17.98
0 -4 16 477.64 18.37
0 4 -17 68.37 5.17
0 -4 -17 77.31 5.51
0 -4 17 76.68 5.44
0 -4 -18 88.65 6.24
0 -4 18 95.19 6.12
0 4 -18 91.32 6.05
0 -4 -19 45.95 4.99
0 -4 19 56.87 4.77
0 4 -19 50.7 4.9
0 -4 -20 46.31 4.97
0 -4 21 135.92 6.84
0 -4 -21 136.91 8.27
0 -4 22 74.16 4.84
0 -4 -22 79.66 6.38
0 -4 23 99.08 5.59
0 -4 -23 106.41 7.32
0 -5 0 0.74 2.44
0 -5 1 -0.53 2.44
0 -5 2 6.58 2.34
0 -5 3 316.42 12.05
0 -5 4 253.68 9.9
0 -5 4 222.72 9.05
0 -5 5 92.86 5.17
0 -5 6 33.52 3.35
0 -5 6 31.09 3.66
0 -5 7 55.24 4.08
0 -5 7 41.29 4.08
0 -5 8 0.39 2.54
0 -5 8 2.71 2.34
0 -5 9 -1.59 2.58
0 -5 9 -2 2.39
0 -5 10 4.56 2.79
0 -5 10 7.33 2.59
0 -5 11 214 9.47
0 -5 11 185.15 9.43
0 -5 12 137.4 7.18
0 -5 12 119.35 7.08
0 -5 13 49.78 4.45
0 -5 13 50.16 4.58
0 -5 14 71.02 5.17
0 -5 14 60.71 5.07
0 -5 15 49.56 4.63
0 -5 15 41.76 4.3
0 -5 16 4.09 2.95
0 -5 16 2.81 2.93
0 -5 17 0.97 2.69
0 -5 17 -0.22 2.94
1 0 -31 2 4.63
1 0 -30 10.38 4.71
1 0 -29 -2.2 4.05
1 0 -28 26.48 4.82
1 0 -27 -2.67 3.63
1 0 -26 381.53 16.91
-1 0 26 363.91 14.11
1 0 -25 0.3 3.16
-1 0 25 1.38 1.84
1 0 -24 535.49 21.25
-1 0 24 502.6 18.74
1 0 -23 -0.54 2.68
-1 0 23 2.12 1.72
1 0 -22 72.34 5.55
-1 0 22 70.36 4.03
1 0 -21 -1.17 2.49
-1 0 21 0.55 1.41
1 0 -20 862.87 29.75
-1 0 20 763.9 27.75
1 0 -19 -0.62 2.01
-1 0 19 0.2 1.45
1 0 -18 511.96 19.38
1 0 -18 500.94 17.54
-1 0 18 489.63 17.91
-1 0 17 2.56 1.34
1 0 -17 0.17 1.78
1 0 -16 3370.28 115.59
1 0 -16 3493.45 115.33
-1 0 16 3227.93 114.38
1 0 -15 0.28 1.47
-1 0 15 0.97 1.23
1 0 -15 0.52 1.61
1 0 -15 1.75 1.61
1 0 -14 177.86 8.09
1 0 -14 187.33 8.03
-1 0 14 186.74 7.35
1 0 -14 196.81 7.61
1 0 -13 -1.27 1.32
1 0 -13 -0.11 1.46
1 0 -13 0.75 1.32
-1 0 13 -0.42 1.05
1 0 -13 0.25 1.35
1 0 -12 155.34 5.92
-1 0 12 135.9 5.61
1 0 -12 134.89 6.19
1 0 -12 135.12 5.85
1 0 -12 140.54 6.3
1 0 -11 -0.09 1.29
1 0 -11 0.2 1.09
1 0 -11 0.26 1.16
-1 0 11 0.29 0.94
1 0 -11 -0.27 1.24
1 0 -10 1.45 1.24
1 0 -10 -0.09 1.07
1 0 -10 0.76 1.08
1 0 -10 1.01 1.12
-1 0 10 1 0.94
1 0 -9 0.79 1.22
1 0 -9 1.72 1.07
-1 0 9 0.76 0.86
1 0 -9 0.98 1.1
1 0 -9 -0.1 1.01
1 0 -8 8816.08 284.28
-1 0 8 8677.89 284.19
1 0 -8 8855.43 284.27
1 0 -8 7992 284.53
1 0 -7 0.53 0.92
1 0 -7 0.08 0.9
-1 0 7 -0.22 0.75
1 0 -7 0.37 0.92
-1 0 6 139.3 5.19
1 0 -6 144.12 5.49
1 0 -6 146.85 5.32
1 0 -5 1.24 0.78
-1 0 5 0.52 0.65
-1 0 5 0.25 0.57
1 0 -4 40.58 1.8
-1 0 4 40.67 1.83
-1 0 3 -0.44 0.49
1 0 -3 0.31 0.55
-1 0 2 0.05 0.19
1 0 -2 41.08 0.93
-1 0 -1 0.05 0.2
1 0 1 0.03 0.36
1 0 2 5.88 0.76
-1 0 -3 -0.01 0.29
1 0 3 -0.08 0.78
-1 0 -3 -0.4 0.65
-1 0 -4 8.92 1.05
1 0 4 8.88 1.15
-1 0 -4 9.59 0.59
1 0 5 -0.22 0.83
-1 0 -5 -0.24 0.91
1 0 5 -0.06 1.04
-1 0 -5 0.92 0.45
-1 0 -6 94.27 4.19
1 0 6 96.36 4.17
-1 0 -6 92.31 3.43
1 0 6 96.13 4.11
1 0 7 0.07 1.03
1 0 7 1.18 1.26
-1 0 -7 -0.4 0.97
-1 0 -7 0.66 0.57
-1 0 -8 1693.49 59.8
1 0 8 1807.5 59.61
-1 0 -8 1796.67 58.85
1 0 8 1762.88 59.65
1 0 9 0.96 1.09
1 0 9 1.41 1.35
-1 0 -9 -0.81 1.13
-1 0 -9 -0.03 0.62
-1 0 -10 17.25 1.16
1 0 10 12.38 1.57
1 0 10 14.9 1.7
-1 0 -10 10.92 1.73
1 0 10 15.39 1.84
-1 0 -11 0.61 1.35
1 0 11 0.48 1.34
1 0 11 0.15 1.19
1 0 11 0.21 1.11
-1 0 -11 0.12 0.71
-1 0 -12 62.51 2.68
1 0 12 55.81 3.18
1 0 12 61.07 3.47
1 0 12 57.09 3.42
-1 0 -12 51.67 3.57
-1 0 -13 0.14 1.51
1 0 13 0.43 1.52
1 0 13 0.69 1.21
1 0 13 0.36 1.31
-1 0 -13 0.39 0.83
-1 0 -14 158.5 5.93
1 0 14 154.65 6.53
1 0 14 153.88 6.91
1 0 14 151.28 6.78
-1 0 -14 138.43 7.13
1 0 15 0.12 1.53
-1 0 -15 -0.5 1.85
1 0 15 -0.29 1.25
1 0 15 -0.95 1.66
-1 0 -15 1.31 0.92
-1 0 -16 2070.53 69.23
1 0 16 2137.19 68.46
-1 0 -16 1985.97 67.26
1 0 16 1946.59 67.92
1 0 17 0.44 1.42
-1 0 -17 1.56 1.07
-1 0 -17 1.72 2.03
-1 0 -18 503.64 20.64
-1 0 -18 547.14 18.78
1 0 18 537.75 19.48
-1 0 -19 0.74 1.19
-1 0 -19 0.43 2.24
1 0 19 2.56 1.69
1 0 20 100 5.15
-1 0 -20 101.78 6.33
-1 0 -21 -0.48 2.59
1 0 21 0.25 1.68
1 0 22 249.32 10.22
-1 0 -22 245.69 11.9
-1 0 -23 2.72 2.89
1 0 23 1.33 1.88
1 0 24 256.2 10.75
-1 0 -24 281.56 13.05
-1 0 -25 2.14 3.29
1 0 25 -2.1 2.09
-1 0 -26 1.95 3.48
1 0 26 3.72 2.19
-1 0 -27 2.08 3.81
1 0 27 -0.88 2.17
-1 0 -28 -0.73 3.82
1 0 28 0.15 2.15
-1 0 -29 1.52 4.1
1 0 29 1.48 2.29
-1 0 -30 126.69 9.32
1 0 30 121.96 6.35
1 1 -31 6.28 4.73
1 -1 -31 18.09 5.44
1 -1 -30 333.15 16.34
1 1 -30 306.78 15.72
1 -1 -29 52.97 6.26
1 1 -29 45.83 5.94
-1 -1 29 46.16 3.96
-1 -1 28 130.17 7.03
1 1 -28 157.17 9.54
1 -1 -28 154.17 9.78
1 1 -27 2.96 3.44
1 -1 -27 6.56 3.97
-1 -1 27 5.24 2.36
1 -1 -26 8.46 3.79
1 1 -26 6.51 3.39
-1 -1 26 6.87 2.37
-1 -1 25 125.01 6.44
1 1 -25 123.72 8
1 -1 -25 129.23 8.3
-1 -1 24 121.49 6.29
1 1 -24 130.23 7.91
1 -1 -24 118.26 7.91
-1 -1 23 58.57 4.12
1 1 -23 57.32 5.23
1 -1 -23 63.64 5.5
-1 -1 22 258.91 10.94
1 -1 -22 275.95 12.69
1 1 -22 268.6 12.41
-1 -1 21 158.31 7.51
1 1 -21 168.11 8.78
1 -1 -21 169.16 8.91
-1 -1 20 397.07 15.52
1 -1 -20 423.3 16.96
1 1 -20 416.5 16.78
1 1 -19 5.21 2.23
1 -1 -19 3.97 2.29
-1 -1 19 4.03 1.89
-1 -1 18 43.42 3.2
1 1 -18 41.76 3.69
1 -1 -18 36.57 3.65
-1 -1 17 540.92 20.08
1 1 -17 567.95 20.96
1 -1 -17 562.57 21.15
1 1 -16 1332.28 46.28
1 -1 -16 1359.64 47.56
1 1 -16 1341.32 47.39
-1 -1 16 1312.57 46.63
1 1 -16 1450.03 46.51
1 -1 -16 1398.87 46.54
1 1 -16 1400.89 47.22
1 -1 -16 1313.6 47.19
1 1 -15 235.26 9.34
1 1 -15 240.16 10.2
1 -1 -15 235.28 10.23
-1 -1 15 241.37 9.68
1 1 -15 246.63 9.51
1 -1 -15 257.86 9.64
1 -1 -15 253.41 10.22
1 1 -15 247.51 10.05
1 1 -14 104.91 4.64
1 -1 -14 106.82 5.45
1 1 -14 103.2 5.29
-1 -1 14 100.9 4.87
1 -1 -14 108.82 5.35
1 1 -14 99.02 5.1
1 -1 -14 96.46 4.74
1 1 -14 106.36 4.7
1 -1 -13 127.65 5.49
1 1 -13 127.33 5.36
1 1 -13 125 5.35
1 -1 -13 121.77 5.98
1 1 -13 128.04 5.98
-1 -1 13 126.02 5.63
1 -1 -13 131.3 6.05
1 1 -13 127.79 5.85
1 1 -13 136.36 5.97
1 1 -12 1728.86 56.63
1 -1 -12 1647.47 57.29
1 1 -12 1721.27 57.3
1 -1 -12 1721.72 56.68
1 1 -12 1689.09 56.59
1 -1 -12 1527.77 57
1 1 -12 1730.71 57.14
-1 -1 12 1714.83 56.94
-1 -1 11 62.35 3.31
1 -1 -11 58.44 3.12
1 1 -11 62.91 3.1
1 -1 -11 61 3.48
1 1 -11 69.52 3.51
1 1 -11 63.3 3.13
1 1 -11 64.87 3.52
1 -1 -11 62.36 3.53
1 -1 -10 197.64 8.47
1 1 -10 220.58 8.56
-1 -1 10 227.4 8.45
1 -1 -10 194.14 8.42
1 1 -10 236.89 8.58
1 1 -10 227.75 8.15
1 -1 -10 218.52 8.16
1 -1 -10 219.15 7.79
1 1 -10 221.63 8.21
1 -1 -9 852.87 28.41
1 1 -9 800.16 28.28
-1 -1 9 875.63 28.28
1 1 -9 795.13 28.19
1 -1 -9 833.56 28.3
1 -1 -9 789.45 27.9
1 1 -9 813.06 27.88
1 -1 -9 797.12 27.53
1 1 -9 867.62 28.07
-1 -1 9 855.3 27.89
1 1 -8 298.66 11.75
1 -1 -8 312.61 11.84
-1 -1 8 345.38 11.86
1 -1 -8 317.88 11.77
1 1 -8 322.04 11.77
1 1 -8 357.78 11.68
-1 -1 8 337.42 11.51
1 1 -8 347.68 12
1 -1 -8 296.8 11.06
1 -1 -8 350.33 11.58
1 1 -8 349.37 11.54
1 1 -7 799.33 26.54
1 -1 -7 803.9 26.6
1 -1 -7 751 26.12
-1 -1 7 846.44 26.91
-1 -1 7 800.26 26.61
1 1 -7 830.33 26.74
1 1 -7 809.54 26.98
1 -1 -7 759.08 26.83
1 1 -7 774.63 26.82
1 -1 -6 3.34 0.89
1 1 -6 3.15 0.88
1 1 -6 6.7 0.96
-1 -1 6 1.19 0.74
1 1 -6 2.58 0.94
1 -1 -6 0.62 0.9
1 1 -6 1.57 0.87
1 1 -6 3.25 1.24
-1 -1 6 2.7 0.94
1 1 -5 1.72 0.74
1 -1 -5 2.17 0.81
1 -1 -5 1.4 0.77
1 1 -5 0.86 0.77
1 1 -5 1.42 1.2
-1 -1 5 1.85 0.93
1 1 -5 4 0.99
1 1 -5 2.73 0.86
-1 -1 5 1.78 0.74
-1 1 4 111.43 4.55
-1 -1 4 119.43 4.59
1 1 -4 131.44 4.65
1 -1 -4 123.79 4.64
1 1 -4 141.38 4.79
-1 -1 4 145.75 4.63
1 1 -4 118.95 4.96
-1 -1 4 123.75 4.81
1 -1 -3 167.41 6.07
1 1 -3 172.17 6.07
1 1 -3 174.51 6.19
-1 1 3 165.15 6.03
-1 -1 3 174.39 6.06
-1 -1 3 195.06 6.19
-1 -1 3 166.7 6.28
1 1 -3 174.29 6.4
-1 -1 2 787.17 25.68
-1 1 2 747.8 25.37
-1 -1 2 790.53 25.4
1 1 -2 788.59 25.44
1 -1 -2 743.8 25.41
1 1 -2 723.4 25.67
-1 -1 1 375.99 13.66
1 1 -1 408.21 13.58
-1 1 1 397.18 13.3
-1 -1 1 402.38 13.32
1 1 0 370.2 12.57
1 1 1 920.71 30.56
1 1 2 50.71 2.13
1 -1 2 41.33 2.07
-1 1 -3 1522.38 51.21
-1 -1 -3 1549.84 51.19
1 1 3 1565.18 51.16
1 -1 3 1514.17 51.15
1 -1 4 5793.7 190.13
1 1 4 5396.15 190.09
-1 -1 -4 5911.62 190.21
-1 1 -4 5744.35 190.22
1 -1 4 5705.98 190.15
1 1 4 6089.8 190.2
-1 1 -5 145.51 4.77
1 1 5 129.42 5.17
1 -1 5 126.28 5.17
-1 1 -5 131.58 5.34
1 1 5 128.43 5.18
1 -1 5 123.8 5.16
-1 -1 -5 116.28 5.2
-1 -1 -6 644.74 22.92
-1 1 -6 682.1 23.02
1 1 6 665.62 22.81
1 -1 6 637.24 22.78
1 -1 6 650.73 22.86
1 1 6 667.9 22.84
1 -1 6 713.7 23.12
-1 1 -7 18.6 1.82
-1 -1 -7 17.57 1.78
1 1 7 20.47 1.74
1 -1 7 21.65 1.77
1 -1 7 23.12 2.01
1 -1 7 19.79 1.68
1 1 7 23.28 1.78
1 1 8 526.12 18.06
1 -1 8 494.91 17.97
-1 -1 -8 503.77 18.21
-1 1 -8 530.78 18.33
-1 1 -8 519.41 17.77
1 -1 8 552.28 18.32
1 -1 8 494.06 18.08
1 1 8 481.86 18
-1 1 -9 1204.61 39.8
-1 -1 -9 1146.51 39.66
1 1 9 1213.27 39.44
1 -1 9 1087.84 39.31
-1 1 -9 1159.59 39.05
1 -1 9 1149.7 38.92
1 -1 9 1234.27 39.65
1 1 9 1161.85 39.45
1 -1 9 1102.88 39.36
-1 1 -10 174.5 7.2
-1 -1 -10 157.29 7.02
1 -1 10 158.21 6.71
1 1 10 166.37 6.79
-1 1 -10 168.37 6.47
1 -1 10 166.3 6.28
1 1 10 158 6.06
1 -1 10 176.39 7.1
1 -1 10 157.34 6.78
1 1 10 165.41 6.83
-1 1 -11 174.46 7.38
-1 -1 -11 175.98 7.37
1 -1 11 163.22 6.89
1 1 11 169.18 6.95
1 -1 11 171.86 6.38
-1 1 -11 172.06 6.59
1 1 11 151.82 6.16
1 -1 11 182.07 7.15
1 1 11 158.63 6.92
1 -1 11 157.36 6.92
-1 1 -12 2688 88.63
-1 -1 -12 2648.14 88.64
1 1 12 2674.26 88.09
1 -1 12 2615.89 88.01
-1 1 -12 2674.09 87.6
1 -1 12 2635.12 87.34
1 -1 12 2773.84 88.24
1 1 12 2494.84 87.2
1 -1 12 2636.73 88.14
1 1 12 2605.9 88.14
-1 1 -13 82.25 4.73
-1 -1 -13 85.99 4.78
1 -1 13 78.65 4.35
1 1 13 84.71 4.43
-1 1 -13 81.59 3.89
1 1 13 86.67 4.38
1 -1 13 74.72 4.27
1 1 13 80.78 3.6
1 -1 13 81.94 4.45
-1 1 -14 20.36 2.49
-1 -1 -14 18.73 2.49
1 1 14 20.62 2.25
-1 1 -14 18.15 1.8
1 1 14 17.5 1.59
1 -1 14 22.7 2.34
1 -1 14 19.92 2.26
-1 1 -15 44.13 2.82
1 -1 15 47.73 3.31
1 1 15 40.6 2.46
1 1 15 43.15 3.14
1 -1 15 46.75 3.3
-1 1 -15 44.64 3.56
-1 -1 -15 46.73 3.73
-1 1 -16 19.13 1.99
1 1 16 16.11 1.66
-1 1 -16 12.3 2.41
-1 -1 -16 18.08 2.66
1 -1 16 18.2 2.41
1 1 16 16.01 2.31
1 -1 16 20.35 2.52
1 1 17 738.4 25.37
-1 1 -17 745.63 27.22
-1 -1 -17 749.85 27.26
-1 1 -17 717.69 25.65
1 -1 17 735.19 26.36
-1 1 -18 331.38 13.79
-1 -1 -18 314.69 13.75
1 -1 18 328.11 12.98
1 1 18 326.59 11.98
-1 1 -19 38.89 3.89
-1 -1 -19 42.13 4.08
1 -1 19 46.11 3.54
1 1 19 40.35 2.65
-1 -1 -20 752.22 27.93
-1 1 -20 764.6 27.75
1 -1 20 743.35 26.49
1 1 20 707.82 25.4
1 1 21 12.65 1.91
1 -1 21 10.15 2.48
-1 -1 -21 12.1 3.19
-1 1 -21 8.04 2.8
-1 1 -22 77.41 5.97
-1 -1 -22 98.99 6.67
1 1 22 86.77 4.32
1 -1 22 80.48 5.06
-1 -1 -23 33.58 4.43
-1 1 -23 27.55 3.98
1 -1 23 25.47 3.14
1 1 23 25.61 2.38
-1 1 -24 57.63 5.51
-1 -1 -24 53.93 5.63
1 -1 24 57.69 4.33
1 1 24 57.27 3.5
-1 -1 -25 196.69 10.54
-1 1 -25 178.17 9.97
1 1 25 169.6 7.27
1 -1 25 163.97 8.18
-1 1 -26 110.14 7.84
-1 -1 -26 123.75 8.4
1 1 26 108.06 5.25
1 -1 26 111.21 6.2
-1 1 -27 36.24 5.24
-1 -1 -27 37.47 5.5
1 -1 27 37.68 3.83
-1 1 -28 356.05 16.86
-1 -1 -28 361.44 17.25
1 -1 28 351.83 14.54
-1 -1 -29 110.6 8.93
-1 1 -29 118.06 8.99
1 -1 29 112.28 6.54
-1 1 -30 121.48 9.22
-1 -1 -30 116.15 9.33
1 -1 30 119.13 6.83
1 -2 -29 401.98 19.31
1 2 -29 433.22 19.15
-1 -2 29 426.18 17.02
1 2 -28 81.83 6.98
1 -2 -28 78.37 7.2
-1 -2 28 76.32 5.29
1 2 -27 50.82 5.56
1 -2 -27 47.91 5.85
-1 -2 27 60.89 4.54
1 2 -26 159.71 9.13
1 -2 -26 151.95 9.55
-1 -2 26 142.25 7.6
1 2 -25 31.34 4.46
1 -2 -25 36.65 4.92
-1 -2 25 36.11 3.71
-1 -2 24 3.41 2.34
1 -2 -24 0.59 3.43
1 2 -24 1.67 2.95
-1 -2 23 22.79 3.15
1 -2 -23 26.47 4.01
1 2 -23 28.7 3.89
1 -2 -22 130.17 7.91
1 2 -22 135.81 7.69
-1 -2 22 128.73 6.83
1 2 -21 588.45 23.28
1 -2 -21 619.19 23.68
-1 -2 21 601.31 22.4
1 2 -20 118.24 6.94
1 -2 -20 107.05 6.94
-1 -2 20 124.73 6.36
1 -2 -19 162.57 8.57
1 2 -19 153.65 8.18
-1 -2 19 171.48 7.81
1 -2 -18 161.12 8.06
1 2 -18 131.72 7.45
-1 -2 18 155.97 7.23
1 -2 -17 3.41 2.28
1 2 -17 4.93 2.27
-1 -2 17 7.83 2.13
1 -2 -16 246.84 9.81
1 2 -16 261.72 9.82
1 -2 -16 215.73 10.6
1 2 -16 236.83 10.7
1 -2 -16 226.29 10.47
1 2 -16 226.93 10.38
-1 -2 16 233.92 10.32
1 2 -15 93.1 4.48
1 -2 -15 92.42 4.59
1 2 -15 93.71 3.97
1 2 -15 94.94 5.32
1 -2 -15 93.36 5.35
1 -2 -15 95.86 5.26
1 2 -15 94.71 5.22
-1 -2 15 98.34 5.14
1 -2 -14 181.51 7.84
1 2 -14 199.11 7.8
1 2 -14 204.27 7.26
1 2 -14 187.29 8.59
1 -2 -14 205.33 8.8
1 2 -14 197.63 8.53
1 -2 -14 198.44 8.59
-1 -2 14 201.66 8.46
1 -2 -13 1639.31 57.38
1 2 -13 1633.55 57.28
1 -2 -13 1696.09 58.31
1 2 -13 1651.17 58.22
1 2 -13 1756.53 56.82
1 2 -13 1666.29 58.04
1 -2 -13 1782.8 58.22
-1 -2 13 1860.88 58.25
1 2 -12 163.83 6.49
1 -2 -12 167.59 6.62
1 2 -12 166.96 7.27
1 -2 -12 155.78 7.2
-1 -2 12 145.51 6.6
1 2 -12 186.27 6.11
1 -2 -12 143.43 6.98
1 2 -12 154.75 7.1
-1 -2 12 166.7 7.19
-1 -2 11 459.68 17.24
1 2 -11 505.38 17.7
1 2 -11 449.59 16.51
1 -2 -11 449.72 16.59
1 -2 -11 483.69 17.33
1 2 -11 461.62 17.24
1 2 -11 499.76 16.21
-1 -2 11 452.86 16.87
1 -2 -11 494.11 17.26
1 2 -11 486.9 17.22
1 2 -10 38.56 2.25
1 -2 -10 42.82 2.73
1 2 -10 41.11 2.72
1 -2 -10 41.85 2.34
1 -2 -10 40.25 2.72
1 2 -10 41.78 2.77
1 2 -10 38.57 3.1
-1 -2 10 36.87 2.49
1 2 -10 39.03 2.09
1 -2 -9 8.09 1.45
1 2 -9 8.55 1.43
1 -2 -9 7.88 1.24
1 2 -9 6.92 1.17
1 2 -9 11.49 2.05
1 -2 -9 10.58 1.51
1 2 -9 7.27 1.42
-1 -2 9 8.3 1.36
-1 -2 8 31.09 2.25
1 2 -8 39.72 2.91
1 -2 -8 18.82 1.97
1 2 -8 26.08 2.14
1 -2 -8 54.68 2.28
1 -2 -8 17.53 2.01
1 2 -8 27.22 2.14
-1 -2 7 84.36 3.98
1 -2 -7 86.12 3.78
1 2 -7 85.04 3.8
1 -2 -7 82.8 3.51
1 2 -7 84.14 3.47
1 2 -7 85.74 4.34
1 -2 -7 83.04 3.74
1 2 -7 85.2 3.76
1 2 -6 438.87 15.85
1 2 -6 461.71 15.27
1 -2 -6 483.76 15.31
-1 -2 6 431.83 15.59
-1 -2 6 402.33 14.67
1 2 -6 471.09 15
1 -2 -6 453.34 15.01
1 2 -6 438.01 15.2
1 -2 -6 442.77 15.19
-1 -2 6 470.59 15.76
1 -2 -6 420.37 14.61
1 -2 -5 956.82 32.32
1 2 -5 955.72 33.27
1 -2 -5 983.77 32.46
1 2 -5 979.91 32.45
1 2 -5 970.41 32.64
1 -2 -5 972.78 32.63
-1 -2 5 938.17 33.08
-1 -2 5 954.17 32.41
-1 -2 5 977.57 33.13
1 2 -5 992.19 32.63
1 -2 -5 998.93 32.62
1 2 -4 436.62 15.74
1 -2 -4 437.27 15.72
-1 -2 4 493.43 16.03
1 -2 -4 451.94 15.73
1 2 -4 464.3 16.46
-1 -2 4 509.52 16.42
1 2 -4 436.57 15.73
1 -2 -4 448.27 15.72
1 -2 -4 469.97 15.66
1 2 -4 517.04 15.72
1 2 -3 667.26 22.3
1 -2 -3 665.79 22.28
-1 -2 3 692.1 22.78
1 -2 -3 642.15 22.26
-1 -2 3 729.81 22.99
1 -2 -3 646.59 22.51
1 2 -3 689.88 23.07
1 2 -3 660.49 22.29
1 -2 -2 1.94 0.49
1 2 -2 3.14 0.53
1 2 -2 3.73 0.53
-1 -2 2 2.03 1.12
1 -2 -2 3.46 1.03
1 2 -2 4.95 1.3
-1 -2 2 4.52 1.09
-1 -2 1 73.03 3.2
1 -2 -1 70.58 3.25
1 2 -1 73.91 3.41
-1 -2 0 426.68 14.39
1 2 0 420.67 14.56
1 -2 0 394.92 14.61
1 2 1 612 20.62
1 -2 1 590.59 20.94
1 -2 2 31.32 1.62
1 2 2 37.88 1.62
1 -2 2 43.5 2.54
1 2 2 47.99 2.12
1 -2 2 31.75 1.62
1 2 2 37.69 1.63
1 -2 3 2280.61 75.57
1 2 3 2257.63 75.53
1 -2 3 2357.93 76.39
1 2 3 2285.65 75.65
1 2 3 2342.95 75.54
1 -2 3 2224.12 75.57
1 2 4 35.6 1.82
1 -2 4 28.47 1.81
1 2 4 41.69 1.81
1 -2 4 40.8 2.64
1 2 4 30.82 1.76
1 -2 4 30.89 1.82
1 -2 5 207.54 7.65
1 2 5 203.66 7.62
1 2 5 226.09 7.67
1 -2 5 216.18 7.66
1 2 5 200.31 7.27
1 -2 5 216.17 8.39
1 2 6 14.11 0.86
1 2 6 15.38 1.38
1 -2 6 13.17 1.34
1 2 6 15.41 1.42
1 -2 6 13.57 1.35
-1 -2 -6 13.13 1.53
-1 2 -6 14.13 1.59
1 -2 7 2.45 0.99
1 2 7 2.73 1.06
1 -2 7 0.99 1.05
-1 2 -7 0.51 1.12
-1 -2 -7 2.36 1.17
1 2 7 3.19 1.06
1 -2 8 832.61 28.97
1 -2 8 843.07 28.96
1 2 8 891.88 29.02
-1 -2 -8 808.31 29.25
-1 2 -8 856.87 29.42
1 -2 9 266.07 10.15
1 2 9 273.07 10.18
-1 -2 -9 279.35 10.63
-1 2 -9 273.44 10.7
1 2 10 22.39 2.06
1 -2 10 22.49 2.06
1 -2 10 24.26 2.56
-1 2 -10 22.86 2.47
-1 -2 -10 17.79 2.25
1 2 11 332.28 12.39
1 -2 11 313.11 12.28
-1 2 -11 348.05 13.13
-1 -2 -11 329.71 12.92
1 -2 11 344.71 12.99
1 -2 12 9.23 2.21
1 -2 12 6.52 1.45
-1 2 -12 7.91 1.1
-1 -2 -12 6.58 1.95
1 -2 12 9.08 1.74
1 2 12 8.03 1.75
-1 2 -12 9.37 2.11
-1 2 -13 447.13 15.33
1 -2 13 469.75 16.9
-1 -2 -13 442.29 16.89
-1 2 -13 449.25 17.03
1 2 13 460.31 16.26
1 -2 13 431.38 16.13
1 -2 13 405.08 15.86
-1 2 -14 174.45 6.79
-1 -2 -14 176.18 8.23
-1 2 -14 171.07 8.21
1 -2 14 165.93 7.16
1 -2 14 201.91 8.32
1 2 14 186.46 7.66
1 -2 14 171.41 7.53
1 -2 15 1.08 1.98
-1 -2 -15 0.71 1.96
1 2 15 0.95 1.78
-1 2 -15 0.37 1.75
1 -2 15 -0.82 1.7
1 -2 15 0.28 1.2
-1 -2 -16 118.42 6.92
-1 2 -16 134.14 7.07
1 -2 16 120.03 5.6
1 -2 16 147.14 6.88
1 2 16 135.38 6.31
-1 2 -17 128.35 7.17
-1 -2 -17 128.26 7.24
1 -2 17 131.66 5.78
1 -2 17 141.32 6.9
1 -2 18 3.78 1.36
1 -2 18 0.67 2.14
-1 2 -18 2.2 2.26
-1 -2 -18 1.77 2.49
1 -2 19 153.36 7.4
-1 2 -19 141.81 7.93
-1 -2 -19 132.11 7.83
1 -2 20 81.71 5.21
-1 2 -20 79.9 5.89
-1 -2 -20 81.49 6.07
1 -2 21 503.49 19.29
-1 -2 -21 502.24 20.52
-1 2 -21 488.2 20.21
1 -2 22 143.09 7.22
-1 2 -22 123.22 7.8
-1 -2 -22 119.57 8.06
1 -2 23 37.19 3.84
-1 -2 -23 39.03 4.88
-1 2 -23 37.67 4.63
1 -2 24 65.76 4.78
-1 -2 -24 56.67 5.97
-1 2 -24 56.29 5.56
1 -2 25 151.88 8.05
-1 2 -25 159.66 9.49
-1 -2 -25 174.35 10.14
1 -2 26 8.98 2.86
-1 -2 -26 5.48 4.14
-1 2 -26 1.62 3.41
1 -2 27 2.08 2.71
-1 2 -27 -2.69 3.86
-1 -2 -27 1.42 3.93
1 -2 28 66.28 5.14
-1 -2 -28 66.45 6.96
-1 2 -28 56.67 6.4
1 -2 29 154.31 8.17
-1 -2 -29 160.64 10.24
-1 2 -29 128.86 9.35
-1 -3 27 4.75 2.78
1 3 -27 3.19 3.47
1 -3 -27 -0.65 3.9
-1 -3 26 74.72 5.35
1 3 -26 64.86 6.07
1 -3 -26 70.15 6.65
-1 -3 25 318.73 13.71
1 -3 -25 330.43 15.17
1 3 -25 319.68 14.78
1 3 -24 7.87 3.35
1 -3 -24 5.81 3.67
-1 -3 23 8.25 2.66
1 -3 -23 5.77 3.19
1 3 -23 7.74 3.37
-1 -3 22 1.36 2.45
1 -3 -22 2.72 3.08
1 3 -22 4.39 2.99
-1 -3 21 28.03 3.42
1 -3 -21 22.82 3.88
1 3 -21 21.24 3.67
-1 -3 20 34.79 3.7
1 3 -20 39.39 4.14
1 -3 -20 36.46 4.2
-1 -3 19 40.34 3.79
1 -3 -19 38.31 4.06
1 3 -19 36.9 3.9
-1 -3 18 198.84 9.02
1 -3 -18 185.28 9.11
1 3 -18 182.3 9.03
-1 -3 17 464.92 17.7
1 3 -17 428.46 17.65
1 -3 -17 474.05 17.93
1 3 -16 62.47 4.66
1 -3 -16 63.67 4.72
1 -3 -16 73.29 4.04
1 3 -16 80.9 4.01
1 -3 -15 21.03 2.24
1 -3 -15 25.41 3.04
1 3 -15 22.8 2.92
1 3 -15 23.09 2.28
-1 -3 15 19.58 2.38
1 3 -14 110.62 4.94
1 -3 -14 107.62 4.96
-1 -3 14 104.39 5.34
1 3 -14 108.68 5.8
1 -3 -14 108.04 5.76
1 3 -13 77.75 3.91
1 -3 -13 77.81 3.96
-1 -3 13 84.13 4.45
1 -3 -13 80.43 4.68
1 3 -13 83.67 4.74
-1 -3 12 127.37 6.33
1 3 -12 146.69 5.48
1 -3 -12 140.94 5.54
-1 -3 12 104.4 5.76
1 -3 -12 107.36 5.89
1 3 -12 124.09 6.11
-1 -3 11 157.42 7.04
1 -3 -11 146.58 5.94
1 3 -11 144.76 5.88
-1 -3 11 142.73 6.62
1 -3 -11 146.93 6.58
1 3 -11 152.48 6.68
1 -3 -10 547.35 19.42
1 3 -10 565.98 19.41
-1 -3 10 524.46 20.24
1 -3 -10 558.23 20.06
1 3 -10 577.64 20.18
-1 -3 9 434.74 15.87
1 -3 -9 418.7 14.73
1 3 -9 413.98 14.7
-1 -3 9 425.11 15.71
1 -3 -9 424.2 15.27
1 3 -9 429.07 15.36
-1 -3 8 51.3 3.34
1 -3 -8 46.11 2.41
1 3 -8 54.02 2.47
-1 -3 8 39.66 3.01
1 -3 -8 42.94 2.62
1 3 -8 39.19 2.68
-1 -3 7 60.34 3.64
1 3 -7 61.31 3.05
1 -3 -7 62.68 3
1 3 -7 58.31 2.72
1 -3 -7 56.36 2.67
-1 -3 7 57.77 3.57
-1 -3 6 247.43 9.06
1 3 -6 222.09 8.1
1 -3 -6 223.91 8.03
-1 -3 6 202.4 7.79
1 3 -6 230.1 7.89
1 -3 -6 219.11 7.82
-1 -3 6 203.49 8.8
1 -3 -5 146.15 5.46
1 3 -5 144.53 5.53
-1 -3 5 150.73 6.45
1 -3 -5 153.92 5.61
-1 -3 5 147.87 5.98
1 -3 -4 60.9 2.95
-1 -3 4 68.75 3.58
-1 -3 4 65.62 3.36
-1 -3 3 443.37 14.92
1 -3 -3 401.88 14.4
-1 -3 3 389.24 14.63
-1 -3 2 1135.02 36.5
1 -3 -2 1110 36.29
1 -3 -1 392.65 14.9
-1 -3 1 445.8 14.98
1 -3 0 6.42 1.45
1 -3 1 338.3 12.56
1 -3 2 56.98 3.38
1 -3 3 153.43 6.68
-1 -3 -4 123.4 4.77
1 -3 4 111.07 6.04
-1 3 -5 160.51 5.81
1 -3 5 176.92 7.34
-1 -3 -5 166.4 5.89
1 -3 6 703.85 23.78
-1 -3 -6 656.92 22.18
-1 3 -6 647.54 22.13
1 -3 7 364.64 13.18
-1 -3 -7 331.7 11.63
-1 3 -7 326.74 11.57
1 -3 8 79.72 4.48
1 -3 8 72.31 4.2
-1 3 -8 67.43 3.08
-1 -3 -8 70.64 3.17
1 -3 9 466.32 18.25
-1 -3 -9 510.83 17.26
-1 3 -9 484.18 17.14
-1 3 -10 74.35 3.48
-1 -3 -10 78.55 3.6
1 -3 10 82.32 4.84
1 -3 11 117.15 6.18
-1 -3 -11 123.03 5.89
-1 3 -11 112.86 4.87
-1 -3 -11 117.38 4.98
-1 3 -11 117.55 5.89
1 -3 12 107.69 6.01
-1 -3 -12 115.97 4.94
-1 3 -12 122.88 4.92
-1 -3 -12 91.39 5.59
-1 3 -12 96.31 5.7
-1 -3 -13 369.11 13.47
-1 3 -13 363.36 13.4
-1 3 -13 385.57 14.83
-1 -3 -13 379.4 14.7
-1 3 -14 186.34 7.38
-1 -3 -14 185.92 7.4
-1 3 -14 177.64 8.61
-1 -3 -14 172.75 8.45
1 -3 15 285.49 11.88
-1 -3 -15 305.41 11.38
-1 3 -15 310.93 11.39
-1 3 -15 294.93 12.69
-1 -3 -15 306.62 12.76
1 -3 16 31.49 2.76
-1 3 -16 36.4 3.74
-1 -3 -16 31.55 3.6
1 -3 17 382.23 14.86
-1 -3 -17 384.36 15.98
-1 3 -17 388.23 16.09
1 -3 17 420.98 16.06
1 -3 18 5.57 2
-1 -3 -18 2.55 2.86
-1 3 -18 2.21 2.69
1 -3 18 11.07 2.97
1 -3 19 27.15 2.63
-1 -3 -19 25.46 3.66
-1 3 -19 24 3.68
1 -3 19 25.48 3.51
1 -3 20 5.38 2.82
-1 -3 -20 1.43 2.85
-1 3 -20 -1.71 2.71
1 -3 20 3.48 1.79
1 -3 21 3.14 2.74
-1 -3 -21 1.26 3.05
-1 3 -21 2.31 2.82
1 -3 21 7.89 1.94
-1 3 -22 77.7 6.08
-1 -3 -22 74.34 6.16
1 -3 22 73.24 5.36
1 -3 23 1.3 2.6
-1 3 -23 -0.28 3.17
-1 -3 -23 3.06 3.45
-1 3 -24 86.66 6.82
-1 -3 -24 92.79 7.11
1 -3 24 101.32 6.4
-1 3 -25 380.8 17.11
-1 -3 -25 361.19 17.08
1 -3 25 402.81 16.2
-1 3 -26 5.79 3.57
-1 -3 -26 2.28 3.94
1 -3 26 9.21 3.22
1 -4 -23 34.54 4.77
1 -4 -22 175.43 9.34
1 -4 -21 76.84 5.75
1 -4 -20 26.29 4.07
1 4 -19 230.33 11.19
1 -4 -19 251.42 11.32
-1 -4 19 258.23 11.31
-1 -4 18 0.2 2.55
1 -4 -18 -1.89 2.9
1 4 -18 -1.53 2.96
-1 -4 18 5.68 2.38
-1 -4 17 5.94 2.74
1 4 -17 1.61 2.75
1 -4 -17 4.64 2.76
-1 -4 17 2.61 2.07
-1 -4 16 221.05 9.9
-1 -4 16 252.43 10.7
1 4 -16 218.5 10.15
1 -4 -16 241.37 10.43
1 -4 -15 31.92 3.49
1 -4 -15 35.69 3.07
-1 -4 15 32.27 3.19
1 4 -15 28.21 3.32
-1 -4 15 39.2 3.74
-1 -4 14 47.22 3.8
1 -4 -14 54.5 3.59
1 -4 -14 49.73 4.13
1 4 -14 51.06 4.05
-1 -4 14 60.15 4.39
-1 -4 13 195.92 8.97
-1 -4 13 214.55 9.36
1 -4 -13 204.26 8.16
1 -4 -13 208.97 9.1
1 4 -13 198.11 8.83
1 -4 -12 6.65 2.39
1 4 -12 6.97 2.22
-1 -4 12 6.53 2.31
1 -4 -12 7.74 1.85
-1 -4 12 11 2.46
1 4 -11 1.95 1.77
-1 -4 11 4.24 2.03
1 -4 -11 0.62 1.46
-1 -4 11 2.78 2.07
-1 -4 10 34.5 3.16
1 -4 -10 25.25 2.12
-1 -4 10 27.11 2.99
-1 -4 9 44.08 3.63
-1 -4 9 51.62 3.73
-1 -4 8 89.96 5.37
-1 -4 8 108.86 5.49
-1 -4 7 165 7.98
-1 -4 7 193.58 8.05
-1 -4 6 137.44 5.5
-1 -4 6 164.4 6.85
-1 -4 6 136.56 6.81
-1 -4 5 57.18 3.64
-1 -4 5 47.9 3.36
-1 -4 4 55.85 3.47
1 -4 -4 54.77 2.89
-1 -4 4 49.63 3.38
-1 -4 3 1.84 1.77
1 -4 -3 1.39 1.3
1 -4 -2 63.77 3.38
-1 -4 2 55.53 3.7
1 -4 -1 161 6.72
-1 -4 1 155.34 7.09
1 -4 0 263.48 10.24
1 -4 1 345.6 13.06
1 -4 2 319.23 12.29
1 -4 3 210.02 8.81
1 -4 4 69.1 3.99
1 -4 4 53.14 3.08
1 -4 5 78.91 4.29
1 -4 5 75.23 2.79
1 -4 6 11.09 2.32
1 -4 7 68.28 4.2
-1 4 -7 53.34 2.26
-1 -4 -7 59.1 2.36
1 -4 8 257.55 10.4
1 -4 8 224.26 10.22
-1 -4 -8 235.74 8.41
1 -4 9 63.78 4.39
-1 -4 -9 61.95 2.91
1 -4 9 50.64 4.1
1 -4 10 12.3 2.63
1 -4 10 9.29 2.49
-1 -4 -10 7.77 1.62
-1 -4 -11 61.73 3.32
1 -4 11 57.78 4.4
1 -4 11 59.75 4.42
-1 -4 -12 66.04 3.62
1 -4 12 57.41 4.59
-1 -4 -13 305.85 11.12
1 -4 13 265.75 12.3
-1 -4 -14 99.61 4.83
1 -4 14 81.83 5.73
1 -4 15 191.76 9.35
1 -4 16 119.85 7.05
1 -4 17 33.8 3.99
1 -4 18 159.26 7.99
1 -4 18 190.03 9.14
1 -4 19 13.3 3.33
1 -4 19 15.26 2.85
1 -4 20 34.31 3.39
1 -4 21 148.12 7.32
1 -4 22 2.85 2.22
-1 -5 17 15.19 3.33
-1 -5 17 12 3
-1 -5 16 16.39 3.3
-1 -5 16 21.18 3.27
-1 -5 15 169.86 8.67
-1 -5 15 191.61 9.06
-1 -5 14 13.67 3
-1 -5 14 8.43 2.82
-1 -5 13 54.36 4.35
-1 -5 13 39.85 4.12
-1 -5 12 98.66 5.86
-1 -5 12 91.05 5.84
-1 -5 11 145.03 7.21
-1 -5 11 123.5 7.08
-1 -5 10 45.31 4.15
-1 -5 9 47.98 4.21
-1 -5 8 46.92 4.22
-1 -5 7 192.1 9.05
-1 -5 6 12.76 2.84
-1 -5 5 163.52 8.12
-1 -5 4 270.09 10.68
-1 -5 3 208.02 8.79
-1 -5 2 45.81 3.9
-1 -5 1 32.19 3.37
1 -5 0 103.66 5.03
-1 -5 0 95.61 5.72
1 -5 1 68.02 4.02
-1 -5 -1 65.85 4.9
1 -5 2 9.62 2.2
-1 -5 -2 4.62 2.98
1 -5 2 6.52 2.26
1 -5 3 297.64 11.89
1 -5 3 302.08 11.36
1 -5 4 47.58 3.63
1 -5 5 155.78 7.41
1 -5 6 146.36 7.17
1 -5 7 9.51 2.99
1 -5 7 16.44 2.92
1 -5 8 0.61 2.6
1 -5 8 2.73 2.54
1 -5 9 85.5 5.88
1 -5 9 101.38 5.89
1 -5 10 3.12 2.9
1 -5 10 1.69 2.47
1 -5 11 274.85 12.83
1 -5 11 325.97 13.09
1 -5 12 70.76 5.32
1 -5 12 67.72 5.26
1 -5 13 35.52 4.2
1 -5 13 44.55 4.42
1 -5 14 54.81 5.05
1 -5 14 73.51 5.44
1 -5 15 10.32 3.37
1 -5 16 19.92 3.78
2 0 -31 3.28 4.75
2 0 -30 0.39 4.25
2 0 -29 1.1 3.97
2 0 -28 294.23 14.68
2 0 -27 -0.34 3.71
2 0 -26 645.89 26.07
2 0 -25 0.3 3.26
2 0 -24 328.31 14.88
2 0 -23 3.69 2.82
2 0 -22 84.6 6.04
2 0 -21 0.23 2.35
2 0 -20 699.9 26.25
2 0 -19 1.97 1.89
2 0 -18 794.69 30.02
2 0 -18 850.82 29.17
2 0 -17 -0.17 1.68
2 0 -17 1.57 1.71
2 0 -16 253.81 9.62
2 0 -16 236.12 10.16
2 0 -16 229.54 10.28
2 0 -16 249.03 9.67
2 0 -15 2.5 1.74
2 0 -15 -1.42 1.52
2 0 -15 -0.82 1.4
2 0 -15 -0.84 1.43
2 0 -14 23.31 2.12
2 0 -14 22.46 2.43
2 0 -14 22.11 2.37
2 0 -14 26.92 2.2
2 0 -13 0.76 1.48
2 0 -13 0.24 1.28
2 0 -13 -0.46 1.29
2 0 -13 0.24 1.26
2 0 -12 520.31 18.87
2 0 -12 549.86 18.89
2 0 -12 548.77 19.5
2 0 -11 -0.1 1.1
2 0 -11 0.78 1.11
2 0 -11 -0.65 1.13
2 0 -10 409.06 14.26
2 0 -10 400.93 14.26
2 0 -10 400.65 14.73
2 0 -9 0.94 1.01
-2 0 9 -0.24 0.97
2 0 -9 -0.06 1.13
2 0 -8 6331.2 209.91
2 0 -8 6373.04 210
-2 0 8 6391.87 209.99
2 0 -7 0.24 0.83
2 0 -7 -0.81 1.04
-2 0 7 -0.05 0.91
2 0 -6 1.12 1.07
-2 0 6 1.34 0.91
-2 0 5 0.27 0.78
2 0 -5 0.28 1.01
2 0 -4 5900.41 194.26
-2 0 4 5887.34 194.23
2 0 -3 0.36 0.77
-2 0 3 0.71 0.68
2 0 -3 0.08 0.99
2 0 -2 5.98 1.15
-2 0 2 7.08 1.05
2 0 -1 1.17 1.19
-2 0 1 0.57 0.95
2 0 0 422.79 15
-2 0 0 442.81 15.02
2 0 1 0.6 1.06
-2 0 -1 -0.25 1.18
-2 0 -2 52.09 2.62
2 0 3 0.3 0.31
-2 0 -3 -0.22 1.04
2 0 4 2135.13 67.99
-2 0 -4 2026.76 67.17
2 0 4 2025.37 67.11
-2 0 -5 0.52 1
2 0 5 -0.14 1.3
-2 0 -5 -0.38 0.48
2 0 6 20.28 1.94
-2 0 -6 20.43 1.9
-2 0 -6 20.91 1.12
2 0 7 1.15 1.4
-2 0 -7 1.39 1.16
-2 0 -7 -0.26 0.58
2 0 8 1608.78 52.51
-2 0 -8 1558.08 52.72
2 0 8 1484.52 52.45
-2 0 -8 1553.66 51.48
-2 0 -9 0.03 0.63
2 0 9 1.02 1.22
2 0 9 0.77 1.42
-2 0 -9 0.7 1.39
-2 0 -10 73.44 4.15
2 0 10 67.87 3.9
2 0 10 78.12 4.03
-2 0 -10 69.38 2.96
-2 0 -11 0.49 0.75
2 0 11 0.12 1.38
-2 0 -11 -0.14 1.45
2 0 11 -0.76 1.52
2 0 12 832.21 29.1
-2 0 -12 841.98 29.73
2 0 12 850.79 29.35
-2 0 -12 820.23 28.04
-2 0 -13 0.15 0.8
-2 0 -13 0.33 1.69
2 0 13 -0.96 1.61
2 0 13 0.92 1.4
2 0 14 850.82 29.98
-2 0 -14 836.8 28.64
2 0 14 814.28 29.47
2 0 14 902.68 29.94
-2 0 -14 844.91 30.54
2 0 15 0.15 1.64
-2 0 -15 0.23 0.97
2 0 15 -1.42 1.64
-2 0 -15 0.18 1.8
2 0 15 0.53 1.66
-2 0 -16 1215.61 40.18
2 0 16 1245.16 41.69
2 0 16 1125.56 40.95
-2 0 -16 1164.32 42.29
2 0 17 -0.81 1.82
-2 0 -17 0.63 2.16
2 0 17 0.35 1.58
-2 0 -17 0.45 1.11
2 0 18 2.2 1.87
-2 0 -18 2.44 2.29
2 0 18 1.37 1.71
-2 0 -18 2.32 1.17
2 0 19 -0.18 1.96
-2 0 -19 0.94 1.24
-2 0 -19 0.47 2.46
2 0 19 2.03 1.73
-2 0 -20 340.27 15.03
2 0 20 345.18 13.42
-2 0 -21 0.79 2.7
2 0 21 0.14 1.81
-2 0 -22 600.92 23.66
2 0 22 584.66 21.62
-2 0 -23 -2.3 3.17
2 0 23 1.14 1.91
-2 0 -24 15.41 3.69
2 0 24 15.51 2.62
-2 0 -25 -0.95 3.44
2 0 25 0.15 2.08
-2 0 -26 14.77 3.99
2 0 26 24.45 2.99
-2 0 -27 -1.71 3.69
2 0 27 -0.62 2.25
-2 0 -28 17.35 4.6
2 0 28 22.85 3.22
-2 0 -29 -3.33 4.33
2 0 29 0.96 2.33
2 0 30 191.95 8.74
-2 0 -30 172.92 11.18
2 -1 -31 18.23 5.39
2 1 -31 19.18 5.14
2 1 -30 150.97 10.23
2 -1 -30 164.22 10.78
2 -1 -29 147.8 9.84
2 1 -29 140.53 9.49
2 -1 -28 8.19 4.14
2 1 -28 9.26 4.01
2 1 -27 25.44 4.42
2 -1 -27 16.95 4.29
2 1 -26 30.08 4.58
2 -1 -26 26.41 4.68
-2 -1 25 86.09 5.11
2 -1 -25 90.33 7.1
2 1 -25 96.91 6.9
-2 -1 24 113.08 5.83
2 -1 -24 99.8 7.18
2 1 -24 100.6 7.06
2 -1 -23 1.07 2.86
2 1 -23 0.77 2.55
-2 -1 23 1 1.92
-2 -1 22 144.59 6.88
2 -1 -22 132.36 8.1
2 1 -22 155.01 8.36
-2 -1 21 227.97 9.93
2 1 -21 251.98 11.36
2 -1 -21 255.13 11.56
2 1 -20 18.75 3.01
2 -1 -20 25.3 3.46
-2 -1 20 22.96 2.48
2 -1 -19 0.6 2.14
2 1 -19 -1.55 1.97
-2 -1 19 0.98 1.66
2 -1 -18 24.6 3.08
2 1 -18 26.63 2.95
-2 -1 18 25.67 2.56
2 1 -17 403.23 15.52
2 1 -17 407.8 15.13
-2 -1 17 373.57 14.59
2 -1 -17 393.04 15.55
2 1 -16 1346.51 44.89
2 -1 -16 1388.89 45.06
-2 -1 16 1227.18 44.96
2 1 -16 1291.64 44.77
2 1 -16 1366.49 45.52
2 -1 -16 1301.12 45.65
2 1 -16 1348.77 45.57
2 1 -16 1313.46 45.83
2 -1 -16 1296.47 45.86
2 1 -15 240.71 9.41
2 -1 -15 257.62 9.59
2 1 -15 256.65 10.03
2 -1 -15 243.01 9.22
2 1 -15 249.98 9.43
2 1 -15 242.74 9.99
2 -1 -15 246.82 10.15
-2 -1 15 236.58 9.59
2 1 -15 235.64 10.15
2 -1 -15 248.18 10.33
2 1 -14 162.64 7.55
2 -1 -14 171.15 7.67
2 1 -14 185.62 7.52
2 -1 -14 171.47 6.71
2 1 -14 184.58 7.02
2 1 -14 171.37 6.98
2 -1 -14 177.65 7.14
-2 -1 14 168.86 7.15
2 1 -14 179.94 7.54
2 -1 -14 165.8 7.51
2 -1 -13 40.66 3.04
2 1 -13 45.47 3.06
2 1 -13 46.89 3.04
2 -1 -13 42.69 2.35
2 -1 -13 37.75 2.62
2 1 -13 42.54 2.56
2 1 -13 45.35 2.57
-2 -1 13 45.77 2.77
2 1 -13 42.46 2.89
2 -1 -13 39.13 2.97
2 -1 -12 1239.49 42.08
2 1 -12 1250.9 43.05
2 -1 -12 1200.26 43.07
2 -1 -12 1300.46 42.53
2 1 -12 1315.74 42.48
-2 -1 12 1242.38 42.66
2 1 -12 1212.65 42.92
2 1 -12 1267.44 42.43
2 -1 -11 8.31 1.52
2 1 -11 8.71 1.31
2 1 -11 9.79 1.24
2 -1 -11 12.01 1.71
2 1 -11 10.05 1.55
-2 -1 11 8.16 1.38
2 -1 -11 9.06 1.11
2 -1 -10 257.7 9.78
2 1 -10 281.77 9.79
-2 -1 10 280.16 9.97
2 -1 -10 263.93 9.34
2 1 -10 269.81 10.15
2 -1 -10 256.39 10.15
2 1 -10 258.63 9.71
2 1 -9 2.69 1.08
2 1 -9 1.05 1.1
-2 -1 9 1.94 1.1
2 -1 -9 2.16 1.17
2 1 -9 3.18 0.92
2 -1 -9 2.64 0.77
-2 -1 9 1.69 0.98
2 -1 -9 1.29 1.08
2 1 -9 1.95 1.07
2 -1 -8 203.62 7.96
2 1 -8 220.51 8
-2 -1 8 234.65 8.08
-2 1 8 193.52 7.91
2 1 -8 203.52 7.92
-2 -1 8 195.14 7.78
-2 -1 8 210.27 8.08
2 1 -8 215.93 8.29
2 -1 -7 421.26 14.91
2 1 -7 438.21 14.9
-2 -1 7 445.88 14.95
-2 1 7 377.65 14.78
-2 -1 7 410.2 14.77
-2 -1 7 424.31 15.02
2 1 -7 430.98 15.19
2 -1 -6 291.1 10.46
2 1 -6 314.09 10.48
-2 -1 6 305.1 10.45
-2 1 6 268.65 10.34
-2 -1 6 264.59 10.31
2 1 -6 287.41 10.66
2 1 -5 13.4 1.44
-2 -1 5 15.55 1.27
2 -1 -5 12.84 1.27
2 1 -5 12.35 1.26
-2 1 5 12.82 1.19
-2 -1 5 12.63 1.08
2 1 -5 16.28 1.67
-2 -1 5 16.58 1.38
2 1 -4 905.51 31.7
2 1 -4 947.92 31.9
2 1 -4 995.01 31.62
2 -1 -4 888.71 31.55
-2 -1 4 942.57 31.53
-2 1 4 905.85 31.5
-2 -1 4 900.4 31.55
2 1 -3 269.89 9.42
2 1 -3 243.91 9.57
-2 -1 3 262.19 9.31
-2 -1 3 293.05 9.65
-2 -1 3 270.63 9.27
-2 1 3 260.79 9.25
-2 -1 2 47.12 2.89
2 1 -2 49.73 2.67
-2 -1 2 49.84 2.23
-2 1 2 52.48 2.23
-2 -1 2 47.5 2.18
-2 -1 1 163.22 5.91
2 1 -1 169.71 6.42
2 -1 0 269.51 9.55
2 -1 1 627.58 21.23
-2 1 -2 1064.51 35.55
2 -1 2 1067.47 35.62
2 -1 3 1250.11 43.87
2 1 3 1301.62 43.88
2 -1 3 1356.94 43.65
-2 1 -3 1306 43.53
2 1 4 2362.5 81.59
2 -1 4 2347.83 81.6
-2 1 -4 2414.88 81.27
2 -1 4 2634.77 81.32
-2 1 -5 11.48 1.57
2 1 5 11.62 1.58
2 -1 5 12.73 1.58
2 1 6 228.68 8.97
2 -1 6 221.12 8.92
-2 1 -6 233.45 9.14
-2 -1 -6 228.54 9.05
-2 1 -6 262.63 8.74
2 -1 6 237.3 8.61
-2 1 -7 223.91 8.18
2 -1 7 196.86 8.44
2 1 7 210.77 8.5
2 -1 7 235.25 8.11
-2 1 -7 228.91 8.77
2 1 7 217.83 8.51
2 -1 7 209.75 8.47
-2 -1 -7 221.91 8.68
-2 1 -8 127.72 5.14
2 1 8 121.98 5.45
2 -1 8 120.26 5.41
-2 1 -8 125.58 5.65
-2 -1 -8 112.77 5.54
2 1 8 116.46 5.42
2 -1 8 119.36 5.45
2 -1 8 130.53 4.95
2 1 9 250.07 10.22
2 -1 9 258.34 10.23
2 -1 9 281.02 9.62
2 1 9 266.18 10.23
2 -1 9 262.63 10.2
-2 1 -9 259.72 10.46
-2 -1 -9 258.12 10.4
2 -1 10 4.15 1.65
-2 1 -10 3.8 1.67
-2 -1 -10 3.12 1.51
2 1 10 2.64 1.57
2 -1 10 2.59 0.91
2 1 10 5.52 1.56
2 -1 10 3.64 1.55
2 -1 11 24.82 2.42
2 -1 11 25.79 2.27
2 1 11 22.19 2.29
2 -1 11 26.42 1.71
-2 1 -11 24.51 1.85
2 1 11 23.12 2.35
-2 1 -11 26.35 2.6
-2 -1 -11 19.84 2.38
2 -1 11 21.63 2.25
2 -1 12 1304.33 42.89
2 -1 12 1249 42.77
2 1 12 1218.06 42.78
-2 1 -12 1237.87 41.96
2 -1 12 1227.71 41.76
-2 -1 -12 1266.32 43.3
2 -1 12 1192.6 42.55
2 1 12 1233.93 42.62
-2 1 -12 1286.49 43.36
-2 1 -13 514.02 19.66
-2 -1 -13 515.2 19.64
2 -1 13 540.79 19.22
2 1 13 556.41 19.25
2 -1 13 495.75 19.09
2 -1 13 509.5 18.04
-2 1 -13 503.59 18.26
2 -1 13 501.51 18.91
2 1 13 568.63 19.14
2 -1 14 13.35 2.15
2 1 14 13.99 2.11
2 1 14 12.68 1.67
2 -1 14 14.97 2.26
-2 1 -14 15.96 2.64
2 1 14 16.23 2.21
2 -1 14 16.47 2.22
-2 -1 -14 12.24 2.49
-2 1 -14 17.62 1.78
-2 1 -15 24.23 2.97
-2 -1 -15 31.48 3.28
2 1 15 34.6 2.97
2 -1 15 28.61 2.78
2 1 15 27.76 2.17
2 -1 15 26.5 2.72
2 -1 15 26.99 2.7
2 1 15 28.25 2.76
-2 1 -15 28.89 2.29
2 -1 16 199.95 9.04
2 1 16 205 9.11
-2 1 -16 212.98 8.35
2 -1 16 219.78 9.14
2 1 16 202.25 8.14
-2 1 -16 214.8 9.9
-2 -1 -16 218.62 10
2 1 17 101.26 5.43
2 -1 17 87.06 5.2
2 -1 17 95.36 5.3
2 1 17 94.78 4.47
-2 1 -17 88.38 4.52
-2 1 -17 88.05 5.8
-2 -1 -17 94.92 6.02
-2 1 -18 571.62 21.93
-2 -1 -18 580.51 22.04
2 1 18 533.51 19.79
2 -1 18 587.03 21
2 1 18 587.2 21.22
2 -1 18 537.69 20.98
2 -1 19 13.62 2.49
2 1 19 11.22 1.9
-2 1 -19 9.03 2.82
-2 -1 -19 12.47 3.08
-2 -1 -20 486.19 19.48
-2 1 -20 477.9 19.3
2 1 20 448.63 16.96
2 -1 20 495.31 18.17
-2 1 -21 119 7.4
-2 -1 -21 129 7.84
2 -1 21 121.26 6.45
2 1 21 115.89 5.55
-2 -1 -22 80.97 6.39
-2 1 -22 71.72 6
2 -1 22 91.24 5.36
2 1 22 78.63 4.28
2 -1 23 3.64 2.21
2 1 23 1.48 1.76
-2 1 -23 -1.15 2.96
-2 -1 -23 2.96 3.01
2 1 24 9.74 2.04
2 -1 24 12.03 2.85
-2 1 -24 11.03 3.52
-2 -1 -24 9.58 3.69
-2 1 -25 94.5 7.21
-2 -1 -25 98.37 7.42
2 1 25 97.71 4.98
2 -1 25 96.54 5.88
-2 1 -26 256.57 13.17
-2 -1 -26 263.2 13.48
2 -1 26 277.17 11.68
2 1 26 262.71 10.53
-2 1 -27 50.17 5.72
-2 -1 -27 50.83 5.99
2 -1 27 61.81 4.63
-2 1 -28 166.29 10.75
-2 -1 -28 199.7 11.55
2 -1 28 206.97 9.44
-2 1 -29 186.68 11.27
-2 -1 -29 196.56 11.8
2 -1 29 193.88 9.39
2 -1 30 3.14 3.03
-2 1 -30 -1.55 4.61
-2 -1 -30 -0.82 4.7
2 -2 -30 16.04 4.87
2 2 -30 9.12 4.46
2 2 -29 285.03 14.49
2 -2 -29 299.28 15.01
2 2 -28 44.86 5.56
2 -2 -28 37.9 5.63
2 -2 -27 42.97 5.73
2 2 -27 43.43 5.4
-2 -2 27 35.92 3.66
2 -2 -26 119.75 8.41
2 2 -26 134.74 8.31
-2 -2 26 121.74 6.67
2 -2 -25 67.8 6.31
2 2 -25 77.9 6.3
-2 -2 25 81.69 5.19
-2 -2 24 3.14 2.22
2 -2 -24 -0.29 3.45
2 2 -24 -1.37 2.9
-2 -2 23 5.57 2.32
2 2 -23 5.22 2.91
2 -2 -23 10.15 3.53
2 2 -22 141.42 7.72
2 -2 -22 123.24 7.7
-2 -2 22 127.65 6.63
2 2 -21 153.87 8.23
2 -2 -21 159.15 8.54
-2 -2 21 148.97 7.35
2 -2 -20 57.36 5.2
2 2 -20 56.61 4.96
-2 -2 20 63.93 4.45
2 -2 -19 62.68 4.92
2 2 -19 67.95 4.98
2 2 -19 71.28 3.69
-2 -2 19 63.08 4.31
2 2 -18 87.26 5.51
2 -2 -18 93.14 5.79
2 2 -18 89.82 4.27
-2 -2 18 93.13 5.13
2 -2 -17 383.18 15.44
2 2 -17 391.06 15.34
-2 -2 17 398.58 14.86
2 2 -17 379.36 13.77
2 2 -16 5.1 1.56
2 2 -16 3.67 1.74
2 -2 -16 0.98 1.69
2 2 -16 2.82 1.94
2 -2 -16 0.16 1.91
-2 -2 16 3.24 1.66
2 2 -16 3.18 1.97
2 -2 -16 1.3 2.07
2 -2 -15 173.93 7.76
2 2 -15 173.14 7.69
2 -2 -15 176.31 7.95
2 2 -15 158.6 7.74
2 2 -15 171.02 6.64
-2 -2 15 168.86 6.98
-2 -2 15 185.22 7.66
2 -2 -15 173.87 7.18
2 2 -15 166.24 6.98
2 -2 -14 152.61 6.71
2 2 -14 167.93 6.71
2 -2 -14 171.39 7.49
2 2 -14 162.94 7.34
2 2 -14 171.91 6.38
-2 -2 14 180 7.31
2 2 -14 159.01 7.18
2 -2 -14 152.31 7.18
-2 -2 14 146.67 6.56
2 2 -13 1177.91 42.43
2 -2 -13 1318.38 42.58
2 2 -13 1161.92 42.23
2 -2 -13 1306.03 42.32
2 2 -13 1210.72 42.09
2 2 -13 1213.84 41.55
2 -2 -13 1229.39 41.68
2 2 -13 1188.39 41.24
-2 -2 13 1298.27 42.3
2 2 -13 1206.78 41.95
-2 -2 13 1257.2 41.73
2 2 -12 399.27 14.02
2 2 -12 325.67 13.43
2 -2 -12 315.14 13.4
2 2 -12 329.46 13.3
2 -2 -12 301.65 13.23
2 -2 -12 377.11 13.11
2 2 -12 403.37 13.11
2 2 -12 448.95 13.01
-2 -2 12 385.46 13.61
-2 -2 12 311.94 12.98
2 2 -12 347.23 13.32
2 2 -11 303.25 11.2
2 -2 -11 280.01 10.82
2 2 -11 277.77 10.75
2 2 -11 280.42 10.67
2 -2 -11 290.22 10.74
2 -2 -11 287.36 10.41
2 2 -11 285.5 10.29
2 2 -11 264.15 10.17
-2 -2 11 276.08 10.8
-2 -2 11 272.34 10.47
2 2 -10 618.64 20.85
2 -2 -10 598.16 20.88
2 2 -10 588.37 21.22
2 -2 -10 602.05 21.3
2 2 -10 606.56 21.16
2 -2 -10 632.76 21.27
2 2 -10 576.69 20.86
2 2 -10 615.35 21.66
-2 -2 10 604.55 21.1
2 -2 -9 34.91 2.18
2 2 -9 35.2 2.12
2 2 -9 35.59 2.16
2 -2 -9 34.54 2.35
2 2 -9 35.47 2.34
-2 -2 9 31.23 2.24
2 2 -9 38.65 2.87
2 2 -9 36.5 2.34
2 -2 -8 241.18 8.89
2 2 -8 229.99 8.8
2 2 -8 229.88 8.54
-2 -2 8 226.16 8.88
2 2 -8 245.95 8.62
2 -2 -8 230.7 8.6
2 2 -8 240.32 9.34
2 2 -7 498.55 17.78
2 -2 -7 537.38 17.88
2 2 -7 509.37 17.63
-2 -2 7 483.6 17.43
2 2 -7 505.87 18.31
-2 -2 7 521.87 18.06
2 2 -7 535.46 17.67
2 -2 -7 520.64 17.67
2 -2 -6 64.29 2.91
2 2 -6 84.11 3.06
-2 -2 6 69.48 2.79
-2 -2 6 51.2 3.1
-2 -2 6 83.1 3.04
2 2 -6 49.4 3.26
-2 -2 6 44.04 2.95
2 2 -6 46.04 2.7
-2 2 5 492.6 17.59
-2 -2 5 524.73 17.64
2 2 -5 527.58 18.4
-2 -2 5 524.48 17.99
2 -2 -5 497.55 17.74
2 2 -5 549.77 17.85
-2 -2 5 557.47 18.26
-2 -2 5 512.94 18.21
-2 -2 4 236.87 8.36
2 2 -4 191.25 8.08
-2 -2 4 182.28 7.94
-2 2 4 204.11 7.45
-2 -2 4 242.22 7.57
-2 -2 3 7.26 0.82
2 2 -3 9.82 1.43
-2 -2 3 9.82 1.58
-2 2 3 8.02 0.8
-2 -2 2 7.3 0.84
-2 -2 2 7.87 1.55
-2 2 2 6.96 0.75
2 2 -2 6.28 1.29
-2 2 1 333.36 11.19
-2 -2 1 318.55 11.21
2 2 -1 340.67 11.73
-2 -2 1 325.33 12.07
2 2 0 549.39 18.87
2 2 1 790.36 26.69
2 -2 2 354.96 12.47
2 2 2 338.41 12.39
2 2 2 366.22 12.38
2 -2 2 366.8 12.41
2 -2 3 717.6 25.43
2 2 3 733.85 25.41
2 2 3 780.42 25.23
2 -2 3 756.4 25.24
2 2 4 749.99 25.12
2 -2 4 736.51 25.12
2 -2 4 748.63 24.76
2 2 4 719.5 24.67
2 -2 5 1073.02 35.98
2 2 5 1069.8 35.96
2 -2 5 1069.59 35.97
2 2 5 1033.89 35.32
2 -2 5 1027.82 35.37
2 2 6 39.47 2.51
2 -2 6 35.62 2.44
2 -2 6 42.79 2.52
2 2 6 40.43 2.5
2 -2 7 5.68 1.26
2 2 7 3.38 1.23
2 2 7 6.11 1.38
2 -2 7 3.48 1.27
2 2 8 128.13 5.78
2 -2 8 131.35 5.82
2 -2 8 137.17 5.76
2 2 8 136.26 5.75
2 2 9 1276.39 41.02
2 -2 9 1191.79 40.93
-2 -2 -9 1185.88 41.31
-2 2 -9 1185.05 41.42
2 -2 9 1200.05 41
2 -2 9 1162.08 40.96
2 2 9 1210.65 41.04
2 2 10 392.26 13.7
2 -2 10 360.64 13.53
-2 -2 -10 350.91 13.91
-2 2 -10 378.85 14.16
2 -2 10 362.59 13.48
2 2 10 398.92 13.64
-2 2 -10 342.59 12.45
2 -2 10 361.93 13.42
2 -2 10 393.27 14.31
2 2 11 57.58 3.49
2 -2 11 60.35 3.49
2 2 11 66.55 3.56
2 -2 11 54.1 3.37
-2 -2 -11 57.69 3.83
-2 2 -11 57.04 3.88
-2 2 -11 58.81 2.81
2 -2 11 56.35 3.87
2 -2 11 52.83 3.22
-2 -2 -12 18.53 2.62
2 -2 12 24.3 2.41
2 2 12 23.08 2.37
-2 2 -12 26.77 2.05
2 -2 12 25.9 2.42
2 2 12 26.11 2.4
-2 2 -12 24.03 2.82
2 -2 12 26.31 2.77
2 -2 12 24.25 2.17
2 2 13 41.37 3.05
2 -2 13 35.54 2.85
-2 2 -13 39.72 2.36
2 2 13 46.13 3.15
2 -2 13 42.65 3.04
-2 2 -13 36.79 3.34
-2 -2 -13 37.31 3.39
2 -2 13 33.16 3.15
2 2 13 34.13 1.76
2 -2 13 39.11 2.63
2 2 14 277.9 10.72
2 -2 14 267.1 10.47
2 2 14 287.37 10.6
-2 2 -14 279.36 9.75
2 -2 14 264.03 10.59
-2 2 -14 266.58 11.33
-2 -2 -14 241.73 11.03
2 2 14 239.22 9.04
2 -2 14 265.61 11.07
2 -2 14 262.36 10
2 -2 15 75.33 4.51
2 -2 15 76.06 4.43
2 2 15 82.49 4.57
-2 2 -15 86.92 3.96
2 -2 15 77.14 3.95
-2 2 -15 79.3 5.08
-2 -2 -15 73.87 4.95
2 2 15 69.49 3.09
2 -2 15 87.84 5.09
-2 2 -16 561.57 18.61
2 -2 16 489.97 18.49
-2 2 -16 559.04 20.42
-2 -2 -16 512.79 20.12
2 2 16 500.49 17.69
2 -2 16 568.04 19.98
-2 2 -17 694.21 23
2 -2 17 624.12 22.81
-2 2 -17 678.2 24.79
-2 -2 -17 670.78 24.71
2 2 17 621.49 22.01
2 -2 17 720.7 24.39
-2 2 -18 54.08 3.62
-2 2 -18 61.32 4.81
-2 -2 -18 51.27 4.64
2 -2 18 59.77 3.33
2 -2 18 62.37 4.52
2 2 18 58.34 2.7
-2 2 -19 -2.33 2.02
-2 2 -19 -3.09 2.64
-2 -2 -19 -0.7 2.81
2 -2 19 -0.37 2.23
2 2 19 -0.37 1.01
-2 2 -20 4.65 2.13
-2 2 -20 6.49 2.77
-2 -2 -20 -0.74 3.01
2 2 20 5.18 1.23
2 -2 20 3.07 2.47
2 -2 21 418.54 16.06
-2 -2 -21 387.89 16.84
-2 2 -21 361.73 16.49
-2 2 -21 393.62 14.96
2 -2 22 80.67 5.36
-2 2 -22 69.52 5.79
-2 -2 -22 68.86 5.84
-2 2 -22 67.71 4.55
-2 2 -23 21.8 3.82
-2 -2 -23 22.82 4.22
2 -2 23 16.99 3.15
2 -2 24 118.17 6.73
-2 2 -24 103.82 7.48
-2 -2 -24 106.73 7.76
2 -2 25 170.91 8.6
-2 2 -25 146.03 9.43
-2 -2 -25 180.97 10.39
2 -2 26 57.25 4.84
-2 2 -26 62.9 6.22
-2 -2 -26 58.24 6.43
2 -2 27 3.06 2.72
-2 -2 -27 0.37 4.33
-2 2 -27 5.24 3.86
2 -2 28 34.72 4.39
-2 2 -28 40.74 5.69
-2 -2 -28 37.51 6.1
2 -3 -27 -0.92 3.69
2 3 -27 -1.79 3.19
-2 -3 26 42.95 4.07
2 -3 -26 30.62 4.93
2 3 -26 37 4.66
-2 -3 25 69.61 5.1
2 3 -25 64.18 5.84
2 -3 -25 71.42 6.17
-2 -3 24 5.1 2.49
2 -3 -24 1.34 3.46
2 3 -24 7.07 3.22
-2 -3 23 -1.16 2.34
2 -3 -23 0.26 2.97
2 3 -23 -1.01 2.92
-2 -3 22 5.09 2.6
2 -3 -22 4.38 3
2 3 -22 8.11 3.1
-2 -3 21 28.67 3.42
2 -3 -21 21.89 3.77
2 3 -21 21.96 3.61
-2 -3 20 85.14 5.48
2 -3 -20 87.69 6.05
2 3 -20 96.65 6
-2 -3 19 8.17 1.88
2 3 -19 8.97 2.7
2 -3 -19 8.09 2.94
-2 -3 19 7.55 2.43
2 -3 -18 246.96 10.78
2 3 -18 240.19 10.63
-2 -3 18 222.12 9.5
-2 -3 18 245.12 10.47
-2 -3 17 344.64 13.67
2 3 -17 355.22 14.59
2 -3 -16 48.66 4.15
2 3 -16 55.57 4.29
-2 -3 16 42.58 3.34
2 -3 -16 64.84 3.75
2 -3 -16 38.73 3.84
2 3 -16 48.84 3.95
2 3 -15 1.57 1.73
2 -3 -15 0.46 1.71
-2 -3 15 0.23 1.39
2 3 -15 1.74 1.95
2 -3 -15 1.34 1.95
2 3 -15 -0.76 2.05
2 -3 -15 -0.76 2.1
-2 -3 14 81.98 4.42
2 -3 -14 89.64 4.87
2 3 -14 75.59 4.68
2 3 -14 83.57 4.65
2 -3 -14 80.98 4.69
2 3 -14 83.77 4.16
2 -3 -14 81.64 4.19
-2 -3 13 196.66 8.73
2 -3 -13 215.94 9.08
2 3 -13 225.02 9.12
2 -3 -13 218.33 8.97
2 3 -13 215.56 8.93
2 3 -13 221.11 8.4
2 -3 -13 216.7 8.42
-2 -3 12 95.85 5.1
2 -3 -12 95.54 5.17
2 3 -12 98.33 5.21
-2 -3 12 116.68 5.64
2 3 -12 96.85 5.13
2 -3 -12 101.22 5.16
2 3 -12 129.69 4.97
2 -3 -12 114.39 4.84
-2 -3 11 321.35 12.7
2 -3 -11 333.31 12.67
2 3 -11 339.64 12.71
-2 -3 11 344.97 13.06
2 3 -11 334.73 12.57
2 -3 -11 357.61 12.67
2 -3 -11 327.29 12.12
2 3 -11 326.79 12.09
-2 -3 10 624.28 23.17
2 -3 -10 669.18 22.99
2 3 -10 679.3 23.06
-2 -3 10 687.92 23.53
2 -3 -10 668.56 22.9
2 3 -10 660.3 22.91
2 3 -10 641.9 22.49
2 -3 -10 620.59 22.46
-2 -3 9 290.75 11.62
2 -3 -9 300.15 11.22
2 3 -9 317.87 11.35
2 -3 -9 304.21 11.18
2 3 -9 307.19 11.25
-2 -3 9 324.03 11.88
2 3 -9 307.28 10.98
2 -3 -9 282.44 10.86
2 -3 -8 4.98 1.44
-2 -3 8 24.8 2.29
-2 -3 8 14.07 2.01
2 -3 -8 12.06 1.02
2 3 -8 12.97 1.65
2 -3 -8 7.41 1.46
2 3 -8 13.94 1.67
2 -3 -8 25.74 1.93
2 3 -8 21.3 2.65
-2 -3 7 1.05 1.29
2 3 -7 0.88 1.89
2 -3 -7 1.75 0.81
2 -3 -7 1.35 1.02
2 3 -7 0.75 1.01
-2 -3 7 1.19 1.23
2 3 -7 3.12 1.08
2 -3 -7 1.77 1.08
-2 -3 7 2.5 1.22
-2 -3 6 3.24 1.44
2 3 -6 1.32 1.82
2 -3 -6 1.64 0.99
-2 -3 6 3.13 1.37
2 -3 -6 1.07 0.95
2 3 -6 2.65 0.99
2 -3 -6 0.93 0.91
2 3 -6 2.71 1.02
2 -3 -5 10.99 1.05
2 3 -5 9.87 1.05
2 3 -5 8.99 2.01
2 -3 -5 12.56 1.37
-2 -3 5 8.34 1.54
-2 -3 5 12.74 2.23
2 3 -5 11.84 1.14
2 -3 -5 9.36 1
-2 -3 4 19.9 2.22
2 3 -4 8.81 0.93
2 -3 -4 3.7 0.8
2 -3 -4 13.28 1.53
2 3 -4 15.37 2.11
2 -3 -4 4.91 0.83
2 3 -4 9.21 0.93
2 -3 -3 185.82 6.26
2 3 -3 188.91 6.74
2 3 -3 143.53 5.21
2 -3 -3 134.51 5.14
2 -3 -3 132.82 5.15
2 3 -3 159.91 5.21
-2 -3 3 179.51 6.67
-2 -3 2 436.7 15.91
2 -3 -2 431.35 15.53
2 3 -2 431.63 15.71
-2 -3 1 573.4 20.93
2 -3 -1 581.36 20.6
2 3 -1 596.43 20.62
2 3 0 33.01 2.46
2 -3 0 30.87 2.52
2 -3 1 272.58 8.67
2 3 1 274.27 8.23
2 -3 2 26.24 1.35
2 -3 2 25.82 1.33
2 3 2 26.26 1.22
2 3 2 32.79 2.14
2 -3 2 34.26 2.63
2 -3 3 2.29 1.19
2 -3 3 5.09 1.71
2 3 3 4.57 1.29
2 3 3 5.46 0.74
2 -3 3 4.89 0.8
2 -3 3 4.13 0.79
2 -3 4 26.34 1.82
2 3 4 31.15 1.75
2 3 4 36.06 2.27
2 -3 4 40.18 3.15
2 -3 4 34.07 1.9
2 -3 4 36.94 2.11
2 -3 5 554.83 19.38
2 3 5 583.4 19.34
2 -3 5 566.19 20.68
2 3 5 550.85 19.43
2 -3 5 545.95 19.38
2 -3 5 581.48 19.06
2 -3 6 552.72 19.36
2 3 6 590.53 19.34
2 -3 6 611.12 20.82
2 3 6 530.42 19.13
2 3 7 444.88 15.37
2 -3 7 415.64 15.36
2 -3 7 466.28 16.77
2 3 8 187.42 7.34
2 -3 8 183.52 7.37
2 -3 8 197.48 8.65
2 3 9 70.63 3.45
2 -3 9 63.8 3.42
2 -3 9 56.07 4.21
2 -3 10 125.08 5.53
2 3 10 128.55 5.51
2 -3 10 117.07 6.47
2 -3 11 0.57 1.48
2 3 11 1.64 1.5
2 -3 11 0.51 2.06
2 3 12 35.41 2.79
2 -3 12 37.08 2.82
2 -3 12 30.71 3.02
2 -3 13 750.72 26.72
2 3 13 803.95 26.83
2 -3 13 725.1 27.07
2 3 14 19.05 2.35
2 -3 14 16.3 2.29
2 -3 14 14.67 2.32
-2 3 -15 13.19 2.19
2 3 15 10.61 2.23
2 -3 15 9.21 2.07
2 -3 16 67.43 4.11
-2 3 -17 342.62 14.41
2 -3 17 352.08 14.24
2 -3 17 317.75 12.9
-2 -3 -18 34.28 4.22
-2 3 -18 46.05 4.52
2 -3 18 41.36 4.09
2 -3 18 35.13 3.06
-2 3 -19 5.21 2.9
-2 -3 -19 8.54 3.21
2 -3 19 10.15 2.95
2 -3 19 12.9 2.15
-2 -3 -20 6.78 3.55
-2 3 -20 7.56 3.52
2 -3 20 8.97 3.02
2 -3 20 9.16 2.12
-2 3 -21 74.56 6.22
-2 -3 -21 79.75 6.35
2 -3 21 83.68 4.64
2 -3 21 84.94 5.86
2 -3 22 100.79 6.44
-2 -3 -22 92.29 6.97
-2 3 -22 102.86 7.16
2 -3 23 6.25 3
-2 3 -23 0.59 3.64
-2 -3 -23 0.29 3.62
2 -3 24 83 5.88
-2 3 -24 79.09 6.59
-2 -3 -24 70.71 6.6
2 -3 25 203.24 9.94
-2 -3 -25 189.78 10.88
-2 3 -25 182.3 10.66
2 -3 26 4.05 2.95
-2 3 -26 8.22 4.08
2 -4 -23 -1.2 3.72
2 -4 -22 178.55 9.44
-2 -4 21 89.65 5.22
2 -4 -21 101.03 6.51
2 4 -20 15.37 3.75
2 -4 -20 14.19 3.73
-2 -4 20 23.5 3
-2 -4 19 235.51 10.75
-2 -4 19 241.13 10.11
2 4 -19 219.27 10.75
2 -4 -19 251.84 11.04
-2 -4 18 43.65 4.02
-2 -4 18 35.7 3.43
2 -4 -18 37.63 3.98
2 4 -18 34.35 3.99
-2 -4 17 70.48 4.97
2 -4 -17 69.4 4.87
2 4 -17 64.31 4.86
-2 -4 17 63.89 4.26
-2 -4 16 26.49 2.98
-2 -4 16 27.41 3.47
2 -4 -16 23.33 3.16
2 4 -16 22.57 3.32
2 -4 -15 1.94 2.12
2 4 -15 3.62 2.34
-2 -4 15 2.35 2.06
-2 -4 15 2.95 2.13
2 -4 -15 0.2 2.12
-2 -4 14 39.53 3.68
-2 -4 14 36.47 3.34
2 -4 -14 41.25 3.53
2 4 -14 35.79 3.44
2 -4 -14 41.45 3.26
-2 -4 13 353.87 13.74
-2 -4 13 315.93 13.21
2 -4 -13 367.21 13.3
2 4 -13 345.59 13.19
2 -4 -13 315.47 12.5
-2 -4 12 42.02 3.64
-2 -4 12 45.36 3.53
2 -4 -12 45.08 3.02
2 -4 -12 42.08 3.41
2 4 -12 40.88 3.31
-2 -4 11 20.36 2.6
2 4 -11 21.29 2.38
2 -4 -11 23.36 2.47
-2 -4 11 20.93 2.67
-2 -4 10 5.37 1.97
2 4 -10 6.59 1.68
2 -4 -10 5.07 1.8
-2 -4 10 4.34 1.89
2 4 -9 5.22 1.54
2 -4 -9 6.09 1.58
-2 -4 9 6.91 2.05
2 4 -8 57.39 2.95
-2 -4 8 57.39 3.89
-2 -4 7 69.73 3.3
-2 -4 7 82.95 4.7
-2 -4 6 407.27 16.12
-2 -4 6 431.04 17.05
-2 -4 5 67.25 4.41
-2 -4 5 79 4.49
2 -4 -5 73.6 3.51
-2 -4 4 16.38 2.59
2 -4 -4 10.04 1.64
2 -4 -3 34.86 2.48
-2 -4 3 30.93 3
-2 -4 2 18.55 2.57
2 -4 -2 17.39 2.05
-2 -4 1 0.14 2.08
2 -4 -1 -0.1 1.53
2 -4 0 122.18 5.54
-2 -4 0 100.96 5.76
2 -4 1 82.36 4.43
-2 -4 -1 74.52 4.86
2 -4 2 138.9 6.54
2 -4 3 306.53 11.58
2 -4 3 276.1 10.31
2 -4 4 57.04 3.82
2 -4 4 46.02 2.5
2 -4 5 51.74 3.85
-2 4 -6 23.48 1.24
-2 -4 -6 31.58 1.49
2 -4 7 2.78 2.11
-2 -4 -7 2.87 1.04
-2 -4 -8 2 1.29
2 -4 8 2.55 2.15
2 -4 9 122.57 6.8
-2 -4 -9 134.46 5.33
2 -4 10 359.81 14.78
-2 -4 -10 365.54 13.06
2 -4 11 3.87 2.45
-2 -4 -11 3.73 1.77
2 -4 12 96.72 6.15
-2 -4 -12 98.25 4.71
-2 -4 -13 0.36 1.9
2 -4 13 2.73 2.67
2 -4 14 0.53 2.4
2 -4 14 -0.64 2.55
-2 -4 -14 -0.77 2.02
2 -4 15 233.76 10.58
2 -4 15 253.32 11.39
2 -4 16 14.34 3.55
2 -4 16 15.91 2.9
2 -4 17 70.36 5.58
2 -4 17 76.02 4.95
2 -4 18 229.66 10.5
2 -4 18 188.29 9.15
2 -4 19 104.67 6.86
2 -4 19 106.12 5.97
2 -4 20 78.08 5.02
2 -4 21 49.18 4.03
2 -4 22 16.25 2.87
-2 -5 17 24.98 3.41
-2 -5 16 49.02 4.22
-2 -5 15 219.67 9.94
-2 -5 14 1.94 2.56
-2 -5 13 14.2 2.88
-2 -5 12 69.72 4.92
-2 -5 11 6.62 2.59
-2 -5 10 15.87 2.94
-2 -5 9 108.86 6.27
-2 -5 8 9.06 2.74
-2 -5 7 172.35 8.3
-2 -5 6 1.57 2.36
-2 -5 5 207.71 9.06
-2 -5 5 179.13 7.98
-2 -5 4 53 4.27
-2 -5 4 58.63 4.47
-2 -5 3 60.58 4.48
2 -5 -3 62.86 3.53
-2 -5 2 81.7 5.17
2 -5 -2 86.45 4.36
-2 -5 1 155.98 7.78
2 -5 -1 160.4 6.95
-2 -5 0 193.33 9.31
2 -5 0 209.67 8.56
-2 -5 -1 97.41 6.25
2 -5 1 110.15 5.42
-2 -5 -2 13.3 3.35
2 -5 2 14.27 2.42
-2 -5 -3 75.02 5.61
2 -5 3 84.42 4.84
2 -5 4 40.9 3.59
-2 -5 -4 35.62 4.48
2 -5 5 20.8 2.89
2 -5 6 93.6 5.58
2 -5 7 192.75 9
2 -5 8 53.5 4.52
2 -5 8 57.93 4.92
2 -5 9 19.14 3.3
2 -5 9 18.68 3.27
2 -5 10 -4.78 3.11
2 -5 10 2.59 2.95
2 -5 11 325.79 13.35
2 -5 11 282.6 13.07
2 -5 12 33.77 4.2
2 -5 13 14.64 3.61
2 -5 14 33.39 4.34
2 -5 15 67.94 5.77
2 -5 16 50.99 5.1
3 0 -31 -0.41 4.62
3 0 -30 95.89 8.21
3 0 -29 2.23 4.2
3 0 -28 582.95 24.45
3 0 -27 -0.33 3.75
3 0 -26 239.56 12.49
3 0 -25 -2.05 3.52
3 0 -24 98.07 6.83
3 0 -23 -1.28 2.8
3 0 -22 290.34 13.17
3 0 -21 0.14 2.27
3 0 -21 -0.23 2.38
3 0 -20 816.58 28.4
3 0 -20 766.86 29.39
3 0 -19 -0.38 1.91
3 0 -19 2.31 1.89
3 0 -18 -1.39 1.91
3 0 -18 0.72 1.91
3 0 -17 0.55 1.61
3 0 -17 1.52 1.75
3 0 -16 33.41 2.73
3 0 -16 36.05 2.71
3 0 -16 30.57 3.1
3 0 -15 0.28 1.43
3 0 -15 -0.38 1.47
3 0 -15 -0.73 1.67
3 0 -14 1.73 1.39
3 0 -14 1.06 1.53
3 0 -14 5.31 1.44
3 0 -13 1.35 1.3
3 0 -13 -0.08 1.27
3 0 -13 0.48 1.2
3 0 -12 1640.09 57.39
3 0 -12 1721.87 57.49
-3 0 12 1783.21 57.6
3 0 -11 1.46 1.13
-3 0 11 0.22 1.08
3 0 -11 0.07 1.31
3 0 -10 2.17 1.11
-3 0 10 2.64 1.16
3 0 -10 2.95 1.34
3 0 -9 -0.26 0.98
3 0 -9 0.39 1.23
-3 0 9 -0.07 1.04
-3 0 8 3385.33 111.88
3 0 -8 3364.12 111.96
3 0 -7 -0.23 1.23
-3 0 7 -0.22 0.92
-3 0 6 1.56 0.98
3 0 -6 2.53 1.29
3 0 -6 2.23 1.39
3 0 -5 2 1.27
-3 0 5 0.71 0.96
3 0 -5 0.06 1.47
-3 0 4 4259.28 142.54
3 0 -4 4350.27 142.67
-3 0 4 4321.55 142.38
-3 0 3 0.71 1
3 0 -3 0.12 1.48
-3 0 3 0.22 1.15
3 0 -2 25.1 2.22
-3 0 2 28.17 1.94
3 0 -1 2.1 1.7
-3 0 1 0.18 1.32
-3 0 0 30.71 2.27
3 0 0 26.32 2.44
-3 0 -1 0.08 1.57
-3 0 -2 118.43 5.14
-3 0 -3 0.24 1.38
3 0 3 0.16 0.37
3 0 4 1236.98 41.25
-3 0 -4 1319.37 42.4
3 0 5 0.28 0.38
-3 0 -5 0.35 1.41
3 0 5 0.09 1.5
3 0 6 539.27 19.19
-3 0 -6 559.76 19.21
-3 0 -6 532.03 18.08
-3 0 -7 0.36 0.62
3 0 7 2.12 1.58
-3 0 -8 200.03 7
3 0 8 183.57 8.05
-3 0 -9 0.32 0.72
-3 0 -9 1.43 1.49
3 0 9 1.32 1.57
-3 0 -10 50.48 2.33
3 0 10 54.38 3.47
3 0 10 49.6 3.35
-3 0 -10 53.53 3.65
-3 0 -11 -0.77 1.56
3 0 11 0.37 1.64
-3 0 -11 0.47 0.81
3 0 11 0.78 1.4
-3 0 -12 1342.6 44.65
3 0 12 1311.16 46.08
-3 0 -12 1245.76 46.4
3 0 12 1418.08 46.08
3 0 13 -0.95 1.83
-3 0 -13 -0.87 1.85
-3 0 -13 -0.55 0.85
3 0 13 -0.15 1.62
-3 0 -14 327.45 11.66
3 0 14 328.27 13.16
3 0 14 329.49 12.95
-3 0 -14 327.52 13.59
-3 0 -15 -2.33 2.1
-3 0 -15 0.35 0.88
3 0 15 1.12 1.65
-3 0 -16 170.45 6.4
3 0 16 156.4 7.32
-3 0 -16 145.12 8.09
3 0 16 166.04 7.86
-3 0 -17 -0.07 1.11
3 0 17 -0.13 1.76
-3 0 -17 -0.65 2.16
3 0 17 1.23 1.93
-3 0 -18 182.86 7.1
3 0 18 177.75 8.06
-3 0 -18 173.31 9.12
3 0 18 192.26 8.77
-3 0 -19 0.37 1.29
3 0 19 -0.7 1.87
-3 0 -19 -2.62 2.39
3 0 19 -0.75 2
-3 0 -20 585.39 19.88
-3 0 -20 541.97 22.39
3 0 20 543.78 20.82
3 0 20 566.58 21.69
3 0 21 -0.75 2.03
3 0 21 0.41 2.16
-3 0 -21 1.33 2.88
3 0 22 97.78 5.42
-3 0 -22 91.66 6.76
-3 0 -23 2.92 3.21
3 0 23 -0.16 2.05
3 0 24 234.41 10
-3 0 -24 211.05 11.66
-3 0 -25 -0.32 3.42
3 0 25 0.64 2.18
3 0 26 101.45 5.88
-3 0 -26 108.41 8.08
-3 0 -27 1.42 3.79
3 0 27 3.02 2.56
3 0 28 61.26 4.56
-3 0 -28 62.14 6.65
3 0 29 0.17 2.52
-3 0 -29 -0.77 4.39
3 0 30 218.46 9.82
3 -1 -31 6.94 4.98
3 1 -31 4.38 4.67
3 1 -30 41.07 6.11
3 -1 -30 38.23 6.18
3 -1 -29 294.8 14.98
3 1 -29 281.25 14.66
3 1 -28 52.41 5.94
3 -1 -28 47.47 5.91
3 -1 -27 85.75 7.1
3 1 -27 87.62 6.94
3 -1 -26 26.48 4.71
3 1 -26 23.07 4.31
3 -1 -25 64.9 5.94
3 1 -25 64.03 5.81
3 -1 -24 450.01 18.96
3 1 -24 448.11 18.86
3 -1 -23 15.22 3.34
3 1 -23 12.77 3.14
3 -1 -22 86.5 6.06
3 1 -22 80.15 5.84
3 1 -21 231.59 10.74
3 -1 -21 219.34 10.67
3 -1 -20 37.32 3.99
3 1 -20 33.22 3.67
3 -1 -19 14.86 2.8
3 1 -19 17.27 2.7
3 -1 -19 19.54 2.28
3 1 -18 25.26 3.02
3 -1 -18 24.64 3.04
3 -1 -18 27.35 2.41
3 -1 -17 1.87 2
3 1 -17 2.48 1.72
3 -1 -17 2.26 1.44
3 1 -17 3.1 2
3 -1 -16 885.67 32.08
3 1 -16 878.13 31.98
3 1 -16 977.66 31.85
3 -1 -16 872.11 30.75
3 1 -16 936.26 31.17
3 -1 -16 898.86 31.2
3 1 -16 904.24 31.78
3 -1 -16 853.98 31.81
3 1 -15 78.01 3.92
3 -1 -15 82.36 4.16
3 -1 -15 73.07 3.65
3 1 -15 77.04 4.32
3 1 -15 82.27 3.89
3 1 -15 73.81 4.53
3 -1 -15 80.84 4.7
3 -1 -14 330.52 12.56
3 1 -14 313.65 12.38
3 -1 -14 294 11.69
3 1 -14 311.2 11.67
3 1 -14 313.06 11.57
3 -1 -14 310.28 11.36
3 1 -14 345.85 12.28
3 1 -13 1072.76 37.48
3 -1 -13 1110.51 37.61
3 1 -13 1110.46 36.75
3 -1 -13 1018.47 36.84
3 1 -13 1073.95 36.81
3 -1 -13 1052.1 36.44
3 1 -13 1182.83 37.4
3 -1 -12 99.15 4.71
3 1 -12 102 4.61
3 1 -12 97.21 4.4
3 1 -12 128.51 4.8
-3 -1 12 101.43 4.68
-3 1 12 101.29 4.64
3 -1 -12 100.38 4.23
3 -1 -12 103.17 5.11
3 1 -12 102.14 5.03
-3 -1 11 518.23 17.09
-3 1 11 459.49 16.95
3 1 -11 460.16 16.75
3 -1 -11 461.81 16.48
3 -1 -11 448.06 16.93
3 1 -11 479.74 16.91
-3 1 10 15.27 1.61
-3 -1 10 17.07 1.68
3 -1 -10 13.58 1.68
3 1 -10 13.45 1.6
3 1 -10 17.72 1.67
3 1 -9 55.2 2.9
3 -1 -9 53.54 2.95
-3 1 9 55.68 2.87
-3 -1 9 59.75 2.95
3 1 -9 52.79 3.07
3 1 -9 58.13 2.98
3 1 -8 558.04 18.66
3 -1 -8 480.27 18.55
-3 1 8 497.49 18.46
-3 -1 8 561.86 18.61
3 1 -8 507.28 18.69
3 -1 -7 0.88 1.18
3 1 -7 0.69 1.18
-3 -1 7 0.61 1.01
-3 1 7 0.76 1.03
3 1 -7 0.12 1.03
3 1 -7 1.67 1.42
-3 -1 6 21.05 1.33
3 1 -6 23.19 2.18
-3 -1 6 23.27 1.79
3 1 -6 18.69 1.63
-3 -1 6 21.68 1.59
3 1 -6 21.93 1.77
3 -1 -6 19.83 1.68
-3 1 6 18.89 1.53
-3 -1 5 144.44 5.09
3 1 -5 120.85 5.28
-3 -1 5 122.66 4.75
3 -1 -5 113.46 4.83
-3 1 5 116.36 4.72
3 1 -5 127.96 4.95
-3 -1 5 114.03 4.5
3 1 -5 115.42 4.65
3 1 -4 63.48 3.6
-3 -1 4 65.58 3.23
-3 -1 4 59.31 2.54
3 1 -4 58.15 2.67
-3 1 4 61.39 2.8
-3 -1 4 63.18 2.79
-3 -1 3 17.66 2.01
3 1 -3 16.94 1.27
-3 -1 3 18.36 1.12
3 1 -3 16.58 2.04
-3 -1 3 15.28 1.39
-3 1 3 18.29 1.44
-3 -1 2 113.7 5.22
3 -1 -2 107.67 4.66
3 1 -2 111.66 4.23
-3 -1 2 112.12 4.12
3 1 -2 106.11 4.93
3 1 -1 0.71 1.67
-3 -1 1 0.94 0.6
3 -1 -1 0.22 1.31
-3 -1 0 1353.5 46.93
3 1 0 1487.72 47.94
3 -1 0 1464.14 47.53
-3 1 0 1476.08 47.43
-3 1 -1 56.12 2.86
3 -1 1 60.13 3.08
3 -1 2 52.34 2.97
-3 1 -2 51.65 2.7
3 -1 3 537.42 19.02
-3 1 -3 557.51 18.97
3 -1 4 190.76 7.29
3 -1 4 188.14 7.58
-3 1 -4 187.52 7.31
3 -1 5 216.52 8.86
3 1 5 220.03 8.89
3 -1 5 237.08 8.61
-3 1 -5 236.13 8.75
3 1 6 18.63 2.02
3 -1 6 15.35 2.01
3 -1 6 15.02 1.39
-3 1 -6 14.64 2.03
3 1 7 62.35 3.59
3 -1 7 57.14 3.53
-3 1 -7 73.17 3.55
3 -1 7 64.84 3
3 -1 8 61.14 3.74
3 1 8 63.66 3.8
-3 1 -8 76.59 3.71
3 -1 8 72.58 3.2
3 1 9 183.19 7.98
3 -1 9 188.26 8.01
-3 1 -9 202.75 7.8
3 -1 9 185.24 8.09
3 1 9 191.59 8.13
3 -1 9 196.63 7.25
-3 1 -10 20.31 2.45
-3 -1 -10 22.25 2.53
-3 1 -10 26.03 2.37
3 1 10 24.86 2.53
3 -1 10 27.57 2.6
3 -1 10 25.14 1.72
3 -1 10 26.41 2.5
3 1 10 21.78 2.43
3 1 11 1.7 1.65
3 -1 11 1.22 1.62
-3 1 -11 1.42 1.65
-3 -1 -11 0.3 1.62
3 -1 11 1.59 0.9
3 1 11 2.09 1.53
3 -1 11 1.84 1.49
-3 1 -11 1.74 1.5
-3 1 -12 210.5 8.6
3 1 12 217.65 9.04
3 -1 12 199.54 8.94
3 -1 12 207.36 7.79
3 1 12 210.26 8.87
3 -1 12 201.1 8.8
-3 1 -12 212.02 9.44
-3 -1 -12 210.31 9.31
-3 1 -13 425.32 15.75
3 1 13 438.74 15.99
3 -1 13 406.07 15.86
-3 1 -13 419.1 16.7
-3 -1 -13 425.71 16.58
3 1 13 431.31 16.21
3 -1 13 402.69 16.07
3 -1 13 420.01 14.82
-3 1 -14 22.5 2.86
-3 -1 -14 20.88 2.83
3 1 14 17.14 2.45
3 -1 14 14.83 2.4
3 1 14 20.32 2.53
3 -1 14 17.79 2.55
3 -1 15 8.78 2.14
3 1 15 8.92 2.04
3 -1 15 11.81 2.51
-3 1 -15 7.58 1.58
-3 1 -15 10.45 2.54
-3 -1 -15 10.89 2.62
-3 1 -16 565.88 19.86
3 -1 16 560.32 20.97
3 1 16 561.57 21.04
3 -1 16 553.03 20.98
-3 -1 -16 546.13 21.65
-3 1 -16 571.9 21.82
3 1 17 2.44 1.89
3 -1 17 7.14 2.26
-3 1 -17 6.22 1.62
3 1 17 5.28 1.73
3 -1 17 3.69 2.26
-3 -1 -17 5.09 2.49
-3 1 -17 6.55 2.65
3 -1 18 118.54 6.31
3 1 18 96.78 5.12
-3 1 -18 119.24 6.97
-3 -1 -18 127.36 7.2
3 1 18 124 6.46
3 -1 18 104.94 6.11
3 1 19 268.38 10.84
3 -1 19 291.39 11.94
3 1 19 277.07 12.04
3 -1 19 289.45 12.12
-3 1 -19 280.65 12.82
-3 -1 -19 290.52 13.02
-3 -1 -20 607.22 21.46
-3 1 -20 646.41 24.72
-3 -1 -20 646.94 24.85
3 1 20 617.12 22.37
3 -1 20 662.16 23.56
3 -1 20 635.88 23.71
3 1 20 642.3 23.72
-3 -1 -21 448.46 18.32
-3 1 -21 438.96 18.17
3 1 21 397.44 15.67
3 -1 21 433.08 16.87
3 1 21 443.75 17.21
3 -1 21 424 17.12
3 1 22 7.19 1.97
3 -1 22 4.9 2.43
-3 1 -22 4.27 3.06
-3 -1 -22 9.5 3.47
3 1 23 13.13 2.21
3 -1 23 13.27 2.87
-3 1 -23 12.01 3.53
-3 -1 -23 10.7 3.65
-3 1 -24 66.32 5.99
-3 -1 -24 58.9 5.95
3 -1 24 66.31 4.9
3 1 24 62.72 3.94
-3 1 -25 87.92 7.1
-3 -1 -25 97.58 7.62
3 -1 25 91.48 5.88
3 1 25 95.56 5.02
-3 1 -26 247.98 12.99
-3 -1 -26 265.76 13.43
3 -1 26 241.93 11.13
3 -1 27 11.58 3.14
-3 1 -27 6.75 4.22
-3 -1 -27 9.59 4.61
-3 1 -28 87.15 7.8
-3 -1 -28 83.96 7.78
3 -1 28 91.59 6.06
3 -1 29 61.24 4.97
-3 1 -29 51.98 6.59
-3 -1 -29 58.8 7.03
3 -2 -30 1.13 4.36
3 2 -30 2.92 4.34
3 -2 -29 12.27 4.83
3 2 -29 9.44 4.39
3 2 -28 2.34 3.82
3 -2 -28 2.07 4.01
3 2 -27 45.73 5.44
3 -2 -27 45.99 5.65
3 -2 -26 118.56 8.31
3 2 -26 121.1 8.08
3 -2 -25 175.89 10.3
3 2 -25 215.46 10.67
3 -2 -24 50.94 5.44
3 2 -24 53.01 4.99
3 -2 -23 114.47 7.47
3 2 -23 122.16 7.46
3 2 -22 1.19 2.3
3 -2 -22 -3.45 2.92
3 -2 -21 -1.13 2.72
3 2 -21 -1.1 2.31
3 -2 -20 6.38 2.8
3 2 -20 4.93 2.54
3 -2 -19 17.17 3.02
3 2 -19 17.17 2.92
3 2 -19 18.24 2.25
-3 -2 18 163.31 7.28
3 -2 -18 163.67 7.92
3 2 -18 148.5 7.66
3 2 -18 148.31 6.4
-3 -2 17 439.82 16.14
3 2 -17 404 15.23
3 -2 -17 457.12 16.88
3 2 -17 430.53 16.63
3 2 -16 97.12 5.38
3 -2 -16 96.7 5.48
3 2 -16 93.64 5.2
3 -2 -16 103.78 5.42
-3 -2 16 94.92 5
3 2 -16 95.58 4.7
3 -2 -16 98.9 4.83
3 2 -16 95.69 4.52
3 -2 -15 232.34 9.56
3 2 -15 217.17 9.35
3 2 -15 234.78 9.29
3 -2 -15 229.13 9.37
3 2 -15 243.42 8.8
3 -2 -15 227.99 8.81
-3 -2 15 239.62 9.2
3 -2 -15 195.07 7.77
3 2 -15 223.45 8.5
-3 -2 14 8.2 1.81
3 -2 -14 3.41 0.96
3 2 -14 17.34 2.07
3 -2 -14 9.79 1.89
3 2 -14 5.1 1.87
3 -2 -14 4.19 1.86
3 -2 -14 5.93 1.77
3 2 -14 5.35 1.92
3 2 -14 19.9 2.17
-3 -2 14 7.81 1.4
3 -2 -13 138.89 5.34
3 2 -13 147.14 6.22
3 -2 -13 154.42 6.33
3 2 -13 148.38 6.18
-3 -2 13 156.56 6.15
3 -2 -13 155.15 6.82
3 2 -13 155.15 6.75
3 -2 -12 324.91 12.41
3 2 -12 320.37 12.35
3 -2 -12 277.82 10.97
3 2 -12 377.02 12.06
3 -2 -12 325.18 11.93
3 2 -12 411.74 12.18
3 2 -12 351.95 12.68
-3 -2 12 323.93 11.83
-3 -2 11 136.82 5.59
3 2 -11 125.26 5.79
3 -2 -11 126.24 5.88
3 2 -11 128.72 5.85
3 2 -11 150.83 6.34
3 2 -11 133.58 5.56
3 -2 -11 130.5 5.6
3 -2 -10 425.08 15.15
3 2 -10 438.13 15.13
-3 -2 10 419.59 15.06
-3 -2 10 420.93 15.16
3 2 -10 398.93 15.37
3 2 -10 458.32 15.84
3 -2 -10 431.71 15.49
3 2 -10 416.81 15.39
-3 2 9 84.21 3.87
-3 -2 9 86.26 3.89
3 2 -9 78.28 4.21
3 2 -9 97.47 4.59
3 2 -9 92.35 4.04
3 -2 -9 85.01 3.99
-3 -2 9 95.46 4.09
-3 2 8 42.86 2.49
-3 -2 8 54.06 2.7
3 2 -8 49.71 3
3 2 -8 44.55 3.09
-3 -2 8 63.41 2.92
3 -2 -8 52.97 2.82
3 2 -8 64.66 2.99
-3 -2 8 42.25 2.69
-3 -2 7 745.83 24.35
-3 2 7 694.51 24.28
-3 -2 7 733.68 24.61
-3 -2 7 686.54 24.4
3 2 -7 694.09 24.67
3 -2 -7 682.56 24.42
3 2 -7 739.77 24.53
3 2 -7 750.65 24.99
-3 -2 6 286.74 10.28
-3 -2 6 280.16 10.28
3 2 -6 280.98 10.49
-3 -2 6 280.73 9.93
-3 2 6 270.37 9.89
3 2 -6 275.53 10.41
3 2 -5 12.6 1.6
-3 2 5 13.27 1.2
-3 -2 5 13.3 1.25
-3 -2 5 12.36 1.38
3 2 -5 12.03 1.85
-3 -2 5 12.13 1.98
-3 -2 4 630.64 20.86
-3 2 4 621.43 20.84
-3 -2 4 636.47 21.8
-3 -2 4 573.73 21.14
3 2 -4 602.84 21.28
-3 -2 3 0.74 0.98
3 2 -3 0.26 1.04
-3 -2 3 -0.79 1.81
-3 -2 3 0.12 0.86
-3 2 3 0.93 0.85
3 2 -2 51.11 2.67
-3 -2 2 48.06 2.61
-3 -2 2 48.81 3.3
-3 -2 2 53.79 2.48
-3 2 2 58.06 2.51
-3 -2 1 256.54 9.86
3 2 -1 246.09 9.05
-3 -2 0 93.12 5.26
3 2 0 101.93 4.47
3 -2 1 1453.41 49.51
-3 -2 -1 1529.71 50.41
3 -2 2 509.78 17.77
-3 -2 -2 521.85 18.75
3 -2 3 133.24 5.31
3 -2 3 131.47 5.54
3 2 3 130.5 5.52
3 -2 4 78.04 3.8
3 -2 4 83.55 3.98
3 2 4 83.02 3.98
3 2 5 142.7 6.17
3 -2 5 149.04 6.24
3 -2 5 155.6 5.85
3 2 6 73.06 3.65
3 -2 6 67.13 3.56
3 -2 6 64.02 3.03
3 2 7 109.55 4.86
3 -2 7 113.1 4.9
3 2 7 110.74 4.96
3 -2 7 109.02 4.93
-3 2 -7 91.52 3.93
3 2 8 489.44 16.81
3 -2 8 482.19 16.8
3 -2 8 474.85 16.81
3 2 8 445.29 16.69
3 -2 8 481.16 16.67
-3 2 -8 432.9 15.7
3 2 9 448.35 15.07
3 -2 9 409.33 14.94
3 -2 9 407.81 15.02
3 2 9 406.72 15.02
3 -2 9 414.29 14.81
-3 2 -9 374.34 13.95
3 2 10 423.29 14.9
3 -2 10 403.9 14.84
-3 2 -10 371.74 13.93
3 -2 10 400.04 14.56
3 2 10 409.8 14.96
3 -2 10 394.14 14.92
3 2 11 4.48 1.79
3 -2 11 5.36 1.83
3 -2 11 6.05 1.42
-3 2 -11 9.56 1.72
3 -2 11 5.6 2.21
3 -2 11 6.69 1.77
3 2 11 5.29 1.61
3 2 12 19.98 2.43
3 -2 12 18.23 2.38
3 -2 12 20.58 2.04
-3 2 -12 22.02 2.36
3 -2 12 18.86 2.84
3 2 12 21.01 2.41
3 -2 12 23.33 2.51
3 -2 13 18.03 1.95
3 2 13 17.41 2.35
3 -2 13 16.75 2.25
-3 2 -13 16.83 2.3
3 -2 13 18.2 2.82
3 2 13 21.78 2.5
3 -2 13 20.3 2.37
3 -2 14 3.14 2.24
3 2 14 2.4 1.98
3 -2 14 2.02 1.89
3 2 14 2.79 1.85
3 -2 14 1.63 1.78
-3 2 -14 2.62 1.88
3 -2 14 2.92 1.34
-3 2 -15 104.65 5.13
3 -2 15 104.26 4.96
3 2 15 111.92 5.86
3 -2 15 105.1 5.74
3 -2 15 111.97 6.32
-3 2 -15 112.31 6.5
-3 -2 -15 118.6 6.55
-3 2 -16 235.73 9.12
3 -2 16 234.16 8.95
3 2 16 243.19 9.99
3 -2 16 236.21 9.91
3 2 16 197.34 8.25
3 -2 16 250.84 10.4
-3 2 -16 240.89 10.79
-3 -2 -16 216.19 10.49
-3 2 -17 1021.69 33.52
3 -2 17 971.38 33.22
3 2 17 1052.77 34.59
3 -2 17 984.47 34.42
3 -2 17 1053.37 34.88
-3 2 -17 1006.18 35.53
-3 -2 -17 955.02 35.25
3 -2 18 89.53 4.41
-3 2 -18 98.09 5.03
3 -2 18 104.76 6.07
3 2 18 83.56 3.99
-3 -2 -18 83.61 6.06
3 -2 18 93.33 5.53
-3 2 -18 107.89 6.63
3 2 18 93.87 5.61
-3 2 -19 9.67 2.44
-3 2 -19 5.49 3.03
-3 -2 -19 6.03 2.98
3 2 19 7.5 1.45
3 -2 19 11.93 2.83
3 2 20 67.17 3.4
-3 2 -20 71.42 5.7
-3 -2 -20 69.79 5.86
3 -2 20 79.37 5.3
-3 2 -20 68.94 4.48
-3 -2 -21 96.28 6.76
-3 2 -21 88.59 6.62
3 -2 21 95.83 6.01
-3 2 -21 85.99 5.25
-3 2 -22 13.4 3.59
-3 -2 -22 15.31 3.78
3 -2 22 17.72 3.23
-3 2 -23 31.88 4.6
-3 -2 -23 20.72 4.39
3 -2 23 28.74 3.88
-3 2 -24 99.91 7.42
-3 -2 -24 89.73 7.36
3 -2 24 98.78 6.28
-3 2 -25 123.22 8.38
-3 -2 -25 107.68 8.36
3 -2 25 119.03 7.07
3 -2 26 46.32 4.79
-3 2 -26 47.21 5.78
-3 -2 -26 44.81 5.94
-3 2 -27 12.8 4.64
-3 -2 -27 11.75 4.68
3 -2 27 15.35 3.4
3 -2 28 3.28 3.13
3 -3 -27 3.07 3.72
3 3 -27 1.2 3.29
3 -3 -26 58.74 5.95
3 3 -26 59.93 5.64
3 -3 -25 -1.38 3.84
3 3 -25 0.54 3.22
3 -3 -24 4.48 3.56
3 3 -24 3.61 2.95
3 -3 -23 8.06 3.2
3 3 -23 6.17 3.13
3 -3 -22 72.24 5.81
3 3 -22 76.72 5.82
3 -3 -21 29.66 4.16
3 3 -21 37.1 4.13
3 -3 -20 54.98 4.83
3 3 -20 57.83 4.73
3 -3 -19 36.93 4.01
3 3 -19 38.52 3.84
-3 -3 18 603.34 21.98
3 -3 -18 641.83 23.22
3 3 -18 607.48 23.03
3 -3 -17 56.77 4.33
3 3 -17 50.66 4.11
-3 -3 17 64.69 3.72
3 3 -16 23.96 3.06
3 -3 -16 9.6 2.62
-3 -3 16 23.48 2.48
3 3 -16 28.31 3.09
3 -3 -16 8.5 2.68
3 3 -15 121.9 5.35
3 -3 -15 159.02 6.84
3 3 -15 153.2 6.71
3 -3 -15 152.15 7.01
3 3 -15 134.68 6.69
3 3 -15 150.66 6.3
3 -3 -15 147.78 6.31
-3 -3 15 157.13 6.48
3 -3 -14 103.41 5.2
3 3 -14 92.97 5.04
3 -3 -14 99.17 5.28
3 3 -14 100.86 5.23
3 -3 -14 100.62 4.86
3 3 -14 106.97 4.87
-3 -3 14 94.55 4.88
3 -3 -13 922.95 30.89
3 3 -13 868.45 30.76
-3 -3 13 847.35 30.57
3 -3 -13 868.15 30.62
3 3 -13 877.64 30.6
3 -3 -13 894.54 30.28
3 3 -13 875.55 30.27
3 -3 -12 7.23 1.85
3 3 -12 5.13 1.7
3 -3 -12 7.84 1.75
3 3 -12 6.05 1.76
-3 -3 12 8.9 1.73
3 -3 -12 6.41 1.7
3 3 -12 8.68 1.81
3 3 -11 119.21 5.58
3 -3 -11 125.17 5.61
-3 -3 11 117.5 5.63
3 -3 -11 118.94 5.34
3 3 -11 128 5.48
3 3 -11 131.27 5.58
3 -3 -11 132.13 5.61
3 3 -10 374.95 12.23
3 -3 -10 344.52 12.08
3 3 -10 350.43 12.27
3 -3 -10 363.7 12.36
3 3 -10 365.82 12.2
3 -3 -10 363.02 12.22
-3 -3 10 369.85 12.63
3 -3 -9 146.42 5.89
3 -3 -9 155.86 5.94
-3 -3 9 159.84 6.37
-3 -3 9 121.76 5.41
3 3 -9 149.97 5.92
3 -3 -9 150.3 5.95
3 3 -9 150.09 5.85
3 -3 -9 128.07 5.18
-3 -3 8 46.31 3.07
3 -3 -8 33.96 2.24
3 3 -8 48.3 2.66
3 -3 -8 25.55 2.42
-3 -3 7 129.97 5.83
-3 -3 7 126.08 5.56
3 3 -7 135.78 6.22
3 -3 -7 135.07 5.3
3 3 -7 126.77 5.26
-3 -3 6 542.51 19.41
-3 -3 6 533.65 19.32
3 -3 -6 531.94 18.66
3 3 -6 534.48 18.68
3 3 -6 597.32 19.81
-3 -3 5 18.8 1.97
3 3 -5 19.97 2.22
-3 -3 5 18.58 2.82
-3 -3 5 21.05 1.38
-3 3 4 3.23 0.76
-3 -3 4 3.23 0.82
3 3 -4 4.26 1.68
-3 -3 4 2.49 2.34
-3 -3 4 2.38 1.23
3 3 -3 41.67 2.76
-3 -3 3 36.86 3.03
-3 -3 3 35.48 1.71
-3 3 3 32.18 1.64
-3 -3 2 447.17 15.75
3 3 -2 482.95 15.29
-3 3 2 390.25 14.03
-3 -3 2 420.8 14.11
-3 -3 1 46.65 3.42
-3 -3 1 42.43 1.95
-3 3 1 41.83 1.88
3 3 -1 47.55 2.84
-3 -3 0 25 2.97
3 3 0 26.1 1.88
-3 -3 0 49.25 2.1
-3 3 0 57.22 2.02
3 3 0 32 2.45
-3 -3 -1 22.71 2.67
3 3 1 21.27 1.55
3 -3 1 24.45 1.69
3 -3 1 22.28 2.05
3 -3 1 23.38 2.51
3 3 1 23.31 1.95
-3 -3 -2 294.58 11.48
3 3 2 272.84 9.89
3 -3 2 273.15 9.99
3 3 2 291.34 10.25
3 -3 2 265.18 10.1
3 -3 2 284.1 11.22
3 -3 3 61.09 3.97
3 -3 3 52.76 2.82
3 3 3 48.72 2.7
3 3 3 61.95 2.8
3 -3 3 55.75 2.82
3 3 3 57.65 2.89
3 -3 3 55.78 2.93
3 -3 4 8.28 1.69
3 -3 4 4.83 1.46
3 3 4 11.37 1.59
3 3 4 11.35 1.5
3 3 4 7.43 1.53
3 -3 4 3.99 1.61
3 -3 4 12.02 2.64
3 -3 5 1059.66 34.84
3 3 5 1006.09 34.86
3 3 5 1064.37 35.13
3 -3 5 1032.93 35.2
3 -3 5 1018.56 35.24
3 3 5 1017.38 35.16
3 -3 5 1062.87 36.55
3 3 6 353.29 11.52
3 -3 6 346.69 12.08
3 3 6 360.75 12.01
3 3 6 353.14 11.92
3 -3 6 340.26 11.99
3 -3 6 364.41 13.39
3 3 7 348.47 12.59
3 -3 7 375.79 13.38
3 3 7 365.56 13.25
3 -3 7 367.02 14.48
3 3 7 367.54 13.2
3 -3 7 370.87 13.31
3 3 8 10.71 1.96
3 3 8 14.83 1.31
3 -3 8 7.3 1.93
3 -3 8 13.81 3.12
3 -3 8 6.39 1.94
3 3 8 9.11 1.94
3 -3 9 0.83 1.77
3 3 9 1.65 1.43
3 -3 9 0.93 1.5
3 -3 9 2.28 2.13
3 3 9 0.36 0.8
3 3 9 -0.36 1.48
3 -3 9 0.1 1.59
3 3 10 921.05 27.63
3 -3 10 903.48 27.72
3 -3 10 900.08 27.54
3 3 10 889.69 27.42
3 -3 10 884.65 28.94
3 -3 10 881.57 28.15
3 -3 11 87.5 4.72
3 3 11 89.46 4.69
3 -3 11 93.76 5.16
3 -3 11 87.18 5.65
3 -3 11 93.93 4.72
3 3 11 99.64 4.74
3 3 12 11.72 1.99
3 -3 12 10.52 1.98
3 -3 12 10.21 2.2
3 3 12 11.72 2.07
3 -3 12 9.72 1.94
3 -3 13 14.81 2.25
3 -3 13 10.58 2.2
3 3 13 16.53 2.31
3 -3 13 13.65 2.22
3 -3 14 461.4 16.96
3 3 14 468.2 16.97
3 -3 14 430.75 17.01
3 -3 15 33.5 2.98
3 -3 16 21.11 2.6
3 -3 16 20.4 3.53
3 -3 17 87.3 4.89
3 -3 17 91.09 6.19
3 -3 18 85.57 4.8
3 -3 18 88.93 6.09
3 -3 19 8.21 1.95
3 -3 19 4.58 2.99
3 -3 20 55.58 3.77
3 -3 20 68.24 5.38
3 -3 21 346.99 13.63
3 -3 21 376.66 15.42
3 -3 22 94.58 5.04
3 -3 22 106.97 6.72
3 -3 23 1.97 2.99
3 -3 24 19.05 3.92
3 -3 25 12.24 3.47
3 -4 -23 50.16 4.99
3 -4 -22 49.11 4.75
3 -4 -21 26.37 3.81
-3 -4 20 79.15 4.72
3 -4 -20 68.2 5.31
-3 -4 19 102.8 5.4
3 -4 -19 92.7 6.03
3 4 -19 100.81 6.19
-3 -4 18 99.01 5.29
3 -4 -18 89.03 5.71
3 4 -18 95.2 5.83
-3 -4 17 30.77 2.91
3 -4 -17 30.94 3.34
3 4 -17 24.09 3.28
3 -4 -16 -2.54 2.45
3 4 -16 1.86 2.39
-3 -4 16 3.77 1.99
3 -4 -15 -1.93 2.08
3 4 -15 -2.29 2.24
3 -4 -15 -2.37 2.3
-3 -4 15 -1.11 1.81
3 -4 -14 33.44 3.06
-3 -4 14 33.12 3.03
3 -4 -14 30.17 3.01
3 4 -14 35.68 3.15
-3 -4 13 76.47 4.7
3 -4 -13 92.47 4.7
3 4 -13 87.91 4.78
-3 -4 12 125.29 6.05
3 -4 -12 112.25 5.55
3 4 -12 121.02 5.69
-3 -4 11 93.08 5.19
3 -4 -11 99.24 4.73
3 4 -11 99 4.79
-3 -4 10 76.6 4.52
3 -4 -10 71.31 3.81
3 4 -10 83.26 4.01
3 -4 -9 23.22 1.43
-3 -4 9 23.15 2.56
3 -4 -9 22.39 2.03
3 4 -9 25.31 2.14
3 4 -8 16.21 1.74
3 -4 -8 15.59 1.7
-3 -4 8 14.67 1.71
-3 -4 8 15.83 2.3
3 -4 -8 14.89 1.38
3 -4 -7 30.27 1.94
3 4 -7 30.77 1.99
-3 -4 7 37.59 3.05
-3 -4 7 31.75 2.69
3 -4 -7 38.03 2.22
-3 -4 6 302.11 10.32
-3 -4 6 315 10.81
3 -4 -6 338.47 9.77
-3 -4 5 163.64 7.4
3 -4 -5 154.98 6.33
-3 -4 5 145.67 6.96
-3 -4 4 66.63 4.16
3 -4 -4 66.79 3.69
-3 -4 4 72.14 4.98
3 -4 -3 209.74 8.59
3 4 -3 214.3 9.14
-3 -4 3 226 9.43
3 -4 -2 159.18 6.9
3 4 -2 162.06 7.25
-3 -4 2 157.06 7.49
3 4 -1 1.2 1.96
3 -4 -1 -0.11 1.7
-3 -4 1 0.94 2.26
3 4 0 0.11 1.88
3 -4 0 -0.98 1.74
-3 -4 0 -0.33 2.26
3 -4 1 50.08 3.02
3 -4 1 45.05 3.48
3 4 1 42.32 3.2
-3 -4 -1 40.94 3.96
3 -4 2 54.4 3.21
3 -4 2 66.03 4.2
3 4 2 61.48 3.63
-3 -4 -2 53.51 4.42
3 -4 3 208.28 8.08
3 4 3 217.79 8.63
3 -4 3 230.94 9.5
-3 -4 -3 211.68 9.94
3 -4 4 166.2 7.22
3 -4 4 163.54 5.59
3 -4 5 1.66 2.09
3 -4 5 -0.25 1.28
-3 -4 -5 0.16 0.95
3 -4 6 35.89 3.48
-3 -4 -6 29.42 1.89
3 -4 7 73.09 5.02
-3 -4 -7 73.85 3.34
3 -4 8 55.99 4.68
-3 -4 -8 57.24 3.01
3 -4 9 22.73 3.27
-3 -4 -9 20.64 2.09
3 -4 10 491.11 18.73
-3 -4 -10 460.54 16.55
3 -4 11 264.55 11.7
3 -4 11 284.46 12.2
-3 -4 -11 263.76 10.11
3 -4 12 327.76 13.91
3 -4 12 353.22 14.58
-3 -4 -12 334.45 12.48
3 -4 13 41.11 3.96
3 -4 13 49.39 4.67
-3 -4 -13 44.46 3.12
3 -4 14 6.97 2.75
3 -4 14 10.25 3.17
3 -4 15 125.94 7.46
3 -4 15 120.23 6.74
3 -4 16 17.51 2.95
3 -4 16 22.96 3.84
3 -4 17 135.02 7.89
3 -4 17 125.56 6.87
3 -4 18 103.9 6.91
3 -4 18 93.7 5.7
3 -4 19 105.78 6.03
3 -4 20 43.72 3.9
3 -4 21 8.11 2.65
-3 -5 17 42.5 3.89
-3 -5 16 43.01 3.88
-3 -5 15 202.39 9.22
-3 -5 14 16.04 2.91
-3 -5 13 14.01 2.8
-3 -5 12 4.18 2.55
-3 -5 11 16.45 2.78
-3 -5 10 9.62 2.69
-3 -5 9 239.47 10.46
-3 -5 8 93.43 5.54
-3 -5 7 282.31 11.85
-3 -5 6 22.19 3.03
3 -5 -6 23.53 2.09
-3 -5 5 45.34 4.12
3 -5 -5 55.31 3.03
-3 -5 5 44.07 3.84
-3 -5 4 3.41 3.35
3 -5 -4 2.84 1.61
-3 -5 4 2.27 2.18
-3 -5 3 -3.59 3.42
3 -5 -3 1.27 1.72
-3 -5 3 -0.16 2.13
-3 -5 2 93.79 5.82
3 -5 -2 95.31 4.85
-3 -5 1 250.72 10.96
3 -5 -1 245.96 9.97
-3 -5 0 101.35 6.42
3 -5 0 106.43 5.42
-3 -5 -1 216.87 10.33
3 -5 1 224.51 9.39
3 -5 2 1.29 2.09
-3 -5 -2 1.92 3.11
-3 -5 -3 139.78 8.23
3 -5 3 162.17 7.46
3 -5 4 17.06 2.91
-3 -5 -4 14.33 3.8
3 -5 5 29.94 3.6
-3 -5 -5 30.82 4.46
-3 -5 -6 42.19 5.1
3 -5 6 51.68 4.33
3 -5 7 364.25 14.83
-3 -5 -7 351.13 15.79
3 -5 8 25.08 3.63
3 -5 9 89.08 5.95
3 -5 10 7.76 3.09
3 -5 11 149.29 8.36
3 -5 12 3.59 3.2
3 -5 13 3.57 2.98
3 -5 13 14.68 3.67
3 -5 14 6.44 3.33
3 -5 14 9.43 3.5
3 -5 15 165.7 8.87
3 -5 15 131.74 7.94
4 0 -31 -2.43 4.77
4 0 -30 438.72 20.17
4 0 -29 -0.37 4.19
4 0 -28 573.26 24.13
4 0 -27 -0.32 3.62
4 0 -26 40.13 5.22
4 0 -25 3.46 3.24
4 0 -24 90.14 6.69
4 0 -23 0.25 2.54
4 0 -22 110.23 6.9
4 0 -21 0.44 2.36
4 0 -20 709.89 24.68
4 0 -20 642.45 25.54
4 0 -19 0.59 2.04
4 0 -19 0.5 1.91
4 0 -18 5.25 2.23
4 0 -18 6.8 2.05
4 0 -17 -0.86 1.83
4 0 -17 2.86 1.8
4 0 -16 103.87 4.94
4 0 -16 94.08 4.82
4 0 -16 101.87 5.63
4 0 -15 1.62 1.45
4 0 -15 0.78 1.5
-4 0 15 1.69 1.43
4 0 -14 40.05 2.68
-4 0 14 38.27 2.75
4 0 -14 35.5 2.69
4 0 -13 -0.08 1.31
4 0 -13 1.35 1.53
-4 0 13 -1.19 1.41
4 0 -12 2871.29 97.54
-4 0 12 2946.99 97.79
4 0 -12 2991.75 97.81
-4 0 11 0.16 1.18
4 0 -11 0.75 1.45
4 0 -11 0.79 1.07
-4 0 10 470.11 16.53
4 0 -10 459.93 16.64
4 0 -9 0.38 1.4
-4 0 9 1.86 1.14
4 0 -8 54.76 3.08
-4 0 8 51.49 2.79
4 0 -8 48.51 3.18
4 0 -7 0.71 1.62
-4 0 7 1.14 1.12
4 0 -7 -0.56 1.41
4 0 -6 -0.23 1.61
-4 0 6 -0.12 1.04
4 0 -6 0.55 1.36
-4 0 5 -1.37 1.47
4 0 -5 -0.23 1.64
-4 0 5 -1.23 1.1
-4 0 4 5485.48 181.84
4 0 -4 5397.69 182.1
-4 0 4 5612.62 181.99
4 0 -3 -0.82 1.96
-4 0 3 0.37 1.34
4 0 -2 1.22 2.08
-4 0 2 2.15 1.46
4 0 -1 0.44 2.19
-4 0 1 0.75 1.65
-4 0 0 2073.14 67.12
4 0 0 1924.25 67.14
-4 0 -1 0.59 1.78
-4 0 -2 174.95 7.49
-4 0 -3 1.8 1.67
4 0 4 3375.07 111.27
-4 0 -4 3397.9 112.71
4 0 5 0.26 0.41
-4 0 -5 -0.56 1.63
4 0 6 15.76 0.84
4 0 6 16.08 2.31
-4 0 -6 13.04 2.07
4 0 7 0.94 1.61
-4 0 -7 -1.2 1.69
4 0 8 41.27 3.2
-4 0 -8 45.56 3.32
4 0 9 -0.65 1.77
-4 0 -9 -0.04 0.64
-4 0 -9 0.53 1.75
4 0 10 53.49 3.67
-4 0 -10 59.89 3.9
-4 0 -10 52.44 2.45
-4 0 -11 0.58 0.8
4 0 11 -0.84 1.75
4 0 12 1614.91 55.36
4 0 12 1626.3 55.16
-4 0 -12 1597.99 53.59
4 0 13 -0.98 1.87
-4 0 -13 0.26 0.92
4 0 13 -0.46 1.94
4 0 14 237.17 10.08
-4 0 -14 221.67 8.32
4 0 15 0.36 1.89
-4 0 -15 0.6 1.01
-4 0 -15 1.05 2.03
4 0 16 118.52 6.61
-4 0 -16 126.28 5.07
-4 0 -16 108.11 6.83
4 0 17 2.3 2.21
-4 0 -17 -0.47 1.16
-4 0 -17 -0.94 2.37
4 0 18 268.19 11.47
-4 0 -18 253.84 9.54
-4 0 -18 245.49 11.91
-4 0 -19 -2.07 2.87
4 0 19 1.85 2.36
-4 0 -19 -0.45 1.31
4 0 19 -0.31 2.22
-4 0 -20 286.15 13.42
4 0 20 282.89 11.9
-4 0 -20 291.04 10.77
4 0 20 284.59 12.6
4 0 21 -0.65 2.07
-4 0 -21 -2.83 3.1
4 0 21 0.44 2.29
4 0 22 7.41 2.37
-4 0 -22 4.73 3.37
4 0 22 10.79 2.93
4 0 23 0.34 2.27
-4 0 -23 -2.46 3.28
4 0 23 -1.4 2.58
4 0 24 65.38 4.77
-4 0 -24 82.98 6.59
4 0 24 66.04 5.43
4 0 25 -1.74 2.39
-4 0 -25 0.33 3.56
4 0 26 17.56 3.23
-4 0 -26 17.24 4.59
4 0 27 -1.96 2.67
4 0 28 2.17 2.65
4 0 29 1.1 2.61
4 -1 -31 -1.63 5.03
4 1 -31 -4.42 4.95
4 -1 -30 -0.76 4.43
4 1 -30 -4.89 4.62
4 -1 -29 221.93 12.78
4 1 -29 245.99 13.12
4 -1 -28 170.31 10.46
4 1 -28 168.47 10.32
4 -1 -27 10.39 3.99
4 1 -27 16.64 4.03
4 -1 -26 270.46 13.39
4 1 -26 272.9 13.27
4 -1 -25 -0.29 3.31
4 1 -25 3.97 3.34
4 -1 -24 252.69 12.31
4 1 -24 249.69 12.15
4 -1 -23 33.15 3.23
4 -1 -23 36.68 4.31
4 1 -23 36.05 4.26
4 -1 -22 3.31 2.66
4 1 -22 3.05 2.51
4 -1 -22 2.28 2.13
4 -1 -21 181.71 7.74
4 -1 -21 188.45 9.3
4 1 -21 170.77 8.99
4 -1 -20 262.32 10.34
4 -1 -20 250.83 11.67
4 1 -20 274.61 11.82
4 -1 -19 57.03 3.44
4 1 -19 48.04 4.13
4 -1 -19 53.24 4.34
4 -1 -18 30.86 2.58
4 -1 -18 33.89 3.39
4 1 -18 31.24 3.27
4 -1 -17 150.36 6.68
4 1 -17 180.6 7.24
4 -1 -17 160.3 7.9
4 1 -17 168.53 7.97
4 1 -16 282.61 12.48
4 -1 -16 289.4 12.52
4 1 -16 326.81 12.37
4 1 -16 322.05 11.84
4 -1 -16 297.4 11.87
4 -1 -16 294.63 11.44
-4 -1 15 42.35 2.99
4 -1 -15 43.31 2.62
4 1 -15 45.05 3.18
4 -1 -15 37.41 2.98
4 1 -15 44.45 2.92
4 1 -15 45.44 3.1
4 1 -15 49 2.75
4 -1 -15 39.46 3.3
4 1 -15 43.96 3.35
4 1 -14 108.83 5.15
4 -1 -14 102.07 4.39
-4 1 14 98.46 4.81
-4 -1 14 108.35 4.97
4 1 -14 103.35 4.88
4 1 -14 97.06 4.73
4 -1 -14 87.44 4.76
4 -1 -13 149.83 5.97
4 1 -13 154.06 6.62
4 1 -13 144.4 6.34
4 -1 -13 153.87 6.54
4 1 -13 149.33 6.43
-4 1 13 156.38 6.46
-4 -1 13 156.84 6.47
4 -1 -12 462.29 17.53
4 1 -12 499.54 17.54
4 1 -12 527.81 17.62
-4 -1 12 503.91 17.58
-4 1 12 465.75 17.44
4 1 -11 491.49 17.38
4 -1 -11 476.25 17.45
4 1 -11 478.49 17.37
-4 1 11 492.61 17.37
-4 -1 11 499.79 17.41
-4 1 10 214.07 8.18
4 -1 -10 195.33 8.26
4 1 -10 209.83 8.24
-4 -1 10 217.08 8.22
4 1 -10 223.66 8.39
4 1 -9 161.79 6.4
-4 -1 9 155.35 6.08
4 -1 -9 141.17 6.17
-4 1 9 148.35 6.02
4 1 -9 148.87 6.14
4 1 -9 151.75 6.15
4 1 -9 139.64 5.7
4 1 -8 128.58 5.59
4 1 -8 125.58 5.33
-4 1 8 119.77 5.08
4 -1 -8 116.99 5.3
-4 -1 8 134.17 5.19
4 1 -8 119.42 5.12
4 1 -8 116.81 4.81
4 1 -7 1.81 0.86
4 1 -7 3.16 1.4
4 -1 -7 2.64 1.43
-4 -1 7 2.66 1.09
-4 1 7 1.79 1.17
4 1 -7 2.8 1.91
-4 -1 7 4.04 1.47
4 1 -6 50.93 2.44
4 1 -6 53.71 3.42
-4 -1 6 55.7 3.1
-4 -1 6 52.56 2.73
-4 1 6 53.54 2.76
4 1 -5 41.83 2.04
4 1 -5 35.73 3.07
-4 -1 5 43.06 2.73
-4 1 5 41.18 2.33
-4 -1 5 37.06 2.25
4 1 -4 80.96 3.21
4 1 -4 67.95 4.22
-4 -1 4 76.66 4.08
-4 -1 4 74.03 3.52
-4 1 4 78.39 3.6
4 1 -3 14.17 1.15
-4 -1 3 13.9 0.93
-4 -1 3 14.58 2.17
4 1 -3 15.02 2.33
4 -1 -2 34.76 2.59
-4 -1 2 32.69 1.52
4 1 -2 33.58 1.73
4 1 -2 31.52 2.93
4 -1 -1 209.57 8.01
-4 1 1 212.02 7.83
-4 -1 1 196.1 6.99
4 1 -1 209.52 8.37
4 -1 0 719.74 25.31
-4 1 0 699.53 25.19
-4 -1 0 737.92 24.37
4 1 0 763.68 25.78
-4 1 -1 49.73 2.91
4 -1 1 51.54 3.16
-4 -1 -1 51.5 2.01
4 1 1 60.52 3.59
4 -1 2 1.08 1.8
-4 1 -2 4.21 1.57
-4 -1 -2 2.91 0.47
-4 1 -3 318.04 11.43
-4 -1 -3 287.06 11.81
4 -1 3 307.26 11.46
-4 1 -4 754.15 26.89
-4 -1 -4 807.95 27.54
4 -1 4 780.57 26.94
-4 1 -5 1388.22 47.44
4 -1 5 1449.71 47.45
-4 -1 -5 1343.64 47.93
4 -1 6 7.66 1.95
4 1 6 8.68 1.93
-4 -1 -6 6.87 1.99
-4 1 -6 8.3 2.24
4 -1 6 7.67 1.78
4 -1 7 152.27 6.92
4 1 7 151.29 6.95
4 -1 7 149.49 5.91
-4 1 -7 165.19 6.93
4 -1 8 1350.01 45.73
4 1 8 1344.07 45.71
-4 1 -8 1331.94 45.34
4 -1 8 1307.23 44.54
4 -1 9 0.99 0.86
-4 1 -9 2.21 1.77
4 1 9 -0.25 1.57
4 -1 9 1.52 1.64
4 -1 10 132.93 5.27
4 1 10 131.31 6.35
4 -1 10 126.79 6.35
-4 1 -10 137.06 6.2
-4 1 -11 57.75 3.73
4 1 11 56.86 3.82
4 -1 11 52.46 3.79
4 -1 11 56.52 2.76
4 1 11 58.19 3.95
4 -1 11 50.13 3.83
4 1 12 4.18 2
4 -1 12 0.29 1.99
4 -1 12 0.3 0.83
-4 1 -12 1.94 1.95
4 -1 12 0.95 1.75
4 1 12 0.94 1.67
4 1 13 396.9 14.76
4 -1 13 378.87 14.65
-4 1 -13 359.85 14.41
4 1 13 368.2 14.8
4 -1 13 344.51 14.64
4 -1 13 384.6 13.32
-4 1 -14 62.09 4.26
4 -1 14 69.56 3.19
4 1 14 61.65 4.37
4 -1 14 69.31 4.59
4 1 15 24.1 3.02
4 -1 15 21.37 2.98
-4 1 -15 24.88 2.97
-4 1 -16 234.84 9.87
-4 -1 -16 212.33 7.89
4 1 16 241 10.16
4 -1 16 229.57 10.1
-4 1 -17 1.86 2.33
-4 -1 -17 0.93 0.85
4 1 17 -0.19 2.26
4 -1 17 0.76 2.11
4 -1 17 2.46 2.32
-4 1 -18 347.13 13.66
-4 1 -18 348.71 14.68
-4 -1 -18 318.29 11.51
4 -1 18 326.94 13.68
4 -1 18 329.51 13.77
4 1 18 330.5 13.82
4 -1 19 16.69 3.06
4 1 19 11.82 2.3
4 1 19 16.71 3.05
4 -1 19 11.25 2.92
-4 1 -19 16.29 3.54
-4 -1 -19 10.03 3.2
-4 -1 -19 12.72 1.35
-4 1 -19 15.63 3.08
-4 1 -20 102.25 6.4
4 1 20 113.98 6.61
4 -1 20 112.38 6.59
-4 1 -20 126.93 7.59
-4 -1 -20 119.74 7.38
4 -1 20 107 6.41
4 1 20 99.41 5.43
-4 -1 -20 105.76 4.46
-4 1 -21 266.33 11.37
4 1 21 251.93 11.32
4 -1 21 243.23 11.26
-4 1 -21 254.26 12.28
-4 -1 -21 250.94 12.22
4 1 21 236.33 9.98
4 -1 21 238.63 10.9
-4 -1 -21 241.53 9.02
4 1 22 166.56 8.37
4 -1 22 157.6 8.29
4 1 22 140.83 6.91
4 -1 22 144.94 7.81
-4 1 -22 158.31 9.14
-4 -1 -22 148.53 9.02
-4 1 -22 149.78 8.15
-4 1 -23 -1.55 3.14
-4 -1 -23 -0.93 3.22
4 1 23 -0.46 2.45
4 -1 23 -2.33 2.84
4 1 23 -0.26 1.98
4 -1 23 -1.81 2.52
-4 1 -23 -1.1 3.23
4 1 24 87.66 5.05
4 -1 24 93.03 6.04
-4 1 -24 104.89 6.7
4 1 25 2.61 2.19
4 -1 25 1.87 2.69
-4 1 -25 -3.04 3.61
4 -1 26 57.54 4.88
-4 1 -26 47.85 5.28
4 -1 27 24.64 3.78
-4 1 -27 29.22 4.5
4 -1 28 14.08 3.49
4 -2 -30 25.19 5.4
4 2 -30 18.94 5.05
4 -2 -29 77.88 7.34
4 2 -29 96.09 7.7
4 -2 -28 4.35 4.25
4 2 -28 1.64 3.85
4 -2 -27 6.42 3.84
4 2 -27 9.15 3.84
4 -2 -26 201.29 11.09
4 2 -26 206.93 10.97
4 -2 -25 416.83 18.26
4 2 -25 441.93 18.39
4 -2 -24 164.42 9.39
4 2 -24 174.19 9.21
4 -2 -23 77.13 5.85
4 2 -23 66.83 5.47
4 -2 -22 43.01 4.47
4 2 -22 53.82 4.56
4 -2 -21 1.34 2.6
4 2 -21 5.27 2.47
4 2 -20 69.99 4.05
4 -2 -20 55.76 4.65
4 2 -20 57.21 4.68
4 -2 -19 2.79 1.33
4 -2 -19 4.61 2.25
4 2 -19 6.95 2.27
4 2 -19 3.6 2.05
4 -2 -18 94.53 4.27
4 -2 -18 106.62 5.94
4 2 -18 107.98 5.92
4 2 -18 99.7 4.89
4 -2 -17 491.68 17.03
4 2 -17 447.88 17.51
4 2 -17 513.4 18.81
4 -2 -17 555.7 19.09
4 2 -16 141.53 5.89
4 -2 -16 109.66 4.86
4 2 -16 130.38 5.72
4 -2 -16 129.71 6.44
4 2 -16 121.75 6.33
4 2 -15 126.24 5.64
4 -2 -15 117.05 5.62
4 -2 -15 124.53 4.83
4 2 -15 110.98 5.51
4 -2 -15 128.93 6.23
4 2 -15 123.1 6.18
4 2 -14 23.39 2.38
4 -2 -14 24.82 2.51
4 -2 -14 27.25 1.71
4 2 -14 26.58 2.7
4 -2 -14 23.16 2.45
4 2 -14 20.64 2.5
-4 -2 13 34.56 2.56
4 2 -13 36.82 2.74
4 -2 -13 34.31 2.74
4 2 -13 35.08 2.9
4 -2 -13 35.06 2.82
4 2 -13 30.69 2.77
4 2 -12 447.16 15.19
4 -2 -12 394.3 15.05
-4 -2 12 391.56 14.72
-4 -2 12 432.59 15.02
-4 2 12 395.94 14.86
4 2 -12 403.21 15.25
4 2 -12 461.18 15.68
4 2 -12 402.56 15.09
-4 -2 11 127.41 5.51
-4 2 11 134.7 5.61
4 2 -11 119.9 6.11
4 2 -11 136.97 5.82
-4 -2 11 144.67 5.54
4 2 -11 129.53 5.76
4 -2 -11 124.64 5.72
4 2 -11 132.56 6.12
-4 -2 10 176.71 6.63
-4 2 10 161.59 6.51
4 2 -10 163.16 6.75
-4 -2 10 156.11 6.42
4 2 -10 159.97 7.23
4 -2 -10 154.97 6.67
4 2 -10 162.47 6.73
4 2 -10 167.03 7.06
-4 -2 9 1358.4 44.78
-4 2 9 1354.85 44.78
4 2 -9 1254.48 45.37
4 2 -9 1345.52 45
4 -2 -9 1251.3 44.91
-4 -2 9 1270.93 44.85
4 2 -9 1363.37 45.07
-4 -2 9 1339.51 44.79
4 2 -9 1420.37 45.35
4 2 -8 21.87 2.52
4 -2 -8 22.9 2.13
-4 2 8 21.22 1.82
-4 -2 8 29.43 1.94
-4 -2 8 22 2.16
-4 -2 8 23.3 1.82
4 2 -8 23.33 2.15
4 2 -7 279.69 11.33
-4 -2 7 294.93 10.74
-4 2 7 306.22 10.76
-4 -2 7 292.53 11.07
-4 -2 7 294.74 10.77
4 2 -7 304.65 11.14
4 2 -6 35.83 2.94
-4 -2 6 49.73 3.2
-4 -2 6 38.79 2.32
4 2 -6 41.26 2.63
-4 -2 6 45.92 2.4
-4 2 6 43.85 2.4
-4 -2 5 14.72 1.39
-4 2 5 16.17 1.51
-4 -2 5 14.34 1.46
4 2 -5 12.2 1.56
-4 -2 5 16 2.4
4 2 -5 10.73 2
4 2 -4 42.43 3.68
-4 2 4 64.19 3.21
-4 -2 4 48.76 2.88
-4 -2 4 74.04 4.4
4 2 -4 58.23 3.15
-4 -2 3 150.27 6.03
-4 2 3 161.76 6.1
-4 -2 3 166.53 7.29
4 2 -3 153.15 6.14
-4 -2 3 151.31 6.02
-4 -2 2 189.31 7.02
4 -2 -2 173.58 7.37
-4 -2 2 196.32 8.11
-4 -2 1 697.74 23.36
4 -2 -1 649.11 23.74
-4 -2 1 712.13 24.52
-4 -2 0 8.66 2.02
4 -2 0 5.63 1.71
4 -2 1 988.4 33.49
-4 -2 -1 971.02 34.32
4 -2 2 29.17 2.47
-4 -2 -2 31.66 2.95
4 -2 3 37.5 2.7
-4 -2 -3 33.22 3.01
4 2 4 106.55 5.18
4 -2 4 107.93 5.19
4 -2 4 102.3 5
-4 -2 -4 110.16 5.78
4 -2 5 291.17 11.03
4 2 5 289.38 10.99
4 -2 5 277.44 10.64
4 -2 6 39.26 2.97
4 2 6 38.55 2.95
-4 2 -6 40.06 2.38
4 -2 6 42.16 2.63
-4 2 -7 426.28 15.25
4 2 7 444.62 16.1
4 -2 7 444.25 16.14
-4 2 -8 31.21 2.27
4 -2 8 25.83 2.63
4 2 8 29.85 2.66
-4 2 -9 287.92 11.09
4 -2 9 300.28 11.49
4 2 9 317.73 12.13
4 2 9 315.35 11.94
4 -2 9 305.87 11.92
-4 2 -10 114.63 5.32
4 -2 10 125.01 5.55
4 -2 10 116.01 6.01
4 2 10 111.42 5.83
4 2 10 133.19 6.07
4 -2 10 122.17 5.96
4 -2 11 24.67 2.79
4 2 11 23.18 2.58
4 -2 11 21.57 2.56
-4 2 -11 23.79 2.47
4 2 11 25.01 2.74
4 -2 11 20.95 2.09
-4 2 -12 10.71 2.35
4 -2 12 10.17 1.66
4 2 12 9.01 2.33
4 -2 12 10.31 2.3
4 2 12 7.93 2.22
4 -2 12 11.24 2.27
-4 2 -13 8.11 2.43
4 -2 13 7.84 1.55
4 2 13 8.48 2.35
4 -2 13 6.58 2.16
4 2 13 8.37 2.13
4 -2 13 7.9 2.22
4 2 14 13.55 2.48
4 -2 14 18.65 2.62
-4 2 -14 14.72 2.74
4 -2 14 18.98 3.15
4 -2 14 14.75 1.85
4 -2 15 74.97 4.9
4 2 15 77.07 4.92
4 -2 15 67.76 5.12
-4 2 -15 71.77 4.56
4 -2 15 71.99 3.82
4 2 16 108.5 6.25
4 -2 16 117.21 6.4
4 -2 16 115.02 6.71
-4 2 -16 107.46 5.81
4 -2 16 122.86 5.34
4 2 17 134.12 7
4 -2 17 117.53 6.76
4 -2 17 124.3 7.17
-4 2 -17 127.15 6.28
4 -2 17 129.04 5.65
4 -2 18 294.68 11.95
4 2 18 282.15 11.86
4 -2 18 298.11 12.26
-4 2 -18 286.64 11.05
4 -2 18 267.2 10.26
4 2 19 28.42 2.39
4 -2 19 34.61 3.91
-4 2 -19 27.31 3.23
4 -2 19 30.68 2.41
4 2 19 29.87 3.45
4 -2 19 31.16 3.51
4 -2 20 30.16 3.85
4 2 20 21.97 2.35
-4 2 -20 22.01 3.19
4 2 20 21.67 3.32
4 -2 20 21.3 3.24
4 -2 21 25.07 3.75
-4 2 -21 28.55 3.41
4 2 21 26.18 3.54
4 -2 21 22.81 3.47
4 -2 22 2.71 2.89
4 -2 23 29.72 4.14
4 -2 24 73.28 5.71
4 -2 25 83.77 6.09
4 -2 26 43.21 4.66
4 -2 27 15.22 3.58
4 -3 -27 -1.82 3.79
4 3 -27 -1.18 3.24
4 -3 -26 63.07 6
4 3 -26 68.04 6.17
4 -3 -25 0.82 3.52
4 3 -25 -0.81 3.43
4 -3 -24 9.74 3.61
4 3 -24 6.29 3.44
4 -3 -23 33.56 4.29
4 3 -23 35.21 4.36
4 -3 -22 118.21 7.21
4 3 -22 110.94 7.07
4 -3 -21 244.1 11.2
4 3 -21 231.73 10.96
4 -3 -20 61.46 4.82
4 3 -20 63.79 4.76
4 -3 -19 1.69 2.42
4 3 -19 2.77 2.36
4 -3 -18 292.49 12.27
4 3 -18 289.43 12.22
4 -3 -17 22.37 2.99
4 3 -17 24.79 2.96
-4 -3 17 20.65 2.17
-4 -3 16 73.72 4.02
4 3 -16 76.71 4.67
4 -3 -16 63.33 4.45
4 3 -15 134.58 6.14
4 3 -15 147.28 6.98
4 -3 -15 159.88 7.18
4 -3 -15 157.06 6.92
4 3 -15 144.27 6.77
4 3 -15 156.81 6.74
4 -3 -15 153.37 6.66
-4 -3 15 157.51 6.6
4 3 -14 240.41 9.77
4 3 -14 256.46 10.51
4 -3 -14 259.27 10.57
4 3 -14 263.81 10.37
4 -3 -14 259.11 10.38
4 3 -14 301.61 10.44
4 -3 -14 258.26 10.2
-4 -3 14 260.93 10.24
4 3 -13 568.93 21
4 3 -13 602.08 21.46
4 -3 -13 617.4 21.55
4 -3 -13 588.04 21.33
4 3 -13 624.46 21.46
4 3 -13 594.02 21.62
4 -3 -13 631.6 21.78
-4 -3 13 609.04 21.46
-4 -3 12 2.65 1.45
4 3 -12 1.96 1.55
4 -3 -12 -0.22 1.61
4 3 -12 2.6 1.58
4 -3 -12 0.89 1.82
-4 -3 11 38.83 2.61
4 -3 -11 36.52 2.67
4 3 -11 34.21 2.61
4 -3 -11 28.94 2.63
-4 -3 10 139.15 6.01
-4 -3 10 158.84 6.53
4 3 -10 152.84 6.4
4 -3 -10 159.17 6.47
-4 -3 9 0.87 1.22
-4 -3 9 0.39 1.23
-4 -3 9 0.07 1.61
4 3 -9 0.49 1.17
-4 3 8 9.99 1.54
-4 -3 8 10.78 1.78
-4 3 7 2.56 1.14
-4 -3 7 1.44 1.04
4 3 -7 0.93 1.7
-4 -3 7 4.17 2.26
-4 -3 7 1.44 1.24
-4 -3 6 976.52 34.3
-4 -3 6 1039.04 33.96
4 3 -6 1048.41 34.19
-4 3 6 944.44 33.15
-4 -3 6 976.04 33.17
-4 -3 5 71.71 3.15
-4 3 5 65.08 3.05
-4 -3 5 70.72 4.67
-4 -3 5 74.24 3.73
4 3 -5 69.88 3.89
-4 -3 4 5.47 1.41
4 3 -4 4.63 1.57
-4 -3 4 4.91 2.84
-4 3 4 4.39 1.07
-4 -3 4 3.13 1.01
-4 -3 3 167.61 6.86
-4 3 3 168.75 6.23
-4 -3 3 161.22 6.24
4 3 -3 173.34 6.98
-4 -3 3 170.49 7.88
-4 -3 2 416.8 15.68
-4 -3 2 436.44 15.14
-4 3 2 440.07 15.11
4 3 -2 461.78 15.82
-4 -3 2 428.92 16.61
4 -3 -1 153.35 6.7
-4 -3 1 163.47 6.12
-4 3 1 154.16 6.02
4 3 -1 163.43 6.54
-4 -3 1 162.38 7.48
-4 -3 0 18.78 3.29
4 3 0 25.38 2.39
-4 -3 -1 178.93 8.17
4 3 1 179.03 6.87
4 -3 1 166.9 7
4 -3 1 171.86 7.02
-4 -3 -2 678.87 24.53
4 3 2 663.04 23.01
4 -3 2 674.13 23.18
4 -3 2 662.7 23.24
4 3 2 666.92 23.16
-4 -3 -3 322.28 12.87
4 3 3 304.41 11.14
4 -3 3 307.53 11.37
4 -3 3 317.25 11.62
4 3 3 302.01 11.44
-4 -3 -4 135.67 7.09
4 3 4 135.3 5.46
4 -3 4 138.22 5.84
4 3 4 135.18 5.81
4 -3 4 140.56 5.96
4 -3 5 447.44 15.65
4 3 5 434.54 15.84
4 -3 5 456.66 16.04
4 3 5 426.51 15.28
4 3 6 284.19 10.46
4 3 6 294.2 11.24
4 -3 6 295.86 11.38
4 3 6 317.56 11.27
4 -3 6 306.79 11.35
4 -3 6 284.99 10.62
4 3 7 1.05 0.96
4 3 7 0.31 1.49
4 -3 7 0.33 1.49
4 3 7 1.1 1.59
4 -3 7 2.7 1.83
4 -3 8 37.26 4.01
4 3 8 34.91 2.95
4 -3 8 32.69 2.98
4 3 8 36.08 2.9
4 -3 8 33.07 2.99
4 3 8 38.41 2.04
4 -3 9 8.62 2.07
4 3 9 10.11 2.11
4 3 9 9.19 1.92
4 -3 9 9.43 2.07
4 -3 9 10.7 2.24
4 3 9 10.46 1.11
4 -3 9 10.24 2.84
4 3 10 167.75 7.01
4 -3 10 172.36 7.12
4 3 10 164.46 7.09
4 -3 10 165.35 7.21
4 3 10 141.35 5.67
4 -3 10 159.9 8.3
4 -3 10 164.18 7.38
4 -3 11 61.98 4.27
4 3 11 69.33 4.22
4 -3 11 70.14 4.3
4 -3 11 71.24 5.25
4 3 11 67.04 4.07
4 -3 11 71.05 4.23
4 3 12 83.49 4.74
4 -3 12 93.24 4.95
4 -3 12 77.91 4.82
4 3 12 82.63 4.81
4 -3 12 84.33 4.86
4 3 13 94.08 5.09
4 3 13 87.08 5.04
4 -3 13 89.93 5.23
4 -3 13 89.49 5.13
4 3 14 249.72 10.24
4 -3 14 225.53 10.19
4 -3 14 240.21 10.06
4 -3 15 13.89 2.29
4 3 15 13.81 2.54
4 -3 15 17.49 2.75
4 -3 16 2.43 1.94
4 -3 16 -0.46 2.73
4 3 16 2.14 2.16
4 -3 16 1.04 2.18
4 -3 17 32.52 4.38
4 -3 17 32.71 3.5
4 -3 17 38.13 3.09
4 -3 18 25.82 3.9
4 -3 18 26.79 2.77
4 -3 19 4.88 2.97
4 -3 19 6.98 1.89
4 -3 20 53.04 5.09
4 -3 20 48.81 3.49
4 -3 21 460.97 18.2
4 -3 21 414.24 16.01
4 -3 22 47.67 4.98
4 -3 22 38.64 3.15
4 -3 23 3.46 3.4
4 -3 24 18.06 3.86
4 -4 -23 94.58 6.51
4 -4 -22 1.69 3.13
4 -4 -21 3 3.03
4 -4 -20 81.45 5.55
4 -4 -19 31.84 3.84
4 4 -19 26.09 3.58
-4 -4 19 39.41 3.26
-4 -4 18 129.18 6.14
4 -4 -18 122.76 6.67
4 4 -18 115.53 6.65
-4 -4 17 63.54 3.92
4 -4 -17 54.4 4.25
4 4 -17 52.72 4.3
-4 -4 16 1.58 1.8
4 -4 -16 -0.29 2.19
4 4 -16 -1.78 2.29
-4 -4 15 10.27 2.1
4 -4 -15 9.16 2.43
4 4 -15 9.94 2.32
4 -4 -14 108.52 5.67
4 4 -14 117.26 5.84
-4 -4 14 117.04 5.83
4 -4 -14 126.07 5.79
-4 -4 13 1.55 1.71
4 -4 -13 1.34 1.82
4 4 -13 1.64 1.89
4 -4 -13 1.13 1.88
4 -4 -12 130.96 5.93
4 4 -12 135.31 6.09
4 -4 -12 127.01 5.84
-4 -4 12 137.49 6.37
4 -4 -11 159.49 6.13
4 4 -11 160.82 6.25
4 -4 -11 168.91 6.15
-4 -4 11 169.33 6.84
4 -4 -10 127.17 5.56
4 4 -10 141.68 5.74
4 -4 -10 126.03 4.99
4 -4 -10 127.89 5.52
-4 -4 10 142.4 6.37
4 -4 -9 42.66 2.45
4 4 -9 37.47 2.5
-4 -4 9 28.92 2.46
-4 -4 9 42.15 3.16
4 -4 -9 38.83 2.43
4 -4 -9 40.96 2.32
-4 -4 8 1.4 1.66
4 -4 -8 -0.98 1.22
4 -4 -8 0.43 1.19
4 4 -8 0.45 1.2
4 -4 -8 2.14 1.27
-4 -4 8 1.28 1.91
4 4 -7 17.67 1.66
4 -4 -7 17.35 1.52
4 -4 -7 15.67 1.79
4 -4 -7 17.91 1.55
-4 -4 7 24.17 2.84
-4 -4 7 22.9 2.43
4 -4 -6 61.18 2.81
-4 -4 6 77.96 4.6
4 4 -6 64.73 2.96
4 -4 -6 55.66 2.8
4 -4 -6 76.59 3.69
-4 -4 6 75.65 4.13
-4 -4 5 215.15 7.73
-4 -4 5 236.77 8.64
4 4 -5 170.37 6.05
4 -4 -5 148.08 5.93
4 -4 -5 209.74 7.22
-4 -4 4 178.63 6.36
-4 -4 4 189.6 7.64
4 -4 -4 177.67 6.04
-4 -4 3 158.83 5.58
4 -4 -3 95.62 3.63
-4 -4 3 162.86 6.8
4 -4 -3 159.22 5.47
4 4 -3 95.11 3.27
-4 -4 2 248.62 9
4 4 -2 255.71 8.15
4 -4 -2 232.54 7.98
-4 -4 2 228.34 7.89
-4 -4 1 98.43 5.3
4 -4 -1 102.32 4.48
4 4 -1 107.18 4.62
4 -4 -1 91.86 4.61
4 4 0 6.64 1.94
4 -4 0 7.18 2.19
4 -4 0 4.27 1.99
-4 -4 0 6.96 2.81
-4 -4 0 4.25 0.8
4 -4 0 4.38 0.96
4 -4 0 3.32 0.95
4 4 1 5.05 1.91
4 -4 1 6.77 2.34
4 -4 1 3.81 1.9
-4 4 -1 2.09 0.57
-4 -4 -1 3.56 0.86
4 4 1 3.05 0.67
4 -4 1 1.79 0.95
4 4 1 1.91 0.67
4 -4 1 2.25 0.97
-4 -4 -1 3.36 2.55
-4 -4 -2 36.4 1.83
-4 4 -2 26.31 1.52
4 -4 2 28.78 1.82
-4 -4 -2 38.47 3.95
4 4 2 42.07 2.88
4 -4 2 38.12 3.46
4 -4 2 40.48 2.77
4 -4 2 29.05 1.83
4 4 2 29.65 1.57
4 -4 3 44.27 2.49
-4 -4 -3 57.92 4.56
4 4 3 61.43 3.33
4 -4 3 62.95 4.33
4 -4 3 60.6 3.26
-4 4 -3 45.67 2.34
4 -4 3 49.8 2.52
-4 -4 -4 76.69 5.43
4 -4 4 64.84 3.38
4 -4 4 77.81 3.84
4 -4 4 77.12 3.46
4 4 4 72.15 3.9
4 -4 4 90.84 5.45
-4 -4 -5 160.46 8.31
4 -4 5 153.49 6.01
4 -4 5 166.73 7.96
4 -4 5 149.6 6.05
4 -4 5 142.08 5.98
4 -4 6 16.25 3.07
4 -4 6 13.48 1.74
4 -4 6 15.31 1.87
-4 -4 -6 10.67 3.25
4 -4 7 49.4 3.05
4 -4 7 46.81 2.93
4 -4 7 57.74 4.62
4 -4 8 6.47 1.92
4 -4 8 6.96 2.89
4 -4 9 79.55 4.37
4 -4 9 93.75 6.1
4 -4 9 88.14 5.59
4 -4 10 117.32 5.54
4 -4 10 124.33 7.38
4 -4 10 108.72 6.49
4 -4 11 237.54 9.58
4 -4 11 240.16 11.36
4 -4 11 227.47 10.51
4 -4 12 38.68 3.38
4 -4 12 39.19 3.95
4 -4 12 44.96 4.81
4 -4 13 165.59 8.33
4 -4 13 170.64 9.22
4 -4 14 166.1 8.44
4 -4 14 184.05 9.6
4 -4 15 7.58 3.56
4 -4 15 2.8 2.43
4 -4 16 94.2 5.82
4 -4 16 96.45 6.86
4 -4 17 65.23 4.85
4 -4 17 79.88 6.29
4 -4 18 36.12 4.98
4 -4 18 28.09 3.58
4 -4 19 94.94 5.72
4 -4 20 51.64 4.25
-4 -5 16 29.7 3.32
-4 -5 15 156.51 7.6
-4 -5 14 30.22 3.31
-4 -5 13 -0.31 2.28
-4 -5 12 5.34 2.41
-4 -5 11 61.9 4.34
-4 -5 10 40.11 3.65
-4 -5 9 204.6 9.13
-4 -5 8 194.65 8.77
-4 -5 7 251.55 10.76
4 -5 -7 253.23 9.48
-4 -5 6 44.66 4.18
4 -5 -6 57.48 3.27
-4 -5 6 52.75 4.05
-4 -5 5 0.42 2.97
-4 -5 5 3.42 2.29
4 -5 -5 2.72 1.62
-4 -5 4 36.2 3.4
4 -5 -4 37.5 2.87
-4 -5 4 46.26 4.66
4 -5 -3 70.61 4.03
-4 -5 3 62.74 4.42
-4 -5 3 68.82 5.68
-4 -5 2 17.46 4.17
-4 -5 2 26.9 3.01
4 -5 -2 25.99 2.72
4 -5 -1 202.59 8.42
-4 -5 1 214.69 9.69
-4 -5 0 24.49 4.02
4 -5 0 20.12 2.84
4 -5 1 192.77 8.81
-4 -5 -1 210.91 9.99
-4 -5 -2 21.67 4.07
4 -5 2 17.97 2.97
-4 -5 -3 2.36 3.42
4 -5 3 7.26 2.75
-4 -5 -4 18.95 4.16
4 -5 4 16.66 3.18
-4 -5 -5 -0.77 3.77
4 -5 5 0.76 2.65
-4 -5 -6 -0.53 3.66
4 -5 6 5.21 2.78
-4 -5 -7 277.27 13.53
4 -5 7 296.7 12.78
-4 -5 -8 17.67 4.4
4 -5 8 20.52 3.66
-4 -5 -9 60.62 6.19
4 -5 9 68.26 5.47
-4 -5 -10 24.2 4.71
4 -5 10 31.57 4.1
4 -5 10 37.66 4.6
-4 -5 -11 11.41 4.77
4 -5 11 9.7 3.4
4 -5 11 12.17 3.61
4 -5 12 16.46 3.64
4 -5 12 15.08 3.77
4 -5 13 -1.37 3.19
4 -5 13 1.1 3.61
4 -5 14 6.82 3.46
4 -5 14 4.8 3.84
5 0 -31 2.86 4.82
5 0 -30 272.51 14.43
5 0 -29 -0.36 4.08
5 0 -28 171.72 10.51
5 0 -27 0.97 3.39
5 0 -26 9.78 3.75
5 0 -25 -2.83 3.27
5 0 -24 327.93 14.78
5 0 -23 0.76 2.75
5 0 -22 127.13 7.54
5 0 -21 2.74 2.47
5 0 -20 132.1 7.44
5 0 -19 -0.2 2.35
5 0 -19 2.93 1.95
5 0 -18 19.96 2.84
5 0 -18 17.21 2.39
-5 0 18 16.87 2.38
5 0 -17 -1 1.66
-5 0 17 -0.12 1.74
5 0 -16 725.4 25.47
-5 0 16 723.43 25.62
5 0 -15 0.1 1.38
5 0 -15 -0.54 1.67
-5 0 15 -0.11 1.42
5 0 -14 170.63 6.94
-5 0 14 170.04 7.19
5 0 -14 163.19 7.18
-5 0 13 0.87 1.46
5 0 -13 2.07 1.23
5 0 -13 -0.71 1.66
-5 0 12 2811.01 93.83
5 0 -12 2773.23 93.92
5 0 -12 2845.17 94.03
5 0 -11 0.1 1.84
-5 0 11 -0.18 1.39
5 0 -11 -0.67 1.61
5 0 -10 19.83 2.35
5 0 -10 20.51 2.32
-5 0 10 21.09 1.96
5 0 -9 0.87 1.82
5 0 -9 1.62 1.61
-5 0 9 -0.16 1.31
5 0 -8 1854.33 65.41
-5 0 8 1999.72 65.27
5 0 -8 1984.65 65.58
5 0 -7 -1.55 1.84
-5 0 7 0.38 1.2
5 0 -6 8.49 2.07
-5 0 6 6.02 1.41
5 0 -5 0.79 1.9
-5 0 5 0.38 1.44
-5 0 5 0.16 1.24
5 0 -4 18.72 2.72
-5 0 4 17.44 2
-5 0 3 1.03 1.51
5 0 -3 0.93 2.2
-5 0 2 5.78 1.84
5 0 -2 4.36 2.33
-5 0 1 -0.42 1.56
5 0 -1 -0.44 2.37
-5 0 0 4638.72 154.2
-5 0 -1 1.66 1.96
-5 0 -2 165.44 7.59
-5 0 -3 -1.88 2.21
-5 0 -4 1484.33 48.55
5 0 4 1399.22 46.57
-5 0 -5 1.35 1.84
5 0 5 0.49 1.93
5 0 5 0.02 0.43
5 0 6 47.29 1.88
-5 0 -6 53.55 3.67
-5 0 -7 2.03 1.93
5 0 7 0.59 1.92
-5 0 -8 5.16 2.1
5 0 8 2.2 1.97
-5 0 -9 -0.78 1.98
5 0 9 -1.69 1.88
-5 0 -10 267.94 11.57
5 0 10 291.72 11.76
-5 0 -11 1.35 2.15
5 0 11 -1.73 2.04
-5 0 -12 367.81 15.2
5 0 12 395.75 15.25
-5 0 -13 0.41 0.91
-5 0 -13 -2.8 2.49
5 0 13 -0.95 2.03
5 0 14 55.33 4.4
-5 0 -14 53.2 2.7
-5 0 -14 51.76 4.4
-5 0 -15 0.72 1.03
-5 0 -15 -1.86 2.48
5 0 15 -0.79 2.16
5 0 16 382.29 15.52
-5 0 -16 375.4 13.36
-5 0 -16 364.6 15.52
-5 0 -17 -0.48 1.22
-5 0 -17 -0.22 2.68
5 0 17 -1.3 2.38
5 0 18 299.16 13.84
-5 0 -18 331.2 11.94
-5 0 -18 342.77 14.38
-5 0 -19 -0.46 1.4
5 0 19 -0.45 2.31
-5 0 -20 66.17 3.54
5 0 20 62.43 5.09
5 0 21 -0.9 2.36
5 0 21 2.61 2.56
5 0 22 216.92 10.25
5 0 22 248.64 11.35
5 0 23 -1.47 2.42
5 0 23 -0.25 2.85
5 0 24 7.34 2.87
5 0 24 3.58 2.95
5 0 25 0.26 3.13
5 0 25 1.72 2.66
-5 0 -25 -0.59 3.95
5 0 26 133.18 7.34
-5 0 -26 149.13 9.03
-5 0 -27 0.63 4.22
5 0 27 2.33 2.76
-5 0 -28 20.56 5
5 0 28 29.72 3.91
5 -1 -31 -2.82 5.11
5 1 -31 -1.2 4.86
5 -1 -30 11.77 4.91
5 1 -30 7.19 4.49
5 -1 -29 77.77 7.05
5 1 -29 57.39 6.47
5 -1 -28 300.74 14.68
5 1 -28 291.05 14.58
5 -1 -27 2.88 3.65
5 1 -27 -1.91 3.53
5 -1 -26 295.85 14.03
5 1 -26 285.82 13.91
5 -1 -25 221.88 11.43
5 1 -25 223.07 11.42
5 -1 -24 97.96 6.74
5 1 -24 85.29 6.3
5 -1 -24 88.44 5.09
5 -1 -23 70.16 5.62
5 1 -23 65.07 5.34
5 -1 -23 61.65 4.16
5 1 -22 35.61 3.98
5 -1 -22 29.36 3.81
5 -1 -22 31.24 3
5 1 -21 35.08 3.9
5 -1 -21 31.18 3.9
5 -1 -21 35.18 3.03
5 -1 -20 836.86 30.5
5 1 -20 789.2 30.27
5 -1 -20 793.6 28.74
5 1 -20 877.57 29.38
5 1 -19 134.73 6.39
5 -1 -19 124.09 6.96
5 1 -19 118.65 6.86
5 -1 -19 120.48 5.71
5 1 -18 59.73 4.09
5 -1 -18 53.26 4.29
5 1 -18 54.54 4.23
5 -1 -18 60.08 3.47
-5 -1 17 309.46 12.38
-5 1 17 308.24 12.32
5 1 -17 328.98 12.43
5 -1 -17 327.03 13.26
5 1 -17 323.85 13.19
5 -1 -17 316.58 11.88
5 1 -16 26.79 2.8
-5 1 16 21.66 2.37
-5 -1 16 20.37 2.34
5 -1 -16 17.95 1.96
-5 -1 15 60.7 3.62
-5 1 15 59.92 3.66
5 1 -15 62.28 3.87
5 1 -15 58.31 3.64
5 -1 -15 65.71 3.92
5 -1 -15 66.26 3.37
5 1 -15 69.66 3.94
-5 1 14 67.3 3.7
-5 -1 14 67.14 3.72
5 1 -14 64.74 3.77
5 1 -14 53.98 3.72
5 1 -14 62.81 3.7
5 -1 -14 59.31 3.76
-5 1 13 69.81 3.82
-5 -1 13 70.25 3.85
5 1 -13 74.69 3.93
5 1 -13 64.2 3.91
5 -1 -13 70.51 4.03
5 1 -13 69.81 3.86
5 1 -13 69.27 3.4
5 1 -12 879.09 29.55
5 1 -12 820.28 28.85
-5 -1 12 871.87 29.35
-5 1 12 821.83 29.24
5 1 -12 910.62 29.57
5 -1 -12 797.79 29.45
-5 -1 11 6.74 1.56
-5 1 11 7.93 1.62
5 1 -11 7.2 2.08
5 1 -11 5.63 1.53
5 -1 -11 6.19 1.82
5 1 -11 7.13 1.18
5 1 -10 47.6 3.24
5 1 -10 40.88 2.32
5 1 -10 46.76 2.99
-5 1 10 46.7 2.82
5 -1 -10 40.4 2.99
-5 -1 10 44.8 2.76
5 1 -9 120.85 5.85
5 1 -9 123.52 4.89
5 1 -9 121.6 5.54
5 -1 -9 121.61 5.62
-5 -1 9 119.69 5.28
-5 1 9 126.67 5.34
5 1 -8 597.92 21.32
-5 -1 8 597.56 20.71
-5 1 8 572.64 20.68
5 1 -8 563.12 20.22
-5 -1 7 2.34 1.59
5 1 -7 7.18 2.37
-5 -1 7 3.53 1.25
-5 1 7 2.86 1.28
5 1 -7 3.94 0.9
-5 -1 6 15.18 2.02
5 1 -6 17.18 1.3
5 1 -6 18.51 2.78
-5 -1 6 16.48 1.69
-5 1 6 17.47 1.8
5 1 -5 171.48 8.12
-5 -1 5 189.6 7.82
5 1 -5 188.86 6.88
-5 1 5 198.55 7.51
-5 -1 5 190.84 7.45
-5 -1 4 144.47 6.41
5 1 -4 134.66 6.58
5 1 -4 137.04 5.17
-5 -1 3 37.22 3.08
5 -1 -3 33.62 2.85
5 1 -3 38.25 3.26
5 1 -3 40.8 1.94
-5 1 2 150.7 6.37
5 -1 -2 146.33 6.6
5 1 -2 132.72 6.72
5 1 -2 154.57 5.5
-5 1 1 343.44 12.51
5 -1 -1 329.27 12.64
5 1 -1 325.88 12.94
5 1 -1 335.86 11.49
-5 1 0 473.71 16.29
5 -1 0 430.53 16.36
5 1 0 435.02 16.68
5 -1 1 63.78 4.14
-5 1 -1 72.65 3.87
5 1 1 74.49 4.36
-5 1 -2 243 9.7
5 -1 2 233.18 9.84
5 1 2 273.13 10.39
-5 -1 -3 5.93 2.02
-5 1 -3 7.12 2.08
5 -1 3 8.92 2.1
5 -1 4 405.46 15.11
-5 -1 -4 416.88 15.69
-5 1 -4 401.11 15.13
5 -1 5 1191.3 41.54
-5 -1 -5 1214.32 42.19
-5 1 -5 1229.74 41.62
5 -1 6 44.91 3.31
-5 -1 -6 44.44 3.73
-5 1 -6 46.27 3.73
5 -1 6 46.25 3.61
5 1 6 43.51 3.61
-5 1 -7 47.32 3.81
5 -1 7 43.77 3.58
5 1 7 48.18 3.69
5 -1 7 45.22 2.42
-5 -1 -7 47.69 3.75
5 -1 8 571.94 21.82
5 1 8 576.77 21.82
5 -1 8 600.2 20.46
-5 1 -8 621.49 21.82
-5 -1 -8 584.23 22.16
5 -1 9 193.83 8.74
5 1 9 196.81 8.77
-5 1 -9 194.31 8.56
-5 -1 -9 198.97 9.06
-5 -1 -9 188.28 6.57
5 -1 9 201.41 7.3
5 1 10 7.32 2.15
5 -1 10 7.4 2.24
-5 1 -10 12.84 2.48
-5 -1 -10 3.24 2.29
-5 -1 -10 5.74 0.59
5 -1 10 6.05 1.06
-5 1 -11 1.87 2.01
5 1 11 2.48 2.02
5 -1 11 0.78 1.96
5 -1 11 0.12 0.9
-5 -1 -11 0.94 0.47
5 1 12 10.07 2.38
5 -1 12 6.41 2.33
5 -1 12 9.22 1.25
-5 1 -12 8.53 2.44
-5 -1 -12 8.39 0.77
-5 1 -13 40.43 3.7
5 1 13 50.88 4.1
5 -1 13 46.34 3.96
5 -1 13 47.99 2.51
-5 -1 -13 44.24 2.01
-5 1 -14 176.97 8.22
-5 -1 -14 171.54 6.18
5 -1 14 175.3 6.65
5 1 14 159.11 8.25
5 -1 14 160.5 8.27
-5 -1 -15 20.15 1.32
5 1 15 20.41 3.02
5 -1 15 16.56 2.86
-5 1 -15 17.45 2.94
-5 1 -16 281.47 11.73
-5 -1 -16 265.36 9.52
5 1 16 272.84 12
5 -1 16 270.95 12.03
-5 -1 -17 21.89 1.51
-5 1 -17 25.41 3.47
5 -1 17 28.05 3.65
5 1 17 18.49 3.22
-5 -1 -18 15.97 1.42
5 -1 18 18.93 3.37
5 1 18 15.74 3.1
-5 1 -18 20.73 3.5
5 -1 19 44.91 4.19
5 1 19 45.96 4.36
5 -1 19 37.19 4.13
-5 -1 -19 40.93 2.29
-5 1 -19 43.2 4.36
5 1 20 60.12 4.87
5 -1 20 55.17 4.85
5 -1 20 48.33 4.5
-5 1 -20 58.61 4.95
5 -1 21 148.76 8.27
5 1 21 160.1 8.45
5 -1 21 149.89 8.1
5 1 21 147.04 7.18
-5 1 -21 151.64 8.26
5 -1 22 119.71 7.29
5 1 22 128.47 7.44
5 -1 22 117.93 7.1
5 1 22 112.67 6.14
-5 1 -22 126.29 7.43
5 -1 23 40.83 4.47
5 1 23 47.67 4.72
5 1 23 36.86 3.48
5 -1 23 41.69 4.26
-5 1 -23 45.65 4.97
5 1 24 238.14 11.21
5 -1 24 231.97 11.21
5 1 24 199.01 9.5
5 -1 24 223.08 10.75
-5 1 -24 241.46 11.23
5 1 25 46.31 3.97
5 -1 25 55.76 5.04
-5 1 -25 53.3 5.39
5 -1 25 57.57 5.2
5 1 25 61.16 5.38
-5 1 -26 6.61 3.85
5 -1 26 9.9 3.27
5 -1 27 11 3.73
5 -1 28 18.15 3.78
5 -2 -29 178.75 10.68
5 2 -29 169.98 10.67
5 2 -28 2.95 3.85
5 -2 -28 -1.31 4.07
5 -2 -27 68.08 6.42
5 2 -27 65.46 6.07
5 -2 -26 27.4 4.82
5 2 -26 31.32 4.3
5 -2 -25 420.07 18.3
5 2 -25 442.06 18.33
5 -2 -24 51.3 5.3
5 2 -24 64.57 5.34
5 -2 -23 -0.24 2.75
5 2 -23 2.7 2.51
5 -2 -22 21.9 2.27
5 -2 -22 31.03 3.91
5 2 -22 26.87 3.53
5 -2 -21 40.34 4.11
5 2 -21 44.97 4.12
5 -2 -21 31.08 2.54
5 2 -20 66.61 4.22
5 2 -20 58.86 4.71
5 -2 -20 61.87 4.8
5 -2 -20 53.86 3.23
5 2 -19 28.62 3.03
5 -2 -19 34.83 3.58
5 2 -19 32.24 3.52
5 -2 -19 34.58 2.37
5 2 -18 124.8 6.34
5 -2 -18 147.66 7.34
5 2 -18 143.04 7.27
5 -2 -18 143.19 5.75
5 2 -17 391.39 14.89
5 -2 -17 400 14.94
5 -2 -17 376.1 13.2
5 2 -16 370.66 14.13
5 -2 -16 362.87 13.22
5 2 -16 403.17 14.89
5 -2 -16 375.46 14.77
-5 -2 15 55.23 3.45
-5 2 15 52.13 3.42
5 2 -15 51.88 3.81
5 2 -15 50.08 3.52
5 -2 -15 55.8 3.64
5 2 -15 54.82 3.86
-5 -2 14 3.33 1.59
-5 2 14 2.33 1.65
5 2 -14 5.05 2.45
5 -2 -14 6.2 2.05
5 2 -14 4.65 1.97
5 2 -13 174.74 7.38
5 -2 -13 171.42 7.38
5 2 -13 154.19 7.46
-5 2 13 167.93 7.06
-5 -2 13 174.23 7.09
5 2 -12 131.18 6.11
5 -2 -12 96.4 5.28
5 2 -12 134.25 5.74
5 2 -12 93.83 4.9
-5 -2 12 118.05 5.15
-5 2 12 87.57 4.79
-5 2 11 907.27 30.63
-5 -2 11 914.02 30.62
5 2 -11 900.34 30.71
5 2 -11 844.03 31.28
5 -2 -11 839.88 30.83
5 2 -11 871.53 30.88
5 2 -11 929.27 31.03
5 2 -10 73 3.83
5 2 -10 76.54 4.86
-5 -2 10 77.43 4.05
5 -2 -10 65.52 4.06
-5 2 10 68.21 3.7
-5 -2 10 85.77 3.9
-5 -2 10 67.88 3.4
5 2 -10 70.85 4
5 2 -9 561.37 21.75
5 2 -9 581.83 21
-5 -2 9 617.23 20.76
-5 -2 9 587.96 21.19
-5 -2 9 599.94 20.94
-5 2 9 611.25 20.99
5 2 -9 615.45 21.29
5 2 -8 70.88 4.47
5 2 -8 67.14 3.54
-5 -2 8 66.12 3.22
-5 -2 8 73.53 4.03
-5 2 8 70.49 3.57
-5 -2 8 74.02 3.6
5 2 -8 66.14 3.69
5 2 -7 184.99 8.12
-5 -2 7 185.11 7.83
-5 2 7 182.32 7.26
-5 -2 7 179.29 7.21
5 2 -7 181.19 7.4
-5 -2 7 193.11 7.07
-5 -2 6 17 1.73
-5 2 6 15.21 1.75
-5 -2 6 17.07 1.46
5 2 -6 18.04 1.81
-5 -2 6 15.86 2.53
5 2 -6 17.2 2.56
-5 -2 5 290.2 10.26
-5 -2 5 277.36 11.37
5 2 -5 288.36 11.42
5 2 -5 281.56 10.55
-5 -2 5 277.23 10.47
-5 2 5 288.35 10.53
5 2 -4 95.79 5.19
-5 -2 4 101.98 4.45
-5 2 4 99.43 4.47
-5 -2 4 94.88 4.02
-5 -2 4 91.85 5.49
5 -2 -4 90.94 4.78
5 2 -3 221.39 9
-5 2 3 201.71 8.07
-5 -2 3 212.49 8.13
5 -2 -3 193.39 8.41
-5 -2 3 207.3 9.31
-5 -2 3 214.62 7.72
5 -2 -2 278.53 10.92
-5 -2 2 305.4 11.98
-5 -2 2 282.61 10.19
5 -2 -1 537.15 20.14
-5 -2 1 560.4 21.02
-5 -2 1 588.27 19.5
5 -2 0 234.75 9.23
-5 -2 0 241.09 10.05
-5 -2 0 227.12 8.37
5 -2 1 44.8 3.17
-5 -2 -1 41.06 3.44
-5 -2 -1 42.58 2.12
-5 -2 -2 380.67 14.73
5 -2 2 369.21 13.84
-5 -2 -3 112.92 5.93
5 -2 3 102.06 5.25
-5 -2 -4 238.67 10.45
5 -2 4 240.76 9.67
-5 2 -4 243.36 9.2
5 -2 5 710.66 25.11
5 2 5 712.94 25.06
-5 -2 -5 704.29 25.75
5 -2 5 689.62 24.54
-5 2 -5 688.91 24.22
5 -2 6 287.78 11.43
5 2 6 273.41 11.31
5 -2 6 305.5 11.02
-5 2 -6 270.82 10.56
5 -2 7 119.63 6.04
5 2 7 123.05 6.08
5 -2 7 122.24 5.51
-5 2 -7 112.67 5.25
-5 2 -8 25.26 2.55
5 -2 8 28.66 3.02
5 2 8 27.47 3.02
5 -2 9 116.41 5.39
-5 2 -9 110.98 5.46
5 2 9 121.93 6.07
5 -2 9 121.14 6.08
5 -2 10 200.29 8.13
-5 2 -10 188.15 8.14
5 2 10 204.6 8.86
5 -2 10 201.13 8.88
-5 2 -11 82.25 4.67
5 2 11 90.89 5.18
5 -2 11 90.68 5.2
5 -2 11 87.65 4.46
5 2 11 89.48 5.34
5 -2 11 91.89 5.31
-5 2 -12 47.52 3.66
5 2 12 44.63 3.77
5 2 12 38.13 3.69
5 -2 12 37.95 3.59
5 -2 12 37.97 2.8
5 2 13 295.34 11.78
5 -2 13 272.81 11.67
5 -2 13 279.19 10.47
-5 2 -13 243.07 10.7
5 2 14 25.8 3.37
5 -2 14 23.01 3.22
5 -2 14 32.79 2.45
-5 2 -14 35 3.66
5 2 15 121.25 6.67
5 -2 15 120.35 6.68
5 -2 15 109.39 5.15
-5 2 -15 107.55 6.07
5 -2 16 78.1 4.02
-5 2 -16 71.38 4.99
5 2 16 87.55 5.6
5 -2 16 77.55 5.32
5 -2 16 76.25 5.63
5 -2 17 64.66 3.63
5 2 17 75.37 5.2
5 -2 17 68.82 5.06
-5 2 -17 64.78 4.88
5 -2 17 70.48 5.42
5 -2 18 153.8 6.5
5 2 18 153.7 8.11
5 -2 18 159.41 8.16
5 -2 18 154.31 8.5
-5 2 -18 144.71 7.63
5 2 19 41.66 4.08
5 -2 19 38.47 3.97
5 -2 19 39.94 2.69
5 -2 19 36.33 4.31
-5 2 -19 27.97 3.94
-5 2 -20 198.77 9.34
5 -2 20 199.2 10.16
5 2 20 210.05 10.01
5 -2 20 198.48 9.87
5 -2 21 166.49 9
5 2 21 177.44 9.06
5 -2 21 166.33 8.86
5 -2 22 28.59 4.17
5 2 22 26.49 3.99
5 -2 22 18.38 3.49
5 -2 23 3.02 2.89
5 2 23 1.21 2.91
5 -2 23 1.23 2.73
5 -2 24 18.04 3.84
5 -2 25 54.65 5.3
5 -2 26 31.86 4.58
5 -3 -27 -4.11 3.95
5 3 -27 -5.53 3.76
5 -3 -26 15.67 4.19
5 3 -26 19.03 4.17
5 -3 -25 47.56 5.26
5 3 -25 42.02 5.08
5 -3 -24 46.86 4.9
5 3 -24 38.75 4.82
5 -3 -23 54.67 5.16
5 3 -23 68.65 5.42
5 -3 -22 214.54 10.18
5 3 -22 195.66 9.89
5 -3 -21 279.45 12.25
5 3 -21 269.64 12.09
5 3 -20 28.42 3.63
5 -3 -20 21.78 3.46
5 -3 -19 17.54 3.02
5 3 -19 16.24 2.85
5 -3 -18 2.4 2.37
5 3 -18 2.04 2.03
5 -3 -17 114.04 5.6
5 3 -17 117.83 5.64
5 -3 -16 17.19 1.31
5 3 -16 22.5 2.71
5 -3 -16 26.16 2.91
5 3 -15 125.22 6.02
5 -3 -15 125.63 6.15
5 3 -15 138.18 6.34
5 -3 -15 136.7 6.55
5 3 -15 133.85 6.47
-5 -3 15 131.18 5.91
-5 -3 14 374.73 13.52
5 -3 -14 359.47 13.69
5 3 -14 373.4 13.84
5 -3 -14 363.57 14.01
5 3 -14 350.81 13.9
5 3 -14 348.86 13.55
-5 -3 13 208.23 8.12
5 3 -13 197.13 8.45
5 -3 -13 204.76 8.46
5 3 -13 186.3 8.25
-5 -3 12 7.44 1.54
5 3 -12 5.24 1.8
5 3 -12 3.78 2.12
-5 -3 12 10.71 1.85
-5 -3 11 14.34 1.79
5 3 -11 8.92 2.19
-5 -3 11 13.43 1.76
-5 3 11 12.88 1.74
-5 -3 10 3.17 1.41
-5 3 10 1.81 1.29
-5 -3 10 2.71 1.82
-5 -3 10 3.72 1.34
-5 -3 9 28.96 2.82
-5 -3 9 32.3 2.35
-5 -3 9 27.86 2.17
-5 3 9 24.35 2.09
-5 -3 8 34.42 3.21
-5 -3 8 12.31 1.9
-5 -3 8 26.29 2.08
-5 3 8 14.35 1.77
-5 -3 7 73.41 3.54
-5 3 7 71.76 3.49
-5 -3 7 79.22 3.84
-5 -3 7 75.67 4.76
-5 -3 6 430.58 15.66
-5 -3 6 415.05 16.57
5 3 -6 453.48 16.06
-5 -3 6 428.11 15.29
-5 3 6 442.01 15.33
-5 -3 5 48.57 2.91
-5 -3 5 48.98 4.36
5 3 -5 49.83 3.19
-5 -3 5 49.01 2.68
-5 3 5 48.79 2.67
-5 -3 4 4.33 1.36
-5 -3 4 6.09 3.15
5 3 -4 2.94 1.55
-5 3 4 5.05 1.42
-5 -3 4 4.37 1.35
5 3 -3 10.03 1.65
5 -3 -3 11.4 2.31
-5 3 3 10.31 1.52
-5 -3 3 8.77 1.48
-5 -3 3 6.74 3.01
-5 -3 3 12.16 1.59
-5 -3 2 117.83 6.25
-5 -3 2 107.79 4.78
5 -3 -2 107.48 5.29
5 3 -2 106.3 4.85
-5 3 2 97.04 4.49
-5 -3 2 110.25 4.67
5 -3 -1 1.18 1.88
-5 3 1 0.94 1.35
-5 -3 1 1.44 1.44
5 3 -1 0.91 1.31
-5 -3 1 0.16 1.16
-5 -3 1 4.57 2.43
5 -3 0 20.47 2.59
-5 -3 0 20.93 3.24
-5 -3 0 17.36 2.06
5 3 0 18.75 2.04
5 3 1 524.58 18.02
-5 -3 -1 496.46 19.56
5 -3 1 504.79 18.36
-5 -3 -2 569.15 21.51
5 -3 2 562.74 20.19
5 -3 2 558.22 20.39
5 3 2 577.94 19.81
5 -3 3 205.32 8.7
5 3 3 221.93 8.74
5 -3 3 202.17 8.49
-5 -3 -3 205.43 9.81
5 3 3 219.97 8.08
5 3 4 25.32 1.9
5 -3 4 23.95 2.87
-5 -3 -4 24.02 3.31
5 -3 4 24.43 2.64
5 3 4 22.53 2.59
-5 -3 -5 22.57 3.39
5 -3 5 24.44 2.64
5 -3 5 26.25 2.66
5 3 5 23.66 2.51
5 -3 6 18.03 2.22
-5 -3 -6 13.52 3.01
5 -3 6 22.34 2.5
5 3 6 17.45 2.34
5 3 7 -1.7 2.05
5 -3 7 1.83 2
5 -3 7 -1.64 1.65
-5 -3 -7 1.35 2.64
-5 -3 -8 8.44 3.07
5 3 8 11.02 2.43
5 -3 8 9.13 2.37
5 3 8 9.62 2.31
5 -3 8 11 2.42
5 3 9 176.49 7.84
5 -3 9 170.36 7.94
5 3 9 169.66 7.75
5 -3 9 176.56 7.93
5 -3 10 195.45 8.7
5 3 10 177.71 8.38
5 3 10 197.44 8.42
5 -3 10 191.78 8.44
5 -3 10 183.16 8.44
5 -3 11 31.7 4.27
5 3 11 43.44 3.6
5 -3 11 40.43 3.57
5 3 11 44.68 3.61
5 -3 11 44.77 3.71
5 -3 11 45.99 3.58
5 3 12 132.5 6.45
5 3 12 122.23 6.47
5 -3 12 123.12 6.62
5 -3 12 123.31 6.32
5 3 13 131.98 6.82
5 -3 13 129.62 6.9
5 -3 13 138.86 6.65
5 3 14 1.02 2.05
5 -3 14 -0.18 2.2
5 -3 14 1.87 1.99
5 -3 15 1.5 2.22
5 3 15 4.58 2.31
5 -3 15 1.82 1.94
5 3 16 1.65 2.34
5 -3 16 1.36 2.52
5 -3 16 1.23 1.93
5 -3 16 3.59 3.2
5 3 17 182.03 8.75
5 -3 17 185.21 9.05
5 -3 17 179.79 8.04
5 -3 17 186.26 9.81
5 3 18 39.64 4.02
5 -3 18 41.96 4.15
5 -3 18 38.5 3.16
5 -3 18 44.59 4.79
5 3 19 16.41 3.29
5 -3 19 8.32 3.05
5 -3 19 12.71 2.22
5 -3 19 15.01 3.81
5 -3 20 32.19 4.03
5 -3 20 34.53 2.94
5 -3 20 32.49 4.54
5 -3 21 162.72 7.35
5 -3 21 176.07 9.52
5 -3 22 3.8 1.91
5 -3 22 0.83 3.22
5 -3 23 7.57 3.73
5 -3 24 -0.57 3.36
5 -4 -23 61.46 5.48
5 -4 -22 3.85 3.03
5 -4 -21 12.15 3.29
5 -4 -20 56.38 4.69
5 -4 -19 9.12 2.92
5 -4 -18 49.93 4.15
5 4 -18 47.75 4.13
-5 -4 18 55.01 3.71
5 -4 -17 49.91 4.08
5 4 -17 40.6 3.73
-5 -4 17 54.05 3.61
5 -4 -16 47.48 3.77
5 4 -16 49.52 3.86
-5 -4 16 57.85 3.66
5 -4 -15 28.42 2.93
5 4 -15 34.04 3.12
-5 -4 15 35.06 2.92
5 -4 -14 42.15 3.4
5 4 -14 53.23 3.58
-5 -4 14 51.02 3.45
5 -4 -14 45.63 3.33
5 -4 -13 4.8 0.77
-5 -4 13 10.09 2.03
5 -4 -13 7.81 1.88
5 -4 -13 7.41 1.84
5 4 -13 6.92 1.95
5 -4 -12 43.87 2.86
-5 -4 12 48.49 3.28
5 -4 -12 33.64 2.05
5 4 -12 43.33 3
5 -4 -12 46.61 2.99
5 -4 -11 157.6 6.45
5 -4 -11 159.8 6.55
5 4 -11 163.13 6.61
5 -4 -11 133.96 5.82
-5 -4 11 183.9 7.2
-5 -4 10 92 4.7
5 -4 -10 107.09 4.69
5 4 -10 99.47 4.66
5 -4 -10 94.78 4.35
-5 -4 10 113.35 5.29
-5 -4 9 76.53 4.32
5 -4 -9 75.49 3.89
5 -4 -9 83.06 3.94
5 4 -9 81.27 3.94
-5 -4 9 93.57 4.61
5 -4 -8 3.31 1.28
5 4 -8 3.97 1.39
5 -4 -8 4.38 1.71
-5 -4 8 5.09 1.75
-5 -4 7 68.17 3.97
-5 -4 7 75.42 4.78
5 4 -7 66.12 3.23
5 -4 -7 62.29 3.14
5 -4 -7 66.86 3.75
5 4 -6 4.48 1.12
-5 -4 6 5.85 1.28
5 -4 -6 3.44 1.91
-5 -4 6 7.34 3.08
-5 -4 6 2.95 1.65
-5 -4 5 69.28 3.22
-5 -4 5 79.13 5.43
5 -4 -5 71.81 4.25
-5 -4 5 79.3 4.25
5 -4 -4 7.09 2.47
-5 -4 4 10.42 1.37
-5 4 4 4.92 1.07
-5 -4 4 7.61 1.94
-5 -4 4 9.22 3.69
5 -4 -4 8.22 2.29
-5 -4 3 134.29 5.89
5 -4 -3 150.98 6.46
-5 -4 3 137.07 7.42
-5 -4 3 128.06 4.77
5 -4 -3 141.09 6.4
-5 -4 2 167.47 6.77
5 -4 -2 183.71 7.15
5 -4 -2 147.96 6.19
-5 -4 2 172.1 8.21
-5 -4 2 155.24 5.62
5 -4 -2 179.57 7.61
-5 -4 1 47.71 3.16
5 -4 -1 56.15 3.58
5 -4 -1 42.83 2.8
-5 -4 1 56.81 4.65
-5 -4 1 44.61 2.3
-5 4 1 34.74 2.1
5 -4 -1 51.81 4.07
5 4 -1 53.2 3.44
-5 -4 0 58.95 3.57
-5 -4 0 59.43 4.74
5 -4 0 64.48 3.82
-5 4 0 51.65 2.62
-5 -4 0 56.56 2.8
5 -4 0 69.09 4.64
5 4 0 65.69 3.73
5 -4 0 56.46 3.28
5 -4 1 3.17 2.15
-5 -4 -1 0.63 1.33
-5 4 -1 1.19 1.19
-5 -4 -1 3.3 2.86
5 4 1 2.09 1.82
5 -4 1 2.39 2.57
5 -4 1 2.16 1.65
-5 -4 -2 21.53 3.57
5 -4 2 24.52 2.73
5 -4 2 22.61 2.38
5 4 2 29.27 2.5
5 -4 2 22.3 3.32
-5 4 -2 20.69 1.85
-5 -4 -2 22.31 1.93
-5 -4 -3 31.83 3.95
5 4 3 33.06 2.62
5 -4 3 31.77 3.91
5 -4 3 29.7 2.58
5 -4 3 30.37 2.85
5 -4 3 28.44 2.61
5 4 3 27.89 2.2
-5 -4 -4 76.49 5.78
5 -4 4 88.39 5.98
5 -4 4 76.87 4.19
5 -4 4 71.48 4.25
5 4 4 75.74 3.88
5 -4 4 78.48 4.25
5 -4 5 223.22 8.74
5 4 5 199.41 8.3
5 -4 5 215.63 8.76
-5 -4 -5 207.42 10.48
5 -4 5 210.84 8.27
5 -4 5 239.85 10.66
5 -4 6 154.14 6.48
5 -4 6 167.41 8.48
5 4 6 141.61 6.09
5 -4 6 156.11 6.62
-5 -4 -6 148.19 8.29
5 -4 6 124.37 5.5
5 -4 7 3.58 3.15
-5 -4 -7 -0.51 3.23
5 4 7 -0.56 1.74
5 -4 7 0.81 1.95
5 -4 7 -0.33 2.01
-5 -4 -8 223.77 11.41
5 4 8 217.53 9.21
5 -4 8 235.96 9.64
5 -4 8 246.54 11.54
5 -4 8 243.21 9.57
-5 -4 -9 48.46 5.34
5 -4 9 50.17 3.67
5 4 9 51.44 3.45
5 -4 9 49.77 3.72
5 -4 9 56.07 5.19
-5 -4 -10 76.64 6.47
5 -4 10 87.26 4.71
5 -4 10 83.04 6.29
5 -4 10 68.31 5.14
5 4 10 67.81 4.23
5 -4 10 81.36 4.78
5 -4 11 340.66 14.52
5 -4 11 310.74 13.24
5 4 11 300.59 12.22
5 -4 11 319.04 12.6
-5 -4 -11 306.23 14.59
5 -4 12 12.3 3.02
5 4 12 9.87 2.38
5 -4 12 10.35 2.86
5 -4 12 18.8 4.22
5 -4 13 51.39 5.36
5 -4 13 44.91 4.2
5 -4 13 47.49 3.94
5 -4 14 205.21 9.92
5 -4 14 235.55 11.61
5 -4 15 8.03 3.89
5 -4 15 4.37 2.8
5 -4 16 148.22 7.66
5 -4 16 147.84 9.08
5 -4 17 65.3 4.86
5 -4 17 73.06 6.49
5 -4 18 -1.49 3.71
5 -4 18 -1.07 2.51
5 -4 19 50.02 4.23
-5 -5 16 5.19 2.25
-5 -5 15 124.54 6.39
-5 -5 14 48.23 3.78
-5 -5 13 49.95 3.87
-5 -5 12 7.39 2.33
-5 -5 11 134.51 6.68
-5 -5 10 6.02 2.21
-5 -5 9 69.16 4.44
-5 -5 8 57.31 4.08
5 -5 -7 108.98 4.98
-5 -5 7 106 5.75
5 -5 -6 34.6 2.84
-5 -5 6 39.12 4.23
-5 -5 6 30.15 3.27
5 -5 -5 38.41 3.01
-5 -5 5 39.85 4.54
-5 -5 5 37.68 3.46
-5 -5 4 71.25 5.9
-5 -5 4 83.83 4.91
5 -5 -4 82.5 4.55
-5 -5 3 152.66 8.77
5 -5 -3 171.69 7.41
-5 -5 3 152.52 7.45
-5 -5 2 1.88 2.05
5 -5 -2 1.66 2.24
-5 -5 2 -4.4 4.37
5 -5 -1 209.85 9.09
-5 -5 1 199.01 8.86
-5 -5 1 204.24 10.33
-5 -5 0 5.19 2.34
5 -5 0 8.75 2.65
-5 -5 0 12.13 4.05
5 -5 1 108.37 5.98
-5 -5 -1 99.62 6.78
-5 -5 -1 90.15 5.26
-5 -5 -2 20.33 4.15
5 -5 2 20.75 3.33
5 -5 3 80.77 5.45
-5 -5 -3 70.88 6.24
5 -5 4 74.87 5.39
-5 -5 -4 62.51 5.83
-5 -5 -5 21.43 4.52
5 -5 5 19.61 3.74
-5 -5 -6 -1.99 3.87
5 -5 6 5.73 3.22
5 -5 7 344.52 14.72
-5 -5 -7 321.31 15.22
5 -5 8 49.9 5.17
-5 -5 -8 38.13 5.57
-5 -5 -9 30.35 5.17
5 -5 9 42.4 4.95
5 -5 9 34.8 4.27
5 -5 10 46.72 5.29
-5 -5 -10 37.99 5.79
5 -5 10 39.43 4.41
-5 -5 -11 27.3 5.55
5 -5 11 23.42 4.67
5 -5 11 24.1 3.9
-5 -5 -12 6.98 4.6
5 -5 12 18.72 4.56
5 -5 12 16.59 3.74
6 0 -31 -1.18 4.73
6 0 -30 139.53 9.75
6 0 -29 -1.79 4.39
6 0 -28 0.34 3.86
6 0 -27 -2.85 3.76
6 0 -26 165.69 9.67
6 0 -25 -3.17 3.39
6 0 -24 1113.22 40.97
6 0 -23 3.4 3.05
6 0 -22 575.4 22.68
6 0 -21 0.23 2.58
6 0 -20 77.62 5.57
-6 0 20 78.42 4.85
-6 0 19 -0.14 2.02
6 0 -18 79.58 4.44
-6 0 18 73.04 4.46
6 0 -17 0.56 1.67
-6 0 17 -1.85 1.79
6 0 -16 1590.36 53.54
6 0 -16 1564.84 54.04
-6 0 16 1577.62 53.84
6 0 -15 1.62 1.41
6 0 -15 0.26 2.08
-6 0 15 3.08 1.83
6 0 -14 37.44 3.25
-6 0 14 34.13 2.73
6 0 -14 32.96 3.04
6 0 -13 -1.13 2
6 0 -13 -1.29 1.83
-6 0 13 -1.37 1.54
6 0 -12 406.85 15.82
-6 0 12 427.19 15.52
6 0 -12 433.08 15.82
6 0 -11 -0.33 1.8
-6 0 11 0.39 1.49
6 0 -11 0.94 1.95
-6 0 10 9.41 1.77
6 0 -10 10.81 2.22
6 0 -10 12.46 2.39
-6 0 9 0.09 1.38
6 0 -9 -2.2 2.21
6 0 -8 9743.33 326.75
-6 0 8 9999 326.37
-6 0 7 0.28 1.56
6 0 -7 1.79 2.35
-6 0 6 6.25 1.65
6 0 -6 10.04 2.54
-6 0 6 5.66 1.88
6 0 -5 2.5 2.46
-6 0 5 1.09 1.69
-6 0 4 26.14 2.56
6 0 -4 29.6 3.35
6 0 -3 4.82 2.6
-6 0 3 0.68 1.67
-6 0 2 47.69 3.39
6 0 -2 48.03 3.99
-6 0 1 0.88 1.84
6 0 -1 -0.13 2.6
-6 0 0 1043.21 36.43
-6 0 -1 0.69 2.07
-6 0 -2 48.18 3.93
-6 0 -3 1.13 2.6
-6 0 -4 341.75 13.4
6 0 4 309.56 12.76
-6 0 -5 -3.12 2.71
6 0 5 -2.13 2.22
6 0 5 -0.35 0.45
-6 0 -6 69.25 4.64
6 0 6 67.89 2.55
-6 0 -7 0.99 2.09
6 0 8 1684.93 55.8
-6 0 -8 1538.46 55.34
6 0 9 0.52 2.18
-6 0 -9 -0.71 2.12
-6 0 -10 907.88 33.23
6 0 10 942.31 33.4
-6 0 -11 -0.19 2.28
-6 0 -12 90.26 5.73
-6 0 -13 -0.84 2.44
-6 0 -14 52.12 4.61
-6 0 -15 -3.15 2.88
6 0 15 -1.37 2.52
6 0 16 394.43 16.82
-6 0 -16 427.01 17.17
-6 0 -17 -1.45 3.08
6 0 17 -0.47 2.81
6 0 18 65.81 5.38
-6 0 -18 69.37 5.69
-6 0 -19 -0.78 3.22
6 0 19 -1.02 2.57
-6 0 -20 1.35 3.34
6 0 20 5.34 2.84
-6 0 -21 -1.95 3.44
6 0 21 0.78 2.94
6 0 22 79.07 6.29
6 0 22 81 5.67
-6 0 -22 87.36 6.78
-6 0 -23 -3.54 3.98
6 0 23 0.27 2.93
6 0 23 1.43 2.97
-6 0 -24 48.78 5.73
6 0 24 44.31 5.04
6 0 24 44.27 4.57
-6 0 -25 1.24 4.18
6 0 25 1.41 3.02
6 0 25 0.61 2.79
6 0 26 120.89 7.89
6 0 26 117.97 7.11
-6 0 -26 120.47 8.46
-6 0 -27 -7.17 4.87
6 0 27 1.47 2.98
6 0 27 0.89 3.2
6 -1 -31 -0.77 4.68
6 1 -31 1.54 4.59
6 -1 -30 31.28 5.71
6 1 -30 35.79 5.78
6 -1 -29 13.64 4.32
6 1 -29 8.42 4.33
6 1 -28 435.84 19.43
6 -1 -28 441.54 19.52
6 -1 -27 2.2 3.34
6 1 -27 1.26 3.45
6 -1 -26 29.88 4.64
6 1 -26 35.68 4.74
6 1 -25 213.46 11.03
6 -1 -25 216.79 11.15
6 -1 -24 24.95 4.16
6 1 -24 24.99 4.03
6 -1 -23 12.45 3.35
6 1 -23 11.45 3.25
6 -1 -22 24.75 3.66
6 1 -22 27.87 3.82
6 -1 -22 22.98 2.8
6 -1 -21 41.41 4.24
6 1 -21 49.62 4.35
6 -1 -21 35.63 3.17
6 -1 -20 464.16 18.66
6 1 -20 470.21 18.67
6 -1 -20 465.51 17.14
6 -1 -19 2.23 2.28
6 1 -19 3.45 2.25
6 -1 -19 2.87 1.86
-6 -1 19 2.63 2.02
-6 1 19 2.07 2.02
6 1 -18 33.43 3.48
-6 1 18 35.93 3.23
-6 -1 18 38.86 3.27
6 -1 -18 40.98 2.88
6 1 -17 298.17 12.06
6 -1 -17 312.18 11.42
-6 1 17 296.07 11.82
-6 -1 17 297.77 11.82
-6 1 16 2.75 1.79
-6 -1 16 1.2 1.69
6 1 -16 6.7 2.52
6 1 -15 131.94 6.59
-6 1 15 151.44 6.59
-6 -1 15 142.3 6.48
6 1 -14 9.01 2.47
-6 -1 14 6.29 1.64
-6 1 14 4.7 1.68
6 1 -14 7.57 1.99
6 -1 -14 4.54 2.06
6 1 -14 6.95 1.32
6 1 -14 4.96 1.54
-6 -1 13 12.39 1.89
-6 1 13 13.78 1.93
6 -1 -13 12.77 2.33
6 1 -13 11.88 2.14
6 1 -13 11.25 1.45
6 1 -13 13.86 2.57
6 1 -12 1175.99 43.6
6 1 -12 1327.19 43.73
6 -1 -12 1269.7 43.75
-6 -1 12 1287.15 43.43
-6 1 12 1304.04 43.45
6 1 -12 1264.79 42.82
6 -1 -11 18.67 2.52
6 1 -11 17.95 1.57
-6 1 11 19.51 2.2
-6 -1 11 18.91 2.04
6 1 -11 18.03 2.32
6 1 -11 17.4 2.7
-6 -1 10 14.73 1.93
6 1 -10 19.71 3.08
6 1 -10 9.44 1.26
6 -1 -10 12.26 2.43
-6 1 10 10.31 1.79
-6 -1 9 251.52 9.59
6 1 -9 222.9 9.78
6 1 -9 229.06 8.49
-6 -1 9 227.64 9.06
-6 1 9 234.79 9.14
6 1 -8 794.76 27.84
-6 -1 8 823.61 27.53
6 1 -8 759.7 26.44
-6 1 8 781.01 27.13
-6 -1 8 775.53 27.11
-6 -1 7 495.55 17.98
6 1 -7 451.88 18.22
6 1 -7 506.05 16.9
-6 -1 7 468.14 17.5
-6 1 7 505.31 17.62
-6 -1 6 43.43 3.31
6 1 -6 36.74 3.9
6 1 -6 40.36 2.06
-6 -1 6 46.7 2.9
-6 1 6 39.85 2.86
6 1 -5 112.03 6.25
-6 -1 5 104.55 5.56
-6 1 5 115.3 5.36
-6 -1 5 110.85 5.3
6 1 -5 122.31 4.51
6 -1 -4 494.04 18.87
-6 -1 4 513.76 19.15
6 1 -4 532.99 17.69
6 1 -4 501.1 19.32
6 -1 -3 392.91 15.29
-6 1 3 406.07 15.08
6 1 -3 416.21 13.99
6 1 -3 390.51 15.58
-6 1 2 99.46 5.06
6 -1 -2 86.69 5.15
6 1 -2 103.02 3.78
6 1 -2 75.64 5.1
-6 1 1 1122.96 38.79
6 -1 -1 1066.41 38.89
6 1 -1 1042.63 39.18
6 1 -1 1161.72 37.51
6 -1 0 5.03 2.53
6 1 0 6 2.38
-6 1 0 8.53 2.15
6 1 1 352.17 13.67
-6 1 -1 344.46 13.23
6 -1 1 337.25 13.42
6 -1 2 75.4 4.88
-6 -1 -2 90.24 5.28
6 1 2 85.29 4.99
-6 1 -2 79.09 4.58
-6 1 -3 11.42 2.54
6 -1 3 15.15 2.45
-6 -1 -3 9.65 2.43
-6 -1 -4 2066.96 72.87
6 -1 4 2143.78 72.35
-6 1 -4 2193.55 72.44
-6 -1 -5 16.49 2.68
-6 1 -5 15.82 2.77
6 -1 5 14.8 2.49
-6 1 -6 45.04 3.75
6 -1 6 42.88 3.48
-6 -1 -6 49.49 3.98
6 1 7 15.33 2.8
6 -1 7 17.22 2.89
-6 -1 -7 18.86 2.92
-6 1 -7 18.54 3.12
6 -1 7 16.51 2.64
6 -1 7 16.64 1.48
-6 1 -8 996.22 34.02
6 -1 8 996.61 34.29
6 1 8 1005.54 34.23
6 -1 8 896.03 32.24
-6 -1 -8 999.6 34.51
-6 1 -9 295.91 12.63
6 -1 9 318.14 12.81
6 1 9 321.39 12.79
6 -1 9 288.66 10.9
-6 -1 -9 330.82 13.19
-6 1 -10 32.33 3.84
-6 -1 -10 23.81 3.29
6 -1 10 28.4 1.87
-6 -1 -10 28.54 1.28
6 -1 10 28.4 3.41
6 1 10 36.61 3.6
-6 -1 -11 2.18 2.3
-6 1 -11 1.03 2.57
-6 -1 -11 1.44 0.57
6 -1 11 3.12 1.05
-6 1 -12 311.8 13.06
-6 -1 -12 342.47 14.03
6 -1 12 322.75 11.39
-6 -1 -12 310.12 10.81
-6 1 -13 51.14 4.29
-6 -1 -13 56.57 4.88
-6 -1 -13 50.05 2.25
6 -1 13 54.51 2.71
-6 -1 -14 355.11 12.46
6 -1 14 381.94 12.95
-6 1 -14 345.56 14.63
-6 -1 -14 349.57 15.54
6 1 14 366.48 15.28
6 -1 14 361.47 15.26
-6 -1 -15 120.38 4.63
-6 1 -15 124.21 6.87
-6 -1 -15 131.16 7.7
6 1 15 122.23 7.16
6 -1 15 108.26 6.97
-6 -1 -16 207.33 7.62
-6 1 -16 200.45 9.84
-6 -1 -16 219.35 10.87
6 1 16 220.54 10.41
6 -1 16 219.98 10.36
-6 -1 -17 260.36 9.39
6 1 17 276.57 12.27
6 -1 17 267.69 12.24
-6 -1 -17 274.62 12.84
-6 1 -17 244.27 11.59
6 1 18 46.76 4.65
6 -1 18 45.22 4.62
-6 -1 -18 38.68 4.85
-6 1 -18 48.46 4.59
6 1 19 4.97 2.84
6 -1 19 5.53 2.98
-6 1 -19 3.13 3.11
-6 -1 -19 4.69 3.59
6 1 20 133.55 7.87
6 -1 20 129.05 7.78
-6 -1 -20 136.74 8.68
-6 1 -20 130.24 7.76
-6 1 -21 2.61 3.2
-6 -1 -21 2.18 3.77
6 -1 21 0.46 2.93
6 1 21 3.85 3.06
6 -1 21 1.29 2.96
-6 1 -22 386.32 15.97
-6 -1 -22 380.62 17.04
6 1 22 382.87 16.12
6 -1 22 386.05 16.23
6 1 22 336.19 14.48
6 -1 22 355.9 15.65
-6 1 -23 33.29 4.69
-6 -1 -23 24.69 4.95
6 1 23 30.38 4.35
6 -1 23 26.32 4.34
6 -1 23 41.67 4.64
6 1 23 26.79 3.43
-6 1 -24 174.61 9.62
-6 -1 -24 176.25 10.57
6 1 24 191.57 9.9
6 -1 24 167.6 9.56
6 -1 24 169.14 9.17
6 1 24 171.47 8.31
-6 1 -25 53.47 5.64
-6 -1 -25 65.23 6.56
6 1 25 73.55 6.03
6 -1 25 65.83 5.82
6 -1 25 54.39 5.29
-6 -1 -26 -1.79 4.69
6 1 26 9.46 3.55
6 -1 26 2.89 3.47
6 -1 26 3.47 3.55
6 -1 27 12.98 3.95
-6 -1 -27 10.98 5
6 -2 -29 247.23 12.71
6 2 -29 229.51 12.55
6 -2 -28 18.71 4.61
6 2 -28 19.52 4.54
6 -2 -27 25.65 4.72
6 2 -27 30.11 4.75
6 -2 -26 4.01 3.37
6 2 -26 4.06 3.38
6 -2 -25 90.8 6.79
6 2 -25 106.72 6.98
6 2 -24 115.74 7.13
6 -2 -24 95.84 6.87
6 -2 -23 3.38 2.91
6 2 -23 4.86 2.57
6 2 -22 57.52 4.86
6 -2 -22 59.87 5.06
6 -2 -22 50.43 3.29
6 -2 -21 304.99 12.69
6 2 -21 288.43 12.43
6 -2 -21 263.24 10.47
6 -2 -20 -0.25 1.59
6 -2 -20 1.03 2.39
6 2 -20 3.14 2.28
6 2 -20 3.25 2.57
6 2 -19 145.83 7.62
6 2 -19 179.33 8.56
6 -2 -19 175.32 8.47
6 -2 -19 174.84 6.89
6 2 -18 43.11 3.8
6 2 -18 50.45 4.02
6 -2 -18 38.56 3.77
6 -2 -18 45.59 2.83
6 -2 -17 116.09 4.9
6 2 -17 90.25 5.67
-6 -2 17 113.65 5.66
-6 2 17 119.72 5.74
6 2 -16 209.16 9.19
-6 2 16 200.55 8.71
-6 -2 16 215.36 8.84
-6 2 15 -1.79 1.9
-6 -2 15 -0.56 1.81
6 2 -15 4.34 2.74
-6 -2 14 135.03 6.11
-6 2 14 121.24 5.96
6 2 -14 124.14 6.65
6 2 -14 135.81 6.39
6 -2 -14 140.51 6.42
-6 -2 13 889.24 30.05
-6 2 13 883.45 30.09
6 -2 -13 864.46 30.36
6 2 -13 856.87 30.33
6 2 -13 802.45 30.57
-6 2 12 28.45 2.57
-6 -2 12 36.62 2.64
6 2 -12 23.91 3.76
-6 -2 11 553.51 20.59
6 2 -11 565.77 21.38
6 2 -11 586.4 20.38
-6 -2 11 569.68 20.42
-6 2 11 591.23 20.51
-6 -2 10 13.96 2.02
-6 2 10 8.22 2.03
6 2 -10 13.52 1.88
6 2 -10 11.44 3.31
-6 -2 10 17.65 2.52
6 2 -9 211.98 8.94
6 2 -9 187.37 7.83
-6 -2 9 179.57 8.09
6 2 -9 197.48 7.69
-6 -2 9 188.33 7.73
-6 2 9 192.97 7.79
6 2 -8 206.08 9.32
6 2 -8 208.47 8.28
-6 -2 8 213.91 8.85
-6 -2 8 207.12 8.23
-6 2 8 207.47 8.29
6 2 -8 201.45 8.1
-6 -2 7 9.01 2.36
6 -2 -7 3.83 2.19
6 2 -7 6.12 1.44
-6 -2 7 5.83 1
6 2 -7 4.87 2.42
-6 2 7 4.39 1.55
-6 -2 7 5.58 1.49
6 2 -7 3.78 1.41
-6 2 6 10.62 1.81
-6 -2 6 9.66 1.75
-6 -2 6 11.4 1.2
6 2 -6 11.58 2.71
-6 -2 6 10.01 2.74
6 -2 -6 11.67 2.43
6 -2 -5 267.45 11.12
-6 -2 5 252.74 11.51
-6 -2 5 282.6 10.72
-6 2 5 296.64 10.78
6 2 -5 285.95 11.69
-6 -2 5 290.09 10.12
6 -2 -4 13.9 2.63
-6 2 4 9.84 2.16
-6 -2 4 12.95 2.24
-6 -2 4 8.43 1.12
6 2 -4 10.32 2.76
-6 -2 4 14.2 3.17
-6 -2 3 757.19 28.34
6 -2 -3 714.26 27.42
6 2 -3 797.64 28.09
-6 -2 3 809.77 26.43
-6 -2 2 242.66 10.78
6 -2 -2 230.81 9.74
-6 -2 2 243.04 8.67
6 2 -2 252.39 10.44
6 -2 -1 21.04 2.71
-6 -2 1 18.04 3.22
-6 -2 1 20.26 1.37
6 -2 0 187.27 8.49
-6 -2 0 213.53 9.38
-6 -2 0 201.83 7.25
-6 -2 -1 -0.39 0.7
-6 -2 -1 5.13 2.4
6 -2 1 2.67 2.28
6 -2 2 53.97 3.97
-6 -2 -2 57.42 2.5
-6 -2 -2 56.53 4.24
6 -2 3 723.21 26.52
-6 2 -3 748.73 26.1
-6 -2 -3 755.65 25.11
-6 -2 -3 729.05 27.35
-6 2 -4 2.78 1.99
6 -2 4 -2.2 2.36
-6 -2 -4 2.28 2.31
-6 -2 -4 1.2 0.81
6 -2 5 1093.97 37.27
-6 2 -5 1058.01 36.88
6 -2 6 164.3 7.81
6 2 6 174.08 7.89
6 -2 6 160.12 7.31
-6 2 -6 154.58 7.03
6 -2 7 79.52 5
6 2 7 81.59 4.99
6 -2 7 76.42 4.5
-6 2 -7 74.48 4.4
6 -2 8 40.7 3.74
6 2 8 47.19 3.9
-6 2 -8 36.38 3.37
-6 2 -9 30.13 3.07
6 -2 9 28.39 3.28
6 2 9 31.23 3.34
6 -2 9 25.1 2.37
-6 2 -10 44.73 3.76
6 -2 10 52.73 3.18
6 2 10 45.38 3.93
6 -2 10 47.84 4.08
6 -2 11 57.95 3.47
-6 2 -11 56.4 4.15
-6 -2 -11 60.9 5.18
6 -2 12 79.24 4.14
-6 2 -12 77.52 4.99
-6 -2 -12 83.45 6.19
-6 -2 -13 465.2 18.8
6 -2 13 440.04 16.21
6 2 13 491.87 18.1
6 -2 13 470.59 18.03
-6 -2 -14 237.24 11.12
-6 2 -14 186.22 8.99
6 2 14 217.6 10
6 -2 14 202.66 9.86
6 -2 14 202.4 8.23
-6 2 -15 3.48 3.07
6 -2 15 0.19 1.32
6 2 15 2.37 2.68
6 -2 15 0.66 2.51
-6 2 -16 4.52 3.19
6 -2 16 3.58 1.52
6 2 16 2.7 2.76
6 -2 16 4.82 2.65
-6 2 -17 14.89 3.67
6 2 17 14.19 3.29
6 -2 17 14.87 3.33
6 -2 17 14.33 1.82
-6 2 -18 48.55 4.84
6 -2 18 57.47 3.32
6 -2 18 66.03 5.54
6 2 18 65.78 5.2
6 -2 18 53.9 4.88
-6 2 -19 32.02 4.36
6 -2 19 34.28 4.19
6 2 19 38.08 4.22
6 -2 19 36.47 2.62
6 -2 19 33.32 4.4
6 -2 20 112.16 7.22
6 2 20 104.61 6.87
6 -2 20 103.16 6.87
6 -2 21 302.61 14.34
6 2 21 338.3 14.5
6 -2 21 321.53 14.34
6 -2 22 27.46 4.36
6 2 22 28.01 4.09
6 -2 22 28.58 4.04
6 -2 23 16.48 3.77
6 2 23 15.53 3.76
6 -2 23 15.51 3.7
6 -2 24 -1.09 3.29
6 2 24 1.06 3.23
6 -2 24 -1.9 3.29
6 -2 25 29.97 4.42
6 -2 25 32.9 4.58
6 -3 -26 2.72 3.52
6 3 -26 4.34 3.49
6 -3 -25 163.04 9.21
6 3 -25 163.19 9.12
6 -3 -24 56.56 5.31
6 3 -24 52.4 5.13
6 3 -23 47.73 4.84
6 -3 -23 50.51 4.95
6 -3 -22 140.27 7.76
6 3 -22 134.01 7.66
6 3 -21 195.19 9.6
6 -3 -21 204.78 9.74
6 -3 -20 11.16 3.15
6 3 -20 11.06 2.94
6 -3 -19 -2.23 2.52
6 3 -19 0.74 2.18
6 -3 -18 55.68 2.8
6 -3 -18 67.86 4.7
6 3 -18 79.9 4.83
6 -3 -17 344.72 12.63
6 3 -17 323.52 12.42
6 -3 -16 5.21 2.24
6 3 -16 9.8 2.32
6 -3 -15 156.55 7.28
6 3 -15 148.93 7.13
6 3 -14 307.52 12.53
-6 -3 14 326 12.09
-6 3 14 312.44 12.03
-6 -3 13 83.47 4.07
-6 3 13 76.35 4.18
-6 -3 13 76.99 4.13
6 3 -13 78.34 4.76
-6 3 12 4.47 1.87
-6 -3 12 9.19 1.71
6 3 -12 7.79 2.66
-6 -3 11 34.15 3.07
-6 -3 11 47.67 2.77
6 3 -11 39.07 3.53
-6 3 11 36.48 2.74
-6 -3 11 40.19 2.81
6 3 -10 51.75 3.9
-6 -3 10 41.54 3.52
-6 -3 10 47.43 2.84
-6 -3 10 50.31 2.98
-6 3 10 44.32 2.94
-6 -3 9 27.42 2.18
-6 -3 9 26.3 3.04
6 3 -9 28.34 3.26
-6 3 9 25.57 2.29
-6 -3 9 31.1 2.37
-6 -3 8 16.84 3.17
-6 3 8 8.68 1.76
-6 -3 8 17.89 2.1
-6 -3 8 9.35 1.62
-6 -3 7 328.85 13.49
-6 -3 7 341.75 12.32
-6 3 7 322.04 12.25
-6 -3 7 339.92 12.27
6 -3 -6 472.63 16.93
-6 -3 6 431.64 17.28
-6 -3 6 434.89 15.89
-6 -3 6 446.61 15.91
-6 3 6 444.52 15.9
-6 -3 5 277.63 11.79
6 -3 -5 265.75 11.03
-6 -3 5 270.96 10.14
-6 -3 5 282.41 10.23
-6 3 5 257.79 10.11
-6 -3 4 23.3 4
-6 -3 4 22.83 2.39
-6 3 4 15.79 2.12
-6 -3 4 19.6 1.9
6 -3 -4 17.65 2.92
6 3 -4 19.51 2.16
6 3 -3 4.96 1.53
-6 -3 3 2.15 1.59
-6 3 3 2.87 1.6
-6 -3 3 0.4 3.33
-6 -3 3 1.78 1.16
6 -3 -3 1.68 2.25
-6 -3 2 90.57 6.17
6 3 -2 93.15 4.46
6 -3 -2 93.37 5.06
-6 -3 2 95.29 4.27
-6 -3 2 93.35 4.53
-6 3 2 88.33 4.4
6 -3 -1 125.52 6.26
-6 -3 1 139.17 7.44
-6 -3 1 133 5.55
6 3 -1 135.83 5.75
6 -3 0 41.24 3.38
-6 -3 0 41.49 4.22
-6 -3 0 38.1 2.48
6 3 0 44.3 2.71
-6 -3 -1 728.34 25.64
6 -3 1 781.74 26.45
-6 -3 -1 739.68 27.57
-6 -3 -2 420.27 14.97
-6 -3 -2 421.32 16.98
6 -3 2 425.71 15.75
-6 -3 -3 133.12 7.57
6 -3 3 134.94 6.59
6 3 3 146.51 6.62
6 -3 3 133.43 6.59
6 -3 4 87.41 5.05
6 3 4 91.25 5.19
-6 -3 -4 93.15 6.15
6 -3 4 89.23 5.12
6 -3 5 28.7 2.93
-6 -3 -5 30.74 3.82
6 3 5 24.96 3
6 -3 5 21.24 2.78
-6 -3 -6 50.75 4.8
6 -3 6 42.86 3.39
6 -3 6 48.88 3.82
6 3 6 45.61 3.8
-6 -3 -7 15.97 3.43
6 -3 7 10.62 2.29
6 3 7 14.72 2.65
6 -3 7 10.27 2.46
-6 -3 -8 12.81 3.41
6 3 8 16.57 2.82
6 -3 8 13.05 2.72
-6 -3 -9 461.11 19.22
6 3 9 461.41 17.7
6 -3 9 473.68 17.9
6 3 10 171.2 7.87
6 -3 10 159.25 7.64
-6 -3 -10 152.01 9.07
6 3 10 158.72 7.91
6 -3 10 162.29 8.07
-6 -3 -11 30.95 4.39
6 -3 11 31.99 3.14
6 3 11 35.6 3.53
6 -3 11 27.07 3.35
6 -3 12 13.98 2.48
-6 -3 -12 12.02 3.84
6 3 12 9.86 2.51
6 -3 12 13.56 2.88
-6 -3 -13 36.2 4.98
6 3 13 46.95 4.01
6 -3 13 44.61 4.15
6 -3 13 41.49 3.48
6 -3 14 -0.15 1.9
6 3 14 0.98 2.43
6 -3 14 -0.21 2.51
6 -3 15 0.14 2
6 3 15 -0.99 2.38
6 -3 15 -0.63 2.46
6 -3 16 11.29 2.33
6 3 16 15.87 3.12
6 -3 16 14.67 3.32
6 -3 16 9.51 3.81
6 3 17 538.25 20.26
6 -3 17 514.95 20.29
6 -3 17 492.6 18.89
6 -3 17 516.6 21.15
6 3 18 25.66 3.89
6 -3 18 28.25 4.12
6 -3 18 27.19 4.58
6 -3 18 26.73 2.83
6 -3 19 2.19 1.86
6 3 19 1.97 2.94
6 -3 19 0.23 3.01
6 -3 19 -0.28 3.29
6 3 20 89.82 6.14
6 -3 20 96.42 6.43
6 -3 20 94.98 7.04
6 -3 20 82.04 4.77
6 -3 21 43.15 3.23
6 -3 21 41.95 4.62
6 -3 21 38.43 5.14
6 3 21 45.11 4.77
6 -3 22 6.58 3.39
6 -3 22 10.2 3.91
6 -3 22 8.72 2.14
6 -4 -22 24.74 3.93
6 -4 -21 53.94 4.76
6 -4 -20 38.86 4.03
6 -4 -19 5.71 2.64
6 -4 -18 66.18 4.78
6 4 -17 72.71 4.69
6 -4 -17 66.01 4.56
-6 -4 16 40.52 3.01
6 -4 -16 31.92 3.38
6 4 -16 33.46 3.28
-6 -4 15 213.73 8.58
6 -4 -15 204.34 8.79
6 4 -15 187.37 8.61
6 -4 -14 -0.64 1.16
-6 -4 14 4.9 1.82
6 -4 -14 0.13 1.98
6 4 -14 2.94 1.93
-6 -4 13 75.93 4.14
6 4 -13 68.92 4.06
6 -4 -13 64.62 4.06
-6 -4 12 5.42 1.72
6 -4 -12 1.77 1.71
6 4 -12 5.03 1.77
-6 -4 11 65.02 3.69
-6 -4 11 49.64 3.5
6 -4 -11 52.47 3.39
6 4 -11 55.14 3.36
-6 -4 10 262.71 9.99
-6 -4 10 240.39 9.92
6 -4 -10 245.28 9.65
6 4 -10 244.84 9.59
-6 -4 9 205.22 8.14
-6 -4 9 177.45 8.32
-6 -4 9 191.12 7.54
-6 -4 8 44.77 3.07
-6 -4 8 44.27 4.05
-6 -4 8 42 2.58
-6 4 8 34.01 2.39
-6 -4 7 50 3.17
-6 -4 7 44.44 4.24
-6 4 7 37.23 2.42
-6 -4 7 45.25 2.62
-6 4 6 48.46 2.77
-6 -4 6 56.76 4.89
-6 -4 6 57.69 3.46
-6 -4 6 56.27 2.9
-6 4 5 2.81 1.31
-6 -4 5 1.35 1.27
-6 -4 5 4.15 1.72
-6 4 4 4.15 1.36
-6 -4 4 6.01 1.48
-6 -4 4 2.16 1.68
-6 -4 3 33.21 2.61
6 -4 -3 33.92 3.43
-6 -4 3 29.48 2.19
-6 4 3 29.19 2.09
-6 -4 3 25.92 4.56
-6 -4 2 95.86 6.59
6 -4 -2 92.1 5.07
-6 4 2 77.59 3.81
-6 -4 2 87.81 4.02
-6 -4 2 92.37 4.55
-6 -4 1 21.11 4.03
6 -4 -1 14.7 2.72
-6 -4 1 16.23 1.91
-6 4 1 13.96 1.77
6 -4 -1 15.04 2.25
-6 -4 1 16.28 2.08
-6 -4 0 168.24 8.27
6 -4 0 131.89 6.23
6 -4 0 149.49 6.62
-6 -4 0 150.17 6.28
-6 -4 0 131.88 5.73
-6 4 0 130.48 5.61
6 -4 1 25.34 2.83
-6 -4 -1 20.31 2.14
-6 4 -1 16.85 1.99
-6 -4 -1 14.26 2.04
6 4 1 23.15 2.45
6 -4 1 21.91 2.92
-6 -4 -1 25.02 3.86
6 -4 2 20.1 2.76
-6 -4 -2 21.28 2.2
6 -4 2 24.33 3.04
-6 -4 -2 24.42 3.79
6 4 2 18.83 2.27
-6 -4 -3 11.57 3.52
6 -4 3 11.64 2.79
6 -4 3 12.03 2.4
-6 -4 -4 1.73 3.24
6 -4 4 1.38 2.59
6 -4 4 2.43 2.36
-6 -4 -5 280.35 13.3
6 -4 5 293.26 11.19
6 -4 5 338.98 13.98
6 4 5 264.14 11.32
6 -4 5 296.92 11.91
6 -4 5 310.68 11.79
6 -4 6 201.55 8.38
-6 -4 -6 221.39 10.97
6 -4 6 237.37 9.48
6 4 6 197.61 8.89
6 -4 6 214.63 9.37
6 -4 7 38.43 4.94
6 -4 7 42.05 3.64
6 4 7 34.79 3.21
6 -4 7 41.32 3.7
-6 -4 -7 35.28 4.81
6 -4 8 349.07 14.94
6 -4 8 328.72 12.7
6 4 8 303.01 12.32
6 -4 8 312.02 12.83
-6 -4 -8 277.56 14.17
6 -4 9 36.72 4.99
-6 -4 -9 29.51 4.66
6 -4 9 38.38 3.55
6 -4 9 23.94 3.3
6 4 9 31.44 3.19
6 -4 10 12.51 2.96
6 4 10 11.14 2.41
6 -4 10 11.97 2.81
-6 -4 -10 6.97 4.15
6 -4 10 10.51 4.12
6 -4 11 96.66 5.87
6 -4 11 99.14 6.1
-6 -4 -11 95.59 7.41
6 -4 11 118.03 7.89
6 -4 12 6.38 2.9
6 -4 12 5.37 2.75
-6 -4 -12 -0.33 3.99
6 -4 12 7.28 3.97
6 -4 13 44.49 4.25
6 -4 13 47.87 4.25
-6 -4 -13 42.32 5.73
6 -4 13 42.05 5.48
6 -4 14 123.88 6.86
6 -4 14 111.19 6.73
-6 -4 -14 121.73 8.82
6 -4 14 129.94 8.4
6 -4 15 15.6 3.16
6 -4 15 18.21 3.3
-6 -4 -15 17.68 5
6 -4 15 16.7 4.49
6 -4 16 154.66 7.96
6 -4 16 155.87 8.2
6 -4 16 173.13 9.99
-6 -4 -16 132.67 9.89
6 -4 17 17.45 4.67
6 -4 17 8.07 2.98
-6 -4 -17 8.06 5.01
6 -4 18 41.64 5.71
-6 -4 -18 26.81 5.97
6 -4 18 29.05 3.68
-6 -5 15 18.45 2.68
-6 -5 14 11.86 2.44
-6 -5 13 64.58 4.22
-6 -5 12 271.09 11.1
-6 -5 11 111.33 5.76
-6 -5 10 6.21 2.21
-6 -5 9 49.95 3.69
-6 -5 8 5.2 2.17
-6 -5 7 9.43 2.3
6 -5 -7 11.22 2.18
6 -5 -6 12.46 2.41
-6 -5 6 17.85 4.02
-6 -5 6 12.74 2.48
-6 -5 5 131.59 7.74
-6 -5 5 145.9 6.78
6 -5 -5 136.99 6.53
-6 -5 4 55.73 5.57
-6 -5 4 55.01 3.91
6 -5 -4 54.52 4.02
-6 -5 3 70.3 6.46
6 -5 -3 76.04 4.77
-6 -5 3 68.48 4.42
6 -5 -2 3.86 2.48
-6 -5 2 8.76 4.74
-6 -5 2 7.53 2.24
-6 -5 1 158.37 7.58
-6 -5 1 176.95 9.92
6 -5 -1 184.83 8.4
6 -5 0 2.41 2.83
-6 -5 0 -3.29 4.33
-6 -5 0 -0.13 2.06
-6 -5 -1 56.79 5.67
6 -5 1 73.12 5.12
6 -5 2 5.07 3.17
-6 -5 -2 8.37 4.08
-6 -5 -2 2.19 2.09
-6 -5 -3 92.22 6.96
6 -5 3 107.46 6.6
-6 -5 -3 84.29 4.92
-6 -5 -4 70.88 6.24
-6 -5 -4 66.33 4.26
6 -5 4 75.75 5.83
-6 -5 -5 22.08 4.64
6 -5 5 25 4.3
-6 -5 -6 23.38 4.87
6 -5 6 23.48 4.44
-6 -5 -7 120.3 8.45
6 -5 7 127.58 8.22
-6 -5 -8 11.1 4.65
6 -5 8 13.24 4.24
6 -5 9 8.17 4.12
6 -5 9 6.09 3.24
-6 -5 -9 0.67 4.55
6 -5 10 32.09 5.17
-6 -5 -10 23.6 5.27
6 -5 10 25.67 4.03
6 -5 11 82.29 6.96
6 -5 11 69.12 5.62
-6 -5 -11 62.61 7.03
7 0 -31 3.15 4.86
7 0 -30 57.12 6.68
7 0 -29 2.11 4.21
7 0 -28 185.88 10.89
7 0 -27 0.64 3.77
7 0 -26 310.88 14.71
7 0 -25 -0.29 3.37
7 0 -24 1342.24 48.54
7 0 -23 -1.05 2.94
7 0 -22 65.85 5.43
-7 0 21 2.93 2.18
-7 0 20 40.99 3.5
-7 0 19 -0.69 2.12
-7 0 18 98.25 5.36
-7 0 17 1.85 2.03
-7 0 16 2316.19 77.48
7 0 -16 2277.81 77.06
-7 0 15 1.34 1.83
-7 0 14 46.1 3.29
7 0 -14 42.15 3.76
7 0 -13 -0.69 2.23
-7 0 13 1.15 1.58
7 0 -13 1.46 2.1
7 0 -12 9.04 2.49
-7 0 12 6.98 1.75
7 0 -11 2.01 2.3
-7 0 11 -1.63 1.65
-7 0 10 45.17 3.14
7 0 -10 52.62 3.86
7 0 -9 1.65 2.38
-7 0 9 0.43 1.52
7 0 -8 3478.78 117.85
-7 0 8 3546.15 117.34
7 0 -7 2.72 2.67
-7 0 7 -0.22 1.66
-7 0 6 19.32 2.49
7 0 -6 18.95 3.29
-7 0 6 18.45 2.41
-7 0 5 1.15 1.75
7 0 -5 0.89 2.79
7 0 -4 477.76 17.51
-7 0 4 434.28 16.95
-7 0 3 0.68 2.1
7 0 -3 2.94 2.95
-7 0 2 30.54 3.12
7 0 -2 30.89 3.83
-7 0 1 0.59 2.1
-7 0 0 1324.68 46.06
-7 0 -1 3.95 2.44
-7 0 -2 231.62 10.3
-7 0 -3 4.39 2.89
7 0 3 -0.78 2.26
-7 0 -4 23.97 3.56
7 0 4 17.94 2.97
-7 0 -5 -1.36 3.07
7 0 5 -0.81 2.27
7 0 5 -0.3 0.49
-7 0 -6 194.93 9.9
7 0 6 213.73 7.28
-7 0 -7 6.86 2.72
-7 0 -8 3103.34 108.37
7 0 8 3314.33 108.73
-7 0 -9 3 2.53
-7 0 -10 29.4 3.69
-7 0 -11 1.27 2.6
-7 0 -12 54.7 4.81
-7 0 -13 5.79 2.88
-7 0 -14 252.21 11.82
-7 0 -15 -1.72 2.93
-7 0 -16 332.43 14.82
7 0 16 331.89 14.82
-7 0 -17 1.31 3.34
7 0 17 -0.53 2.78
-7 0 -18 78.33 6.27
7 0 18 70.34 5.86
-7 0 -19 -2.54 3.67
7 0 19 1.4 3.11
-7 0 -20 126.16 8.29
7 0 20 134.15 8.34
-7 0 -21 -0.91 3.89
7 0 21 1.44 3.45
-7 0 -22 82.8 7.05
7 0 22 89.93 6.75
7 0 23 -0.3 3.23
-7 0 -23 -4.77 4.2
7 0 23 2.24 3.29
-7 0 -24 294.42 14.53
7 0 24 312.82 14.39
7 0 24 287.55 13.25
7 0 25 -0.31 3.37
7 0 25 -2.28 3.39
-7 0 -25 -4.33 4.63
7 0 26 238.58 12
-7 0 -26 233.92 12.48
7 0 26 208.74 10.73
7 -1 -30 78.56 7.6
7 1 -30 77.51 7.65
7 -1 -29 17.91 4.52
7 1 -29 14.89 4.51
7 -1 -28 350.71 16.5
7 1 -28 351.76 16.48
7 -1 -27 6.52 3.72
7 1 -27 -0.31 3.6
7 -1 -26 13.43 3.83
7 1 -26 10.79 3.65
7 -1 -25 210.35 10.95
7 1 -25 207.44 10.93
7 -1 -24 105.36 7.26
7 1 -24 117.37 7.51
7 -1 -23 103.76 7.08
7 1 -23 112.8 7.19
7 -1 -22 71.47 5.55
7 1 -22 68.27 5.36
7 -1 -21 5.77 2.71
7 1 -21 2.77 2.48
-7 -1 21 2.94 2.23
-7 1 21 6.52 2.39
7 -1 -20 451.07 16.15
-7 -1 20 432.45 16.62
-7 1 20 410.51 16.55
-7 -1 19 13.05 2.41
-7 1 19 9.02 2.22
7 -1 -19 11.27 2.06
-7 1 18 92.59 5.16
-7 -1 18 97.47 5.27
7 -1 -18 93.46 4.74
-7 1 17 698.25 25.08
-7 -1 17 695.08 25.07
-7 -1 16 275.05 10.83
-7 1 16 271.12 10.8
7 1 -16 253.46 11.06
-7 1 15 242.65 9.68
-7 -1 15 230.52 9.56
7 1 -15 227 9.96
7 1 -14 6.78 2.6
-7 1 14 10.97 2.07
-7 -1 14 6.84 1.87
7 1 -13 5.8 2.56
-7 1 13 6.98 1.76
-7 -1 13 5.24 1.82
7 1 -13 7.67 1.31
7 1 -12 927.13 34.17
-7 1 12 1007.7 33.78
-7 -1 12 982.83 33.67
7 1 -12 960.28 32.95
7 1 -11 5.05 2.95
7 -1 -11 1.27 2.31
-7 -1 11 -0.54 1.5
-7 1 11 0.99 1.55
7 1 -11 1 1
-7 -1 10 162.64 7.37
7 1 -10 153.03 7.77
7 -1 -10 152.03 7.45
-7 1 10 162.89 7.06
-7 -1 10 153.21 6.95
7 1 -10 173.67 6.33
-7 -1 9 542.4 19.61
7 1 -9 501.37 19.78
-7 1 9 533.48 19.18
-7 -1 9 519.23 19.1
7 1 -9 541.99 18.37
7 1 -8 12.34 3.1
-7 -1 8 12.7 2.45
7 1 -8 9.38 1.16
-7 -1 8 9.84 1.83
-7 1 8 10.16 1.92
7 1 -7 288.97 12.13
-7 -1 7 282.88 11.49
-7 -1 7 288.8 11.12
-7 1 7 295.11 11.18
7 1 -7 279.44 10.17
-7 -1 6 9.58 2.37
7 1 -6 7.92 1.01
-7 -1 6 6.89 2.03
-7 1 6 7.8 1.91
7 1 -6 10.29 3.37
7 1 -5 103.05 4.1
-7 -1 5 103.63 5.58
7 -1 -5 104.83 5.75
7 1 -5 101.18 6.19
-7 -1 4 1599.07 54.48
7 -1 -4 1568.21 54.28
7 1 -4 1583.52 52.71
7 1 -4 1522.3 54.58
-7 1 4 1633.48 54.1
7 1 -3 4.65 2.63
7 -1 -3 3.86 2.79
-7 1 3 1.28 1.95
7 1 -3 1.03 0.75
-7 1 2 45.76 3.6
7 -1 -2 41.41 4.03
7 1 -2 38.88 3.81
7 1 -2 53.73 2.28
-7 1 1 59.92 4.04
7 -1 -1 57.39 4.49
7 1 -1 53.91 4.34
7 1 -1 62.66 2.56
7 -1 0 99.22 5.93
-7 1 0 102.82 5.47
7 1 0 98.75 5.83
7 -1 1 554.15 20.54
-7 1 -1 535.74 20.23
7 1 1 558.09 20.65
-7 1 -2 14.75 2.7
7 -1 2 15.63 3.1
7 1 2 21.67 2.98
-7 -1 -2 15.58 3.46
-7 -1 -3 -3.13 2.64
7 1 3 -0.68 2.44
-7 1 -3 2.77 2.35
7 -1 3 4.05 2.28
-7 1 -4 1287.21 43.95
7 -1 4 1233.43 43.78
-7 -1 -4 1266.12 44.55
-7 1 -5 0.94 2.5
7 -1 5 3.05 2.27
-7 -1 -5 4.7 2.38
7 -1 6 163.87 7.91
-7 -1 -6 164.81 8.41
-7 1 -6 179.36 8.26
-7 -1 -7 38.09 3.86
7 -1 7 33.77 3.41
-7 1 -7 34.26 3.87
7 -1 7 30.52 2.02
-7 1 -8 43.68 4.32
7 1 8 43.54 4.08
7 -1 8 36.32 3.95
7 -1 8 33 2.14
-7 -1 -8 39.23 4.19
-7 1 -9 186.98 8.76
7 -1 9 157.81 6.38
-7 -1 -9 176.28 8.76
-7 1 -10 2.17 3.34
-7 -1 -10 4.14 2.79
7 -1 10 2.27 0.97
-7 1 -11 2.41 3.35
-7 -1 -11 9.35 3.12
7 -1 11 6.18 1.17
7 -1 12 378.59 13.13
-7 -1 -12 354.89 15.82
-7 1 -12 347.89 15.26
-7 1 -13 -4.34 3.45
-7 -1 -13 -3.38 3.29
7 -1 13 0.18 0.99
-7 -1 -14 244.37 12.19
-7 1 -14 256.66 11.65
7 -1 14 260.17 9.43
-7 -1 -15 76.11 6.24
-7 1 -15 89.27 5.94
7 1 15 90.3 6.37
7 -1 15 72.23 5.92
-7 -1 -16 77.63 6.34
-7 1 -16 92.18 6.11
7 1 16 84.71 6.17
7 -1 16 74.06 6.04
-7 -1 -17 341 15.13
-7 1 -17 295.08 13.84
7 1 17 341.5 14.65
7 -1 17 321.86 14.5
-7 -1 -18 69.29 6.22
-7 1 -18 69.7 5.65
7 1 18 71.16 5.86
7 -1 18 59.83 5.49
7 1 19 26.67 4.12
7 -1 19 23.77 4.07
-7 -1 -19 22.54 4.56
-7 1 -19 24.22 4.08
-7 -1 -20 216.72 11.38
-7 1 -20 189.75 10.19
7 1 20 208.26 10.82
7 -1 20 199.67 10.68
7 1 21 9.26 3.36
7 -1 21 11.06 3.62
-7 1 -21 14.37 4.14
-7 -1 -21 7.6 4.31
-7 -1 -22 228.37 12.25
-7 1 -22 214.47 11.2
7 1 22 239.06 11.7
7 -1 22 210.19 11.42
7 -1 22 226.12 11.24
-7 1 -23 2.91 3.9
-7 -1 -23 -0.35 4.38
7 1 23 0.29 3.21
7 -1 23 -1.18 3.37
7 -1 23 1.56 3.37
-7 -1 -24 10.32 4.94
-7 1 -24 8.11 4.2
7 1 24 11.32 3.74
7 -1 24 14.12 3.91
7 -1 24 9.64 3.81
-7 -1 -25 125.57 9.38
-7 1 -25 137.57 8.51
7 1 25 141.92 8.68
7 -1 25 130.04 8.56
7 -1 25 123.28 8.14
-7 -1 -26 5.59 4.65
7 1 26 3.36 3.37
7 -1 26 8.01 3.76
7 -1 26 2.32 3.62
7 -2 -29 248.27 12.97
7 2 -29 251.86 13.06
7 -2 -28 5 3.84
7 2 -28 7.01 3.7
7 -2 -27 67.86 6.39
7 2 -27 74.21 6.43
7 -2 -26 12.29 4.04
7 2 -26 19.34 3.84
7 -2 -25 7.99 3.37
7 2 -25 2.17 2.85
7 -2 -24 101.05 6.84
7 2 -24 101.39 6.78
7 -2 -23 0.24 2.96
7 2 -23 0.25 2.59
7 -2 -22 92.84 4.88
7 -2 -22 111.8 6.75
7 2 -22 96.21 6.27
7 -2 -21 329.73 12.49
7 -2 -21 333.45 14.31
7 2 -21 338.19 14.32
7 -2 -20 14.69 3.12
7 2 -20 19.45 3.04
7 -2 -20 15.27 2.21
7 -2 -19 248.18 9.08
7 2 -19 196.4 9.87
-7 -2 19 226.77 9.78
-7 2 19 236.89 9.89
7 2 -18 22.79 3.61
-7 -2 18 23.74 2.77
-7 2 18 21.97 2.8
7 2 -17 4.61 2.95
-7 -2 17 2.18 2
-7 2 17 1.94 2.02
7 2 -16 21.57 3.54
-7 -2 16 20.03 2.63
-7 2 16 10.79 2.31
7 2 -15 6.63 3.28
-7 -2 15 2.18 1.92
-7 2 15 2.02 1.93
7 2 -14 72.58 5.36
-7 -2 14 65.83 4.04
-7 2 14 69.32 4.19
-7 -2 13 680.11 24.38
-7 2 13 715.16 24.54
7 2 -13 656.63 25.3
-7 -2 12 49.68 3.4
-7 2 12 62.36 3.72
7 2 -12 50.29 4.82
7 2 -11 588.82 22.69
-7 -2 11 605.8 21.99
7 2 -11 602.71 21.34
-7 -2 11 610.03 21.59
-7 2 11 607.23 21.66
-7 -2 10 71.22 4.58
7 2 -10 75.64 3.86
7 2 -10 64.63 5.37
-7 -2 10 67.45 3.99
-7 2 10 72.21 4.09
-7 -2 9 78.8 4.92
7 2 -9 84.28 4.17
7 2 -9 84.95 5.46
-7 -2 9 82.93 4.33
-7 2 9 81.5 4.38
-7 -2 8 372.09 15.32
7 -2 -8 394.09 15.3
7 2 -8 406.59 14.38
7 2 -8 399.38 15.84
-7 -2 8 388.7 14.64
-7 2 8 401.26 14.7
7 2 -7 25.89 3.59
-7 -2 7 28.26 3.33
7 2 -7 31.86 2.3
-7 -2 7 30.07 2.52
-7 2 7 28.18 2.61
7 -2 -7 25.67 3.23
-7 -2 6 6.11 2.74
7 2 -6 3.7 2.77
7 -2 -6 6.39 2.58
-7 -2 6 3.41 1.7
-7 2 6 8.54 2
7 -2 -5 443.21 16.8
-7 -2 5 441.91 17.4
-7 -2 5 448.93 16.36
-7 2 5 428.25 16.28
7 2 -5 474.69 17.58
7 -2 -4 3.09 2.52
-7 2 4 2.41 1.9
-7 -2 4 2.83 2.82
7 2 -4 0.53 2.59
7 -2 -3 638.25 23.32
-7 -2 3 600.71 24.02
7 -2 -2 215.54 9.36
-7 -2 2 226.08 10.37
-7 -2 2 215.82 7.74
7 2 -2 214.93 9.83
7 -2 -1 38.28 3.77
-7 -2 1 42.43 1.93
-7 -2 1 33.17 4.37
7 2 -1 36.14 3.75
7 -2 0 238.09 10.07
-7 -2 0 236.17 8.35
-7 -2 0 244.6 11.12
7 -2 1 41.18 3.91
-7 -2 -1 36.7 4.13
-7 -2 -1 40.36 1.85
-7 -2 -2 10.49 0.88
7 -2 2 9.2 3.11
-7 -2 -2 13.5 2.93
-7 2 -2 10.89 2.32
7 -2 3 452 17.46
-7 2 -3 469.38 17.03
-7 -2 -3 434.49 18.03
-7 -2 -3 458.47 15.44
-7 -2 -4 15.66 1.03
-7 -2 -4 17.23 3.16
7 -2 4 19.07 2.86
-7 2 -4 15.55 2.57
7 -2 5 719.95 25.14
-7 -2 -5 688.71 23.14
-7 2 -5 700.55 24.86
-7 2 -6 158.27 7.23
7 -2 6 167.94 7.94
7 2 6 171.24 7.9
-7 -2 -6 142.36 5.26
7 -2 6 179.31 7.57
-7 2 -7 16.64 2.99
7 -2 7 19.31 3.16
7 2 7 24.55 3.3
-7 -2 -7 14.72 0.91
7 -2 7 15.79 2.76
7 2 8 118.32 6.79
-7 2 -8 121.7 6.33
7 -2 8 132.83 6.54
-7 2 -9 18.27 2.87
7 -2 9 16.99 2.04
-7 2 -10 14.82 2.9
-7 -2 -10 8.65 3.44
7 -2 10 13.3 1.96
-7 -2 -11 58.06 5.33
7 -2 11 57.97 3.47
-7 2 -11 50.46 4.26
-7 -2 -12 152.73 8.8
7 -2 12 141.55 6.29
-7 2 -12 141.53 7.24
-7 -2 -13 518.64 20.32
7 -2 13 490.28 17.26
-7 2 -14 198.06 9.79
7 -2 14 232.54 8.98
-7 -2 -14 237.99 11.87
7 2 14 240.17 11.18
7 -2 14 231.54 11.08
7 2 15 0.71 2.61
7 -2 15 3.9 2.76
7 -2 15 0.56 1.41
-7 -2 -15 2.15 3.45
-7 2 -15 3.55 2.97
-7 2 -16 25.32 4.12
-7 -2 -16 28.17 4.73
7 2 16 28.72 3.97
7 -2 16 27.93 4.01
7 -2 16 33.89 2.52
-7 -2 -17 27.67 4.98
-7 2 -17 22.55 4.04
7 2 17 19.82 3.92
7 -2 17 24.73 3.99
7 -2 17 26.77 2.24
7 -2 18 6.16 1.55
-7 -2 -18 3.35 3.98
-7 2 -18 5.95 3.83
7 2 18 0.53 3.25
7 -2 18 7.24 3.34
7 -2 19 19.61 2.03
-7 2 -19 16.25 4.16
-7 -2 -19 23.3 5
7 2 19 21.09 3.98
7 -2 19 19.83 3.89
-7 -2 -20 75.24 7.14
7 2 20 81.63 6.52
7 -2 20 80.78 6.3
7 -2 20 86.91 6.73
-7 -2 -21 314.04 15.64
7 -2 21 304.61 14.55
7 2 21 318.86 14.39
7 -2 21 321.22 14.49
-7 -2 -22 26.97 5.49
7 -2 22 27.23 4.75
7 -2 22 41.38 4.98
7 2 22 32.6 4.7
-7 -2 -23 1.89 4.61
7 -2 23 0.29 3.37
7 2 23 6.77 3.7
7 -2 23 0.86 3.56
-7 -2 -24 12.39 5.31
7 -2 24 9.17 3.75
7 2 24 9.08 3.86
7 -2 24 2.03 3.35
7 -3 -26 48.25 5.39
7 3 -26 51.83 5.39
7 -3 -25 291.76 13.46
7 3 -25 283.47 13.31
7 3 -24 39.29 4.58
7 -3 -24 39.9 4.68
7 -3 -23 13.91 3.56
7 3 -23 8.55 3.3
7 -3 -22 101.62 6.52
7 3 -22 88.73 6.18
7 -3 -21 53.48 4.66
7 3 -21 49.53 4.62
7 3 -20 34.36 3.84
7 -3 -20 29.04 3.72
7 -3 -19 33.61 3.76
7 3 -19 30.57 3.57
7 -3 -18 132.8 7.05
7 3 -18 136.55 7.05
7 -3 -17 252.25 10.87
7 3 -17 249.84 10.85
-7 -3 17 249.82 10.27
-7 -3 16 9.41 2.18
-7 3 16 10.83 2.3
-7 -3 15 30.08 2.78
-7 3 15 27.84 2.83
-7 3 14 264.1 10.63
-7 -3 14 277.28 10.69
7 3 -14 268.69 11.54
7 3 -13 0.17 2.77
-7 -3 13 0.66 1.81
-7 3 13 1.2 1.85
-7 -3 12 45.33 3.6
-7 3 12 26.86 2.76
-7 -3 12 39.15 3.07
7 3 -12 34.97 3.96
7 3 -11 214.7 9.09
-7 -3 11 174.7 8.32
-7 -3 11 194.85 7.88
-7 3 11 181.33 7.84
7 3 -10 364.15 14.19
-7 -3 10 349.09 12.78
-7 -3 10 328.54 13.71
-7 3 10 355.76 13.15
-7 -3 10 349.22 13.09
7 3 -9 196.9 9.39
-7 -3 9 200.36 9.33
-7 3 9 200.65 8.46
-7 -3 9 206.2 8.44
-7 -3 9 231.13 8.26
-7 -3 8 4.21 1.37
-7 -3 8 2.38 1.67
-7 3 8 2.9 1.76
7 3 -8 0.17 2.78
-7 -3 8 6.71 3.02
-7 -3 7 223.89 8.17
-7 -3 7 204.88 9.79
-7 -3 7 198.1 8.38
-7 3 7 207.92 8.45
-7 -3 6 276.78 10.16
-7 -3 6 268.15 12.06
-7 -3 6 279.54 10.53
-7 3 6 262.24 10.45
-7 -3 5 157.32 6.18
7 -3 -5 143.17 7.28
-7 -3 5 163.69 8.29
-7 -3 5 146.34 6.52
-7 3 5 149.43 6.54
-7 -3 4 31.62 2.19
7 -3 -4 32.66 3.61
-7 -3 4 34.39 4.83
-7 -3 4 36.02 3.11
-7 3 4 28.83 2.82
-7 -3 3 44.32 3.24
-7 3 3 42.02 3.12
-7 -3 3 45.45 2.58
7 -3 -3 49.86 3.97
-7 -3 3 39.11 4.91
7 -3 -2 163.4 7.7
-7 -3 2 185 9.35
-7 -3 2 177.96 6.64
-7 -3 2 169.91 7.29
-7 3 2 145.5 7.01
-7 -3 1 274.11 12.62
7 -3 -1 247.06 10.98
-7 -3 1 284.75 10.06
-7 -3 0 25.26 4.19
7 -3 0 25 3.38
-7 -3 0 26.62 1.94
7 -3 1 454.58 17.37
-7 -3 -1 467.08 16.25
-7 -3 -1 463.73 18.65
7 -3 2 75.22 5
-7 -3 -2 77.63 3.59
-7 -3 -2 86.77 5.84
-7 -3 -3 8.9 1.33
7 -3 3 7.09 3.09
-7 -3 -3 13.27 3.18
-7 -3 -4 14.46 1.56
7 -3 4 9.95 3.04
-7 -3 -4 12.28 3.22
7 -3 4 12.7 2.82
7 3 4 12.29 2.8
7 -3 5 41.69 3.79
7 3 5 39 3.74
-7 -3 -5 38.15 2.23
7 -3 5 43.93 3.59
-7 -3 -5 43.56 4.74
-7 -3 -6 58.39 5.19
7 -3 6 45.22 3.72
7 -3 6 50.22 4.13
7 3 6 42.89 3.96
7 -3 7 147.53 6.93
-7 -3 -7 147.28 8.54
7 -3 7 150.93 7.54
7 3 7 137.24 7.37
7 -3 8 15.16 2.67
-7 -3 -8 17.74 3.9
7 3 8 22.96 3.22
-7 -3 -9 321.25 14.77
-7 -3 -10 78.82 6.57
7 -3 10 75.16 4.78
7 3 11 41.36 4.19
7 -3 11 46.06 4.36
7 -3 11 50.96 3.81
-7 -3 -11 44.11 5.34
-7 -3 -12 10.51 3.99
7 -3 12 9.63 2.45
7 -3 12 3.5 2.63
7 3 12 3.52 2.63
-7 -3 -13 -3.84 3.9
7 -3 13 1.12 2.75
7 3 13 2.76 2.55
7 -3 13 2.55 2.12
7 -3 14 34.8 3.24
7 -3 14 29.19 4
7 3 14 38.81 4.03
7 -3 15 0.42 2.01
7 3 15 -3.2 3.22
7 -3 15 0.48 2.83
7 -3 16 11.48 2.45
7 3 16 12.25 3.4
7 -3 16 11.32 3.45
7 -3 16 17.9 4.44
7 3 17 402.22 16.85
7 -3 17 398.9 16.98
7 -3 17 394.25 15.33
7 -3 17 434.7 18.13
7 -3 18 35.15 4.52
7 3 18 44.51 4.73
7 -3 18 41.91 5.35
7 -3 18 38.56 3.28
7 -3 19 -0.31 3.75
7 -3 19 1.77 1.95
-7 -3 -19 0.38 4.47
7 3 19 -3.4 3.32
7 -3 19 4.33 3.15
7 3 20 29.81 4.37
7 -3 20 29.69 4.3
-7 -3 -20 28.38 5.89
7 -3 20 33.89 5.23
7 -3 20 28.39 2.87
7 -3 21 4.87 2.02
-7 -3 -21 0.8 5.03
7 -3 21 2.76 3.76
7 3 21 0.75 3.32
7 -3 21 -1.84 3.21
7 -4 -21 91.55 6.31
7 -4 -20 1.97 2.71
7 -4 -19 -1.29 2.81
7 -4 -18 84.42 5.42
7 -4 -17 22.63 3.18
7 -4 -16 20.83 3.06
7 4 -16 21.65 2.93
7 -4 -15 141.86 7.12
7 4 -15 148.32 7.03
-7 -4 14 31.53 2.74
7 4 -14 27.09 2.94
7 -4 -14 26.83 3
-7 -4 13 25.06 2.39
7 -4 -13 22 2.83
7 4 -13 22.21 2.57
-7 -4 12 -0.19 1.92
7 4 -12 0.91 1.77
-7 -4 12 0.11 2.25
-7 -4 12 3.34 1.66
-7 -4 11 53.41 4.07
-7 -4 11 62.7 3.63
-7 4 11 51.7 3.34
-7 -4 11 70.75 3.74
-7 -4 10 73.12 4.78
-7 4 10 62.18 3.52
-7 -4 10 62.1 3.61
-7 -4 10 66.24 3.76
-7 -4 9 187.46 9.07
-7 -4 9 206.8 8.04
-7 4 9 181.6 7.76
-7 -4 8 230.38 10.47
-7 -4 8 255.02 9.41
-7 -4 8 239.49 9.05
-7 4 8 212.54 8.85
-7 -4 7 207.52 9.76
-7 -4 7 198.91 7.9
-7 4 7 182.44 7.71
-7 -4 7 221.9 8.3
-7 -4 6 169.35 8.47
-7 -4 6 144.09 6.14
-7 4 6 133.15 5.98
-7 -4 6 159.44 6.51
-7 -4 5 2.4 1.55
-7 4 5 0.72 1.69
-7 -4 5 1.18 1.62
-7 -4 5 3.71 3.74
-7 -4 4 2.57 1.48
-7 4 4 1.58 1.67
-7 -4 4 2.38 1.64
-7 -4 3 63.58 5.85
-7 -4 3 57.56 3.34
-7 4 3 52.3 3.24
-7 -4 3 66.89 3.56
-7 -4 2 11.83 4.41
7 -4 -2 12.97 2.96
-7 -4 2 16.52 2.16
-7 4 2 12.31 2.05
-7 -4 2 14.34 1.97
-7 -4 1 29.98 2.49
7 -4 -1 35.06 3.54
-7 4 1 27.06 2.51
-7 -4 1 27.28 2.51
-7 -4 1 30.67 4.98
-7 -4 0 203.29 10.39
7 -4 0 173.46 8.3
7 -4 0 214.2 8.78
-7 -4 0 209.88 8
-7 -4 0 195.26 7.92
-7 4 0 180.59 7.75
-7 -4 -1 85.66 6.3
7 -4 1 82.83 4.96
7 -4 1 80.74 4.71
-7 -4 -1 84.44 4.13
-7 -4 -1 70.57 4.13
-7 4 -1 71.07 4.06
7 -4 2 1.12 2.32
7 -4 2 3.57 2.88
-7 -4 -2 6.05 3.48
-7 -4 -2 -0.74 1.46
7 -4 3 33.86 3.51
7 -4 3 30.42 3.69
-7 -4 -3 39.67 4.78
-7 -4 -3 33.57 2.54
-7 -4 -4 7.06 1.78
7 -4 4 3.69 2.85
-7 -4 -4 12.14 3.72
7 -4 4 2.99 2.68
-7 -4 -5 229.49 9.4
-7 -4 -5 257.11 12.28
7 -4 5 273.63 10.76
-7 -4 -6 127.53 8.31
7 -4 6 142.17 7.07
7 4 7 136.96 7.31
7 -4 7 165.75 8.01
-7 -4 -7 163.06 9.3
7 4 8 145.54 7.41
7 -4 8 154.4 7.9
-7 -4 -8 155.49 9.37
7 -4 9 13.07 4.41
7 -4 9 3.43 2.73
-7 -4 -9 3.45 3.88
7 -4 10 134.14 7.39
7 -4 10 119.01 7.08
-7 -4 -10 130.82 8.81
7 -4 11 11.93 3.2
-7 -4 -11 5.99 4.16
7 -4 11 5.91 4.43
7 -4 11 9.69 2.93
7 -4 12 4.48 2.86
7 -4 12 1.21 2.7
7 -4 12 0.33 4.01
-7 -4 -12 -1.37 4.22
7 -4 13 104.7 6.45
7 -4 13 107.04 8.18
7 -4 13 105.05 6.33
-7 -4 -13 80.79 7.62
-7 -4 -14 52.17 6.58
7 -4 14 58.83 5.12
7 -4 14 52.24 6.42
7 -4 14 58.15 4.77
7 -4 15 126.79 7.43
7 -4 15 129.17 8.92
-7 -4 -15 111.36 8.89
7 -4 15 118.38 6.86
7 -4 16 90.5 6.37
7 -4 16 103.5 7.92
7 -4 16 96.46 6.02
-7 -4 -16 83.2 7.96
7 -4 17 23.8 3.39
7 -4 17 20.52 4.87
-7 -4 -17 10.3 5.06
7 -4 17 14.06 3.74
-7 -5 13 42.71 3.36
-7 -5 12 182.23 8.03
-7 -5 11 110.35 5.64
-7 -5 10 11.79 2.33
-7 -5 9 3.84 2.03
-7 -5 8 1.65 1.85
7 -5 -7 3.32 2.29
-7 -5 7 4.33 1.92
-7 -5 7 3.52 3.65
7 -5 -6 0.13 2.31
-7 -5 6 3.53 3.87
-7 -5 6 0.13 1.85
7 -5 -5 185.18 8.52
-7 -5 5 184.6 9.81
-7 -5 5 199.62 8.34
-7 -5 4 54.41 3.78
7 -5 -4 47.7 4.11
-7 -5 4 47.13 5.55
7 -5 -3 108.07 6.18
-7 -5 3 108.64 7.77
-7 -5 3 106.12 5.5
-7 -5 2 34.1 5.66
7 -5 -2 36.3 4.05
-7 -5 2 36.95 3.16
-7 -5 1 41.43 5.99
7 -5 -1 46.76 4.47
-7 -5 1 46.66 3.55
-7 -5 0 19.85 2.63
7 -5 0 28.16 4.06
-7 -5 0 23.43 5.36
-7 -5 -1 14.39 2.35
7 -5 1 12.05 3.5
-7 -5 -1 10.09 4.94
-7 -5 -2 6.9 2.16
-7 -5 -2 14.55 4.55
7 -5 2 7.11 3.66
7 -5 3 120.96 7.62
-7 -5 -3 113.76 8.09
7 -5 4 80.27 6.39
-7 -5 -4 56.87 6.16
-7 -5 -5 27.58 5.07
7 -5 5 35.37 4.99
-7 -5 -6 29.63 5.22
7 -5 6 26.43 4.68
-7 -5 -7 9.73 4.52
7 -5 7 21.14 4.79
-7 -5 -8 -0.34 4.44
7 -5 8 1.25 3.96
-7 -5 -9 2.07 4.45
7 -5 9 10.49 4.72
7 -5 9 0.95 3.33
8 0 -30 19.17 4.96
8 0 -29 -1.06 4.25
8 0 -28 176.39 10.74
8 0 -27 1.3 3.74
8 0 -26 161.89 9.86
8 0 -25 4.12 3.25
8 0 -24 672 26.45
8 0 -23 -0.54 3.11
-8 0 23 -0.17 2.48
-8 0 22 -0.17 2.35
-8 0 21 0.16 2.17
-8 0 20 37.48 3.42
-8 0 19 -0.45 2.05
-8 0 18 113.88 5.95
-8 0 17 0.28 1.91
-8 0 16 1666.92 56.95
-8 0 15 0.13 1.97
-8 0 14 2.72 1.89
-8 0 13 2.13 1.84
-8 0 12 807.49 28.52
8 0 -11 3.59 2.68
-8 0 11 0.25 1.71
8 0 -10 7.92 2.8
-8 0 10 6.5 1.99
8 0 -9 4.64 2.82
-8 0 9 0.74 1.7
8 0 -8 1932.76 66.05
-8 0 8 1924.68 65.43
8 0 -7 1.85 3.02
-8 0 7 -0.52 1.84
-8 0 7 1.47 2.21
8 0 -6 10.45 3.15
-8 0 6 8.97 2.23
-8 0 6 6.43 2.16
-8 0 5 -0.15 2.12
8 0 -5 3.41 3.03
8 0 -4 291.68 12.22
-8 0 4 267.64 11.49
-8 0 3 -0.63 2.24
8 0 -3 2.35 3.12
-8 0 2 205.26 9.29
-8 0 1 1.17 2.39
-8 0 0 1185.7 41.8
-8 0 -1 2.93 2.79
-8 0 -2 4.99 2.75
-8 0 -3 3.61 3.24
8 0 3 0.17 2.46
-8 0 -4 93.41 6.33
8 0 4 89.45 5.68
8 0 5 -1.19 0.58
8 0 5 -0.18 2.59
-8 0 -5 -0.88 3.24
8 0 6 631.9 21.1
-8 0 -6 642.57 24.46
8 0 6 659.34 23.85
-8 0 -7 -2.04 3.48
-8 0 -8 1233.47 44.23
-8 0 -9 4.83 3.2
-8 0 -10 81.6 5.95
-8 0 -11 1.9 2.93
-8 0 -12 37.44 4.56
-8 0 -13 0.25 2.93
-8 0 -14 70.81 5.82
-8 0 -15 -0.26 3.31
-8 0 -16 170.91 9.58
-8 0 -17 5.41 3.6
8 0 17 -0.3 3.13
-8 0 -18 75.29 6.68
8 0 18 79.46 6.39
-8 0 -19 2.14 3.92
8 0 19 0.31 3.5
-8 0 -20 0.31 4.04
8 0 20 5.34 3.52
-8 0 -21 3.54 4.18
8 0 21 1.94 3.37
-8 0 -22 119.19 8.63
8 0 22 120.9 8.27
8 0 23 -3.23 3.75
-8 0 -23 0.67 4.45
8 0 24 146.66 8.69
8 0 24 165.34 9.72
-8 0 -24 154.78 10.04
8 0 25 -3.52 3.79
-8 0 -25 -6.28 4.73
8 0 25 5.32 3.89
8 -1 -30 78.16 7.36
8 1 -30 60.53 6.79
8 -1 -29 20.78 4.82
8 1 -29 17.11 4.8
8 1 -28 95.32 7.57
8 -1 -28 94.61 7.57
8 -1 -27 2.52 3.73
8 1 -27 -1.27 3.46
8 -1 -26 41.03 5.1
8 1 -26 37.78 4.89
8 -1 -25 399.43 17.37
8 1 -25 393.2 17.29
8 1 -24 199.9 10.57
8 -1 -24 208.45 10.72
8 1 -23 110.25 7.11
8 -1 -23 106.78 7.09
-8 -1 23 105.44 6.12
-8 -1 22 114.09 6.35
-8 1 22 118.64 6.39
-8 -1 21 5.52 2.42
-8 1 21 4.04 2.47
-8 -1 20 576.69 21.27
-8 1 20 570.87 21.29
-8 -1 19 20.44 2.89
-8 1 19 22.64 2.94
-8 -1 18 52.64 3.89
-8 1 18 53.1 3.92
-8 1 17 13.77 2.47
-8 -1 17 11.52 2.36
-8 -1 16 102.4 5.51
-8 1 16 107.69 5.63
-8 -1 15 172.63 7.78
-8 1 15 173.2 7.78
-8 -1 14 88.65 4.85
-8 1 14 88.94 4.95
-8 1 13 1.41 1.83
-8 -1 13 -0.74 1.84
8 1 -13 1.99 3.05
8 1 -12 604.04 23.25
-8 -1 12 625.31 22.52
-8 1 12 639.56 22.63
8 1 -12 626.89 21.79
8 1 -11 26.02 1.99
-8 -1 11 25.56 2.59
-8 1 11 25.23 2.66
8 1 -11 27.26 3.86
8 1 -10 15.53 3.62
8 1 -10 11.61 1.44
-8 -1 10 8.91 2.48
-8 -1 10 8.8 2.04
-8 1 10 10.52 2.09
-8 -1 9 209.08 9.45
8 1 -9 197.83 9.95
8 1 -9 232.03 8.22
-8 -1 9 205.07 8.92
-8 1 9 217.18 9.03
8 1 -8 95.85 6.41
-8 -1 8 104.41 5.74
8 1 -8 103.39 4.31
-8 -1 8 97.22 5.17
-8 1 8 100.45 5.25
8 1 -7 100.01 6.66
-8 -1 7 102.27 5.95
8 1 -7 112.54 4.51
-8 -1 7 106.64 5.53
-8 1 7 111.8 5.57
8 1 -6 194.13 9.37
-8 -1 6 169.5 8.51
8 -1 -6 174.3 8.63
-8 1 6 198.76 8.37
-8 -1 6 187.63 8.31
8 1 -6 191.24 7.02
8 -1 -5 118.82 6.65
-8 -1 5 120.66 6.58
8 1 -5 113.51 6.93
8 1 -5 121.76 4.76
8 -1 -4 989.89 35.62
-8 1 4 1026.26 35.33
8 1 -4 901.12 35.6
8 1 -4 1026.13 33.69
-8 1 3 42.06 3.61
8 -1 -3 43.78 4.34
8 1 -3 53.33 4.3
8 1 -3 42.58 2.13
8 -1 -2 48.14 4.61
-8 1 2 56.74 4.11
8 1 -2 59.49 2.6
8 1 -2 60.18 4.61
-8 1 1 14.6 2.75
8 1 -1 14.36 3.1
8 -1 -1 18.64 3.67
8 1 -1 15.47 1.14
8 1 0 2.57 2.59
8 -1 0 1.75 3
-8 1 0 2.21 2.32
-8 -1 -1 295.51 13.21
-8 1 -1 290.46 12.29
8 1 1 302.02 12.73
8 -1 1 304.85 12.62
8 -1 2 28.54 3.42
-8 1 -2 26.42 3.26
-8 -1 -2 18.89 3.91
8 1 2 24.21 3.37
8 -1 3 31.39 3.53
-8 1 -3 34.42 3.71
8 1 3 29.21 3.7
-8 -1 -3 29.6 4.29
-8 -1 -4 1018.24 37.59
8 -1 4 1035.69 36.73
-8 1 -4 1049.94 36.87
8 -1 5 170.05 8.19
-8 -1 -5 169.05 8.83
-8 1 -5 161.69 8.32
-8 -1 -6 95.37 6.25
8 -1 6 84.38 5.58
-8 1 -6 93.05 5.97
-8 1 -7 65.25 5.09
8 -1 7 64.21 3.17
-8 -1 -7 70.18 5.36
8 -1 7 73.84 5.08
-8 1 -8 4.33 3.32
-8 -1 -8 5.4 2.97
8 -1 8 -0.06 1
-8 1 -9 401.23 16.22
-8 -1 -9 428.89 16.73
8 -1 9 377.46 13.72
-8 1 -10 148.37 8.4
8 -1 10 147.65 5.78
-8 -1 -10 138.32 8.23
-8 -1 -11 6.86 3.29
-8 1 -11 5.85 3.87
8 -1 11 1.68 1.03
-8 -1 -12 428.34 18.03
8 -1 12 427.79 14.79
-8 1 -12 390.27 17.38
-8 -1 -13 48.81 5.16
8 -1 13 45.58 2.43
-8 1 -13 46.15 5.29
8 -1 14 98.45 4.04
-8 1 -14 73.15 6.51
-8 -1 -14 90.92 6.94
-8 1 -15 5.87 4.07
-8 -1 -15 8.35 3.68
8 -1 16 -3.83 3.47
8 1 16 0.29 3.1
-8 1 -16 -0.25 3.78
-8 -1 -16 -3.08 3.77
-8 1 -17 134.85 8.68
-8 -1 -17 158.86 9.5
8 1 17 164.09 9.37
8 -1 17 155.91 9.22
-8 -1 -18 205.21 11.35
-8 1 -18 193.83 10.37
8 1 18 203.09 10.82
8 -1 18 202.98 10.89
8 1 19 18.17 4.19
8 -1 19 23.72 4.28
-8 -1 -19 19.72 5.13
-8 1 -19 20.62 4.49
-8 1 -20 305.82 15.08
-8 -1 -20 351.62 16.48
8 1 20 356.41 15.95
8 -1 20 366.4 16.16
-8 1 -21 59.47 5.99
-8 -1 -21 59.41 6.73
8 1 21 60.79 5.98
8 -1 21 56.64 5.99
-8 1 -22 67.6 6.26
-8 -1 -22 57.53 6.88
8 1 22 57.53 5.9
8 -1 22 61.32 6.14
8 -1 23 28.76 4.81
-8 -1 -23 14.89 4.98
-8 1 -23 29.35 5.11
8 1 23 27.3 4.74
8 -1 23 15.4 4.21
8 -1 24 1.71 3.83
-8 -1 -24 -1.14 4.85
-8 1 -24 5.22 4.22
8 1 24 -1.29 3.46
8 -1 24 3.57 3.73
8 -2 -28 15.52 4.19
8 2 -28 15.56 4.2
8 -2 -27 30.63 4.7
8 2 -27 32.1 4.82
8 -2 -26 9.24 3.59
8 2 -26 10.87 3.74
8 -2 -25 13.14 3.73
8 2 -25 15.85 3.57
8 -2 -24 23.45 3.99
8 2 -24 25.75 3.99
8 -2 -23 6.53 3.13
8 2 -23 5.92 2.89
8 -2 -22 87.29 6.02
8 2 -22 79.54 5.75
8 -2 -21 395.88 14.79
-8 -2 21 386.55 15.56
-8 2 21 411.5 15.74
8 2 -21 399.38 16.46
-8 2 20 91.57 5.47
-8 -2 20 91.66 5.42
8 -2 -20 92.92 4.72
-8 -2 19 186.94 8.52
-8 2 19 196.69 8.68
-8 -2 18 60.37 4.26
-8 2 18 59.23 4.19
-8 -2 17 0.28 2.15
-8 2 17 1.61 2.26
-8 -2 16 62.84 4.09
-8 2 16 63.7 4.2
-8 2 15 141.58 6.53
-8 -2 15 128.16 6.34
8 2 -15 120.13 7.41
-8 -2 14 33.1 3.14
-8 2 14 26.94 3.01
8 2 -14 38.44 4.77
-8 -2 13 853.21 30.43
-8 2 13 898.23 30.59
8 2 -13 836.17 31.54
-8 -2 12 237.36 9.68
-8 2 12 235.75 9.74
8 2 -12 224.07 11
-8 -2 12 237.17 10.15
-8 -2 11 170.39 8.22
-8 -2 11 175.22 7.63
-8 2 11 176.82 7.72
8 2 -11 167.14 8.98
-8 -2 10 22.92 2.57
8 2 -10 28.89 4.01
8 2 -10 21.85 2.17
-8 -2 10 17.56 3.07
-8 2 10 19.39 2.54
-8 2 9 -0.48 1.86
-8 -2 9 0.94 1.8
8 2 -9 0.56 1.4
-8 -2 9 0.66 2.48
-8 -2 8 307.7 13.27
-8 -2 8 307.61 12.42
-8 2 8 316.62 12.48
8 2 -8 344.71 13.89
8 2 -8 336.5 12.06
-8 -2 7 193.03 9.53
-8 -2 7 207.39 8.71
-8 2 7 200.18 8.65
8 2 -7 222.43 10.05
8 2 -7 208.86 8.14
-8 -2 6 162.23 7.31
-8 2 6 158.43 7.23
8 2 -6 160.54 8.35
-8 -2 6 158.21 8.25
8 -2 -6 161.08 7.91
-8 -2 5 507.99 18.35
-8 2 5 466.09 18.11
8 2 -5 534.27 19.63
8 -2 -5 470.71 18.62
-8 -2 5 508.94 19.49
8 2 -4 71.41 5.44
8 -2 -4 76.94 5.12
-8 -2 4 67.68 5.52
8 2 -3 515.95 19.32
8 -2 -3 480.63 18.58
-8 -2 3 474.81 19.24
8 2 -2 44.48 4.37
-8 -2 2 49.46 5.05
8 -2 -2 47.69 4.34
-8 -2 1 3.23 3.49
8 -2 -1 5.52 3.14
-8 -2 0 93.85 6.65
8 -2 0 82.79 5.74
-8 -2 -1 656.63 25.02
8 -2 1 637.07 23.99
-8 -2 -2 106.12 7.1
8 -2 2 101.34 6.5
-8 2 -2 114.16 5.88
8 -2 3 151.17 7.77
-8 -2 -3 152.24 8.28
-8 2 -3 149.77 7.36
8 -2 4 10.13 2.86
-8 2 -4 5.16 2.55
8 -2 5 475.77 17.65
-8 2 -5 438.45 17.37
8 -2 6 68.55 4.81
-8 2 -6 61.88 4.69
8 -2 7 -2.03 2.64
-8 2 -7 0.93 2.69
-8 2 -8 116.92 6.49
8 -2 8 126.45 6.69
-8 2 -9 103.68 6.02
8 -2 9 108.72 5.18
-8 2 -10 6.2 2.84
8 -2 10 1.16 1.61
-8 -2 -10 -1.69 3.33
-8 2 -11 55.62 4.52
8 -2 11 54.51 3.42
-8 -2 -11 64.16 5.77
-8 2 -12 49.23 4.47
8 -2 12 51.12 3.2
-8 -2 -12 49.01 5.63
-8 2 -13 145.7 7.78
8 -2 13 154.91 6.55
-8 -2 -13 154.54 9.35
-8 2 -14 100.39 6.37
-8 -2 -14 104.99 7.79
8 -2 14 103.61 4.88
-8 2 -15 46.15 4.69
-8 -2 -15 53.67 5.86
8 -2 15 47.38 2.97
8 2 15 49.2 5.08
8 -2 15 48.25 5.06
8 -2 16 45.66 4.98
8 2 16 33.44 4.45
-8 -2 -16 35.57 5.51
-8 2 -16 34.01 4.35
8 -2 16 35.31 2.59
-8 2 -17 85.28 6.22
8 2 17 92.98 6.83
8 -2 17 84.26 6.61
8 -2 17 89.33 4.34
-8 -2 -17 94.62 7.62
8 2 18 2 3.61
8 -2 18 5.24 3.42
-8 2 -18 1.4 3.78
-8 -2 -18 -2.14 4.43
8 -2 18 6.7 1.65
-8 -2 -19 -5.09 4.61
8 2 19 -1.17 3.77
8 -2 19 0.9 3.37
-8 -2 -20 16 4.95
8 2 20 12.28 4.08
8 -2 20 16.28 4.1
8 -2 21 170.44 9.73
-8 -2 -21 144.22 10.2
8 2 21 150.87 9.27
8 -2 21 149.1 9.11
-8 -2 -22 22.95 5.64
8 2 22 17.97 4.25
8 -2 22 17.73 4.46
8 -2 22 14.83 4.48
8 -2 23 13.64 4.39
-8 -2 -23 5.96 4.9
8 -2 23 5.58 3.91
8 2 23 8.81 4.01
8 -3 -25 277.27 12.83
8 3 -25 263.88 12.68
8 -3 -24 1.48 3.19
8 3 -24 5.9 3.47
8 -3 -23 3.07 3.06
8 3 -23 0.94 2.9
8 -3 -22 12.73 3.41
8 3 -22 11.71 3.34
8 -3 -21 9.41 3.08
8 3 -21 7.27 3.04
8 -3 -20 7.24 2.81
8 3 -20 13.37 3.15
8 -3 -19 81.74 5.43
8 3 -19 77.74 5.26
-8 -3 19 76.44 4.84
-8 -3 18 271.04 11.23
-8 3 18 277.98 11.33
-8 -3 17 130.76 6.51
-8 3 17 139.73 6.69
-8 -3 16 2.93 2.17
-8 3 16 3.58 2.12
-8 -3 15 5.09 2.09
-8 3 15 4.23 2.16
-8 -3 14 76.33 4.42
-8 3 14 72.14 4.44
8 3 -13 13.45 3.68
-8 -3 13 14.14 2.32
-8 3 13 17.09 2.49
8 3 -12 4.52 3.21
-8 -3 12 5.53 2.11
-8 3 12 2.37 2.04
-8 -3 12 8.32 2.93
-8 -3 11 66.84 4.95
-8 -3 11 72.26 4.24
-8 3 11 75.2 4.35
8 3 -11 75.71 5.53
-8 -3 10 36.67 4.08
-8 -3 10 48.88 3.4
-8 3 10 47.8 3.35
8 3 -10 44.83 4.49
-8 -3 9 610.3 23.9
-8 -3 9 650.03 22.92
-8 3 9 630.43 22.88
8 3 -9 686.94 24.35
-8 -3 8 3.66 3.35
8 3 -8 2.7 3.08
-8 -3 8 4.22 1.95
-8 3 8 3.87 1.96
-8 -3 7 441.14 18.06
-8 -3 7 465.54 16.04
-8 -3 7 453.96 16.69
-8 3 7 438.72 16.62
-8 -3 6 112.93 6.96
-8 -3 6 109.47 4.56
-8 -3 6 103.42 5.27
-8 3 6 94.93 5.18
-8 -3 5 70.83 5.97
-8 -3 5 91.46 3.78
-8 -3 5 76.71 4.51
-8 3 5 69.42 4.31
-8 -3 4 11.06 2.83
-8 3 4 8.13 2.39
-8 -3 4 7.34 1.34
-8 -3 4 15.74 4.32
-8 -3 3 219.73 9.16
-8 3 3 198.01 8.85
-8 -3 3 227.7 8.16
-8 -3 3 203.58 10.72
-8 -3 2 421.23 14.38
8 -3 -2 375.71 15.72
-8 -3 2 399.14 17.26
-8 -3 1 206.17 7.51
-8 -3 1 184.55 10.4
8 -3 -1 186.88 9.05
8 -3 0 46.8 4.22
-8 -3 0 40.06 5.38
-8 -3 0 45.8 2.44
8 -3 1 140.59 7.54
-8 -3 -1 157.1 5.88
-8 -3 -1 136.9 8.65
-8 -3 -2 9.83 1.25
8 -3 2 12.64 3.49
-8 -3 -3 3.77 1.05
8 -3 3 0.32 3.1
-8 -3 -4 1.58 1.05
-8 -3 -4 4.36 3.03
8 3 5 182.67 8.73
-8 -3 -5 180.88 9.63
8 -3 5 191.82 8.3
-8 -3 -5 170.05 6.55
-8 -3 -6 57.06 5.34
8 -3 6 47.86 4.07
-8 -3 -6 49.3 2.43
-8 -3 -7 4.52 1
8 -3 7 1.66 2.53
-8 -3 -7 3.42 3.5
-8 -3 -8 48.67 5.31
8 -3 8 49.51 3.94
-8 -3 -8 43.56 2.23
-8 -3 -9 452.31 19.4
-8 -3 -10 -1.86 3.69
8 -3 10 3.09 2.26
8 -3 11 34.24 3.27
-8 -3 -11 35.5 5.23
8 -3 12 -0.3 2.03
-8 -3 -12 -1 3.83
8 -3 12 -0.74 3.1
8 3 12 -0.24 2.87
8 3 13 3.59 3.09
8 -3 13 6.02 3.09
8 -3 13 8.28 2.34
8 -3 14 69.29 4.54
8 -3 14 60.32 5.56
8 3 15 -3.75 3.53
8 -3 15 -0.52 3.5
8 -3 15 0.97 2.07
8 -3 16 53.83 3.86
8 3 16 58.21 5.4
8 -3 16 57.89 5.59
8 3 17 221.42 11.44
8 -3 17 243.74 11.89
8 -3 17 229.26 12.43
8 -3 17 242.34 9.86
8 -3 18 32.88 3.05
8 3 18 35.33 4.61
8 -3 18 30.11 4.49
-8 -3 -18 36.82 6.09
8 -3 18 34.86 5.33
8 -3 19 4.28 2.12
-8 -3 -19 -2.38 5.08
8 3 19 1.85 3.34
8 -3 19 -0.83 3.58
8 -3 19 2.32 4.01
8 -3 20 9.3 2.15
8 3 20 8.08 3.74
8 -3 20 8.99 3.76
8 -3 20 7.99 4.3
8 -4 -20 7.06 3.26
8 -4 -19 2.39 2.95
8 -4 -18 7.41 2.91
8 -4 -17 12.46 3.04
8 -4 -16 48.78 4.37
8 -4 -15 110.48 6.18
8 4 -14 133.36 6.65
-8 -4 14 138.01 6.44
-8 -4 13 20.16 2.59
-8 4 13 15.54 2.44
-8 -4 12 1.05 1.94
-8 4 12 2.7 1.87
-8 -4 12 0.71 2.68
-8 -4 12 3.52 1.6
-8 -4 11 1.46 2
-8 4 11 1.34 1.77
-8 -4 11 -0.77 2.95
-8 -4 11 2.01 1.64
-8 -4 10 3.91 2.09
-8 4 10 2.2 1.81
-8 -4 10 5.75 3.3
-8 -4 10 3.94 1.55
-8 -4 9 2.54 1.99
-8 4 9 4.26 1.92
-8 -4 9 2.04 3.44
-8 -4 9 3.5 1.53
-8 -4 8 254.98 11.8
-8 -4 8 252.96 10.18
-8 4 8 246.45 10.03
-8 -4 8 288.95 10.23
-8 4 7 20.85 2.5
-8 -4 7 20.52 2.57
-8 -4 7 29.6 4.6
-8 -4 7 23.03 2.23
-8 -4 6 47.43 5.32
-8 -4 6 43.68 2.84
-8 4 6 34.34 2.9
-8 -4 6 38.4 3.02
-8 -4 5 82.14 6.33
-8 -4 5 84.97 4.05
-8 4 5 71.11 4.02
-8 -4 5 74.01 4.16
-8 -4 4 -2.34 2.09
-8 4 4 -2.72 2.11
-8 -4 4 0.45 1.41
-8 -4 3 87.12 6.87
-8 -4 3 88.99 4.18
-8 -4 3 80.73 4.37
-8 4 3 68.82 4.17
-8 -4 2 55.25 6.18
-8 -4 2 53.79 3.63
-8 4 2 49.82 3.49
-8 -4 2 66.08 3.4
-8 -4 1 13.07 2.42
-8 4 1 9.98 2.24
-8 -4 1 16.38 4.83
-8 -4 1 19.79 2.01
-8 -4 0 78.91 6.9
8 -4 0 79.58 5.35
-8 -4 0 92.71 4.17
-8 -4 0 76.53 4.54
-8 4 0 72.92 4.42
-8 -4 -1 107.71 7.87
8 -4 1 104.53 6.02
8 -4 1 117.68 6.41
-8 -4 -1 123.89 5.17
-8 4 -1 101.72 5.47
8 -4 2 95.98 5.85
8 -4 2 81.15 5.27
-8 -4 -2 104.08 7.12
-8 -4 -2 85.73 4.25
-8 -4 -3 -2.36 1.51
-8 -4 -3 5.62 3.71
-8 -4 -4 40.36 2.71
-8 -4 -4 45.09 5.28
-8 -4 -5 26.69 4.59
-8 -4 -6 6 3.78
-8 -4 -7 122.11 8.38
-8 -4 -8 38.14 5.41
8 -4 8 35.35 4.34
-8 -4 -9 19.05 4.87
8 -4 9 12.56 3.32
8 -4 10 157.82 8.6
-8 -4 -10 160.34 10.17
8 -4 10 169.12 8.43
-8 -4 -11 3.84 4.18
8 -4 11 11.85 4.68
8 -4 11 9.43 2.82
8 -4 11 9.68 3.37
-8 -4 -12 60.1 6.54
8 -4 12 56.05 5.31
8 -4 12 51.37 4.68
8 -4 12 64.47 6.82
-8 -4 -13 61.67 7.05
8 -4 13 72.31 7.13
8 -4 13 75.52 5.23
8 -4 13 66.1 5.66
8 -4 14 0.19 2.85
-8 -4 -14 -2.31 4.77
8 -4 14 -6.1 4.69
8 -4 14 -2.12 3.54
-8 -4 -15 53.31 6.88
8 -4 15 57.86 5.53
8 -4 15 75.24 7.26
8 -4 15 62.22 4.92
-8 -5 11 117.96 5.75
-8 -5 10 52.12 3.54
-8 -5 9 25.01 2.71
-8 -5 8 30.73 2.79
-8 -5 7 33.79 4.77
-8 -5 7 35.34 2.97
8 -5 -6 0.8 2.54
-8 -5 6 5.23 4.33
-8 -5 6 0.58 1.85
-8 -5 5 113.47 7.55
-8 -5 5 106.86 5.35
8 -5 -5 100.79 6.08
-8 -5 4 68.39 6.52
-8 -5 4 72.2 4.18
8 -5 -4 65.93 5.2
-8 -5 3 71.92 7.01
-8 -5 3 88.21 4.62
8 -5 -3 80.55 5.72
-8 -5 2 65.86 6.83
8 -5 -2 55.39 5.07
-8 -5 2 59.46 3.8
-8 -5 1 9.44 2.05
8 -5 -1 6.26 3.46
-8 -5 1 5.84 5.17
8 -5 0 8.07 3.69
-8 -5 0 5.43 5.35
8 -5 1 0.25 3.52
-8 -5 -1 0.31 4.94
8 -5 2 0.8 3.66
-8 -5 -2 -4.65 5.44
-8 -5 -3 127.46 9.28
8 -5 3 153.79 8.97
-8 -5 -4 84.02 7.46
8 -5 4 107.78 7.72
8 -5 5 61.18 6.3
-8 -5 -5 50.87 6.26
8 -5 6 19.49 4.81
-8 -5 -6 27.69 5.46
9 0 -29 8.25 4.48
9 0 -28 234.78 12.69
9 0 -27 1.97 3.77
9 0 -26 23.26 4.54
9 0 -25 -3.58 3.81
-9 0 25 -1.69 2.8
-9 0 24 109.25 6.36
-9 0 23 -0.53 2.57
-9 0 22 89.67 5.48
-9 0 21 1.33 2.38
-9 0 20 309.45 12.77
-9 0 19 1.56 2.14
-9 0 18 43.9 3.64
-9 0 17 -0.9 2.05
-9 0 16 555.15 20.56
-9 0 15 0.57 2.1
-9 0 14 1.69 1.9
-9 0 13 0.28 1.77
-9 0 12 1040.16 36.39
-9 0 11 1.53 1.97
-9 0 10 -0.14 1.86
-9 0 9 0.72 2.05
-9 0 8 340.1 13.56
-9 0 7 -1.23 2.19
-9 0 7 0.34 2.3
9 0 -6 15.97 3.8
-9 0 6 16.54 2.81
9 0 -5 1.62 3.58
-9 0 5 1.2 2.34
9 0 -4 410.38 16.99
-9 0 4 416.69 16.36
9 0 -3 -0.61 3.55
-9 0 3 -0.88 2.41
-9 0 2 23.04 3.33
-9 0 1 0.56 2.53
-9 0 0 447.53 17.82
-9 0 -1 1.02 2.99
9 0 2 2.49 2.78
-9 0 -2 8.22 3.24
-9 0 -3 0.21 3.09
-9 0 -4 614.78 23.84
9 0 5 -0.34 0.51
-9 0 -5 1.43 3.6
9 0 6 87.96 3.1
-9 0 -6 109.86 7.14
-9 0 -7 -0.25 3.85
-9 0 -8 505.06 20.65
-9 0 -9 -2.88 4.02
-9 0 -10 -0.26 3.92
-9 0 -11 -2.66 4.22
-9 0 -12 96.17 7.05
-9 0 -13 12.21 4.08
-9 0 -14 119.75 7.95
-9 0 -15 9.85 3.86
-9 0 -16 139.08 8.77
-9 0 -17 5.76 3.88
-9 0 -18 160.29 9.75
9 0 18 171.48 10.21
-9 0 -19 10.81 4.51
9 0 19 1.67 3.73
-9 0 -20 52.23 6.07
9 0 20 49.31 5.83
-9 0 -21 5.36 4.41
9 0 21 -2.46 3.84
-9 0 -22 132.83 9.2
9 0 22 141.27 9.46
-9 0 -23 6.64 4.6
9 0 23 0.36 3.99
9 -1 -29 42.07 6
9 1 -29 39.06 5.82
9 -1 -28 14.59 4.41
9 1 -28 13.95 4.45
9 -1 -27 12.04 3.98
9 1 -27 8.65 4.1
9 -1 -26 3.02 3.39
9 1 -26 2.42 3.41
9 -1 -25 53.91 5.46
9 1 -25 49.88 5.23
9 -1 -24 352.45 15.67
9 1 -24 369.78 15.81
-9 -1 24 337.06 14.27
-9 1 24 344.47 14.38
-9 -1 23 43.16 4.06
-9 1 23 50.26 4.34
-9 -1 22 52.11 4.28
-9 1 22 57.26 4.43
-9 -1 21 57.88 4.35
-9 1 21 58.78 4.46
-9 -1 20 4.91 2.47
-9 1 20 5 2.4
-9 -1 19 39.59 3.5
-9 1 19 32.65 3.5
-9 -1 18 6.6 2.31
-9 1 18 6.95 2.36
-9 -1 17 1.93 2.3
-9 1 17 -1.22 2.27
-9 -1 16 0.72 2.07
-9 1 16 1.49 2.09
-9 1 15 -1.31 2.16
-9 -1 15 0.85 2.01
-9 -1 14 2.22 2.14
-9 1 14 -1.43 2.18
-9 -1 13 60 4.01
-9 1 13 57.9 4.06
-9 -1 12 368.33 14.38
-9 1 12 350.96 14.34
9 1 -12 387.67 13.66
-9 -1 11 6.92 2.6
9 1 -11 10.52 1.54
-9 -1 11 6.83 2.09
-9 1 11 6.43 2.19
9 1 -10 21.99 1.84
-9 1 10 23.87 2.85
-9 -1 10 21.07 2.78
-9 -1 10 22.1 3.19
-9 -1 9 60.99 4.67
-9 -1 9 64.13 4.27
-9 1 9 64.91 4.31
9 1 -9 73.57 3.36
-9 -1 8 245.12 11.57
-9 -1 8 266.84 11.29
-9 1 8 264.71 11.29
9 1 -8 294.59 10.07
-9 -1 7 164.75 8.88
-9 -1 7 198.75 8.76
-9 1 7 193 8.7
9 1 -7 200.6 7.28
-9 -1 6 6.59 2.43
-9 1 6 4.06 2.28
9 1 -6 7.08 1.07
-9 -1 6 5.63 2.71
-9 1 5 61.42 4.55
-9 -1 5 71.55 5.25
9 1 -5 68.42 3.04
-9 1 4 548.43 22
9 -1 -4 560.91 22.37
9 1 -4 611.73 20.21
-9 1 3 53.49 4.43
9 -1 -3 53.37 5.12
9 1 -3 58.48 2.61
9 1 -2 0.99 0.81
-9 1 2 -0.17 2.51
9 -1 -2 0.79 3.51
9 1 -1 1.24 0.75
-9 1 1 -0.18 2.56
9 -1 -1 1.2 3.65
9 -1 0 81.12 6.01
-9 1 0 81.79 5.34
-9 -1 -1 163.16 8.85
-9 1 -1 152.72 7.82
9 -1 1 144.07 8.11
-9 -1 -2 61.99 5.91
-9 1 -2 65.41 5.03
9 -1 2 76.35 5.23
-9 -1 -3 3.02 3.64
9 -1 3 5.66 2.9
-9 1 -3 7.52 2.97
9 -1 4 601.67 22.36
-9 1 -4 574.85 22.3
-9 -1 -4 580.96 23.28
9 -1 5 278.77 12.2
-9 -1 -5 266.86 13.06
-9 1 -5 292.68 12.44
-9 -1 -6 5.67 3.84
9 -1 6 7.82 3.12
9 -1 7 3.44 1.17
-9 -1 -7 7.83 3.41
-9 1 -8 61.33 5.3
9 -1 8 44.34 2.48
-9 -1 -8 46.14 4.94
-9 1 -9 160.32 9.05
9 -1 9 172.21 6.54
-9 -1 -9 168.34 9.34
-9 1 -10 295.35 13.53
-9 -1 -10 290.84 13.84
9 -1 10 301.69 10.74
-9 -1 -11 37.62 4.75
-9 1 -11 34.78 5.06
9 -1 11 31.46 1.97
-9 1 -12 475.11 21.98
-9 -1 -12 509.14 22.55
-9 1 -13 92.33 7.2
-9 -1 -13 100.15 7.48
9 -1 13 98.55 4.1
-9 1 -14 19.29 4.83
-9 -1 -14 26.62 4.72
-9 1 -15 16.23 4.85
-9 -1 -15 14.8 4.58
-9 1 -16 17.1 4.96
-9 -1 -16 20.35 4.76
-9 -1 -17 127.05 8.82
9 1 17 128 8.57
9 -1 17 121.36 8.4
-9 1 -17 105.52 8.13
-9 1 -18 155.65 9.9
-9 -1 -18 162.37 10.46
9 1 18 181.91 10.37
9 -1 18 175.56 10.26
-9 1 -19 11.08 4.99
-9 -1 -19 7.93 4.63
9 1 19 4.56 3.74
9 -1 19 6.92 4.25
-9 1 -20 113.04 8.73
-9 -1 -20 144.16 9.69
9 1 20 143.17 9.17
9 -1 20 127.13 8.87
-9 1 -21 29.2 5.98
-9 -1 -21 51.41 6.78
9 1 21 50.84 5.95
9 -1 21 48.46 6.01
-9 1 -22 24.38 5.65
-9 -1 -22 28.73 5.93
9 1 22 26.93 5.14
9 -1 22 26.18 5.31
-9 1 -23 2.16 5.18
-9 -1 -23 -3.52 4.76
9 1 23 2.07 3.82
9 -1 23 2.44 3.99
9 -2 -27 11.41 3.82
9 2 -27 3.31 3.45
9 -2 -26 25.29 4.38
9 2 -26 21.78 4.3
9 -2 -25 64.99 5.98
9 2 -25 73.5 6.01
9 -2 -24 -0.5 3.15
9 2 -24 -1.55 2.92
9 -2 -23 49.73 4.96
9 2 -23 62.87 5.22
-9 -2 23 59.88 4.6
-9 2 22 21.66 3.42
-9 -2 22 30.46 3.59
-9 -2 21 390.27 15.88
-9 2 21 420.19 16.13
-9 -2 20 97.71 5.7
-9 2 20 93.82 5.62
-9 -2 19 55.15 4.26
-9 2 19 58.32 4.36
-9 -2 18 23.21 3.04
-9 2 18 24.38 3.16
-9 -2 17 24.35 3
-9 2 17 27.91 3.2
-9 -2 16 72.11 4.66
-9 2 16 77.64 4.85
-9 -2 15 250.25 10.78
-9 2 15 272.19 11.05
-9 -2 14 335.94 13.21
-9 2 14 331.94 13.28
-9 -2 13 49.86 3.75
-9 2 13 51.93 3.86
-9 -2 12 127.77 6.34
-9 2 12 126.19 6.34
-9 -2 12 124.78 6.93
-9 -2 11 16.35 2.57
-9 2 11 13.62 2.51
-9 -2 11 15.44 3.29
-9 -2 10 7.83 3
9 2 -10 6.52 1.73
-9 -2 10 5.88 2.16
-9 2 10 3.64 2.07
-9 -2 9 49.63 3.72
-9 2 9 48.74 3.76
9 2 -9 63.05 3.47
-9 -2 9 47.92 4.62
-9 -2 8 213.39 9.48
-9 2 8 209.96 9.41
9 2 -8 247.7 9
-9 -2 8 211.59 10.41
-9 -2 7 528.28 20.07
-9 2 7 510.42 19.92
9 2 -7 582.48 19.35
-9 -2 7 526.2 21
-9 -2 6 122.8 7.31
-9 -2 6 132.22 6.44
-9 2 6 112.78 6.13
-9 -2 5 419.21 16.7
-9 -2 5 410.69 15.6
-9 2 5 375.31 15.34
-9 -2 4 12.81 3.79
-9 -2 3 74.42 6.01
-9 -2 2 53.78 5.38
9 -2 -1 31.25 4.3
-9 -2 1 36.71 4.96
-9 -2 0 213.32 10.63
9 -2 0 179.81 9.52
9 -2 1 214.59 10.73
-9 -2 -1 221.15 11.56
-9 2 -1 256.53 10.5
9 -2 2 97.92 6.67
-9 -2 -2 101.76 7.43
-9 2 -2 113.83 6.27
-9 -2 -3 32.68 4.94
9 -2 3 37.04 4
-9 2 -3 36.54 3.92
9 -2 4 8.01 2.99
-9 2 -4 0.7 2.77
9 -2 5 89.73 5.66
-9 2 -5 86.32 5.68
9 -2 6 108.55 6.24
-9 2 -6 94.23 6.01
9 -2 7 47.98 4.42
-9 2 -7 43.05 4.23
9 -2 8 189.13 8.88
-9 2 -8 162.33 8.42
-9 -2 -9 436.3 19.25
9 -2 9 478.45 16.71
-9 2 -9 427.99 17.63
-9 -2 -10 55.09 5.59
-9 2 -10 39.85 4.24
9 -2 10 43.57 3.06
-9 2 -11 36.78 4.11
9 -2 11 37.49 2.79
-9 -2 -11 35.09 5.19
-9 2 -12 64.37 5.25
9 -2 12 66.85 3.75
-9 -2 -12 70.28 6.56
-9 2 -13 180.5 9.29
9 -2 13 192.88 7.81
-9 -2 -13 208.05 11.3
9 -2 14 4.5 1.56
-9 -2 -14 2.07 4.01
-9 2 -14 5.62 3.6
9 -2 15 14.44 1.89
-9 2 -15 17.06 4.03
-9 -2 -15 8.42 4.42
9 -2 16 31.6 2.47
9 2 16 29.01 4.82
9 -2 16 27.34 4.73
-9 -2 -16 30.54 5.45
-9 2 -16 28.97 4.47
-9 2 -17 104.22 7.1
9 -2 17 114.02 5.02
-9 -2 -17 102.43 8.37
9 2 17 101.54 7.67
9 -2 17 112.01 8.03
9 -2 18 20.28 2.01
9 2 18 13.58 4.06
9 -2 18 11.96 3.89
-9 -2 -18 12.45 5.02
9 2 19 -2.54 4.02
9 -2 19 -3.23 3.84
-9 -2 -19 -1.54 4.46
9 2 20 -0.32 4.09
9 -2 20 -1.66 4.01
-9 -2 -20 1.18 4.84
9 2 21 50.53 5.92
9 -2 21 55.48 6.15
-9 -2 -21 50.3 6.8
9 -3 -24 3.02 3.03
9 3 -24 7.24 3.4
9 -3 -23 5.52 3.24
9 3 -23 0.96 3.16
9 -3 -22 8.63 3.19
9 3 -22 4.54 3.04
9 -3 -21 69.31 5.39
9 3 -21 60.74 5.07
-9 -3 20 19.5 3.2
-9 3 20 19.01 3.25
9 3 -20 20.14 3.49
-9 -3 19 60.4 4.41
-9 3 19 60.97 4.58
-9 -3 18 161.73 7.74
-9 3 18 173.57 7.98
-9 -3 17 96.15 5.44
-9 3 17 87.55 5.27
-9 -3 16 -0.57 2.33
-9 3 16 -1.17 2.41
-9 -3 15 -0.95 2.22
-9 3 15 1.54 2.3
-9 -3 14 38.71 3.41
-9 3 14 34.85 3.32
-9 -3 13 9.04 2.32
-9 3 13 6.33 2.36
-9 -3 13 7.72 2.98
-9 -3 12 6.77 2.32
-9 -3 12 4.86 3.04
-9 3 12 5.39 2.25
-9 -3 11 68 4.38
-9 3 11 80.11 4.62
-9 -3 11 72.8 5.52
-9 -3 10 96.45 5.15
-9 3 10 85.24 5.03
-9 -3 10 98.35 6.31
-9 -3 9 93.17 5.12
-9 3 9 96.97 5.13
-9 -3 9 88.09 6.27
-9 -3 8 7.85 2.29
-9 3 8 6.18 2.15
-9 -3 8 7.31 3.61
-9 -3 7 137.64 6.42
-9 3 7 119.38 6.17
-9 -3 7 137.97 7.81
-9 -3 6 134.32 6.56
-9 3 6 130.17 6.43
-9 -3 6 160.11 8.55
-9 -3 5 16.81 4.23
-9 -3 5 10.8 2.51
-9 3 5 10.99 2.34
-9 -3 4 7.5 3.92
-9 -3 4 2.04 2.63
-9 3 4 0.25 2.16
-9 -3 3 237.59 11.39
-9 -3 3 215.59 9.44
-9 3 3 207.86 9.21
-9 -3 2 218.18 11.33
-9 -3 1 119.19 4.71
-9 -3 1 117.97 8.15
-9 -3 0 3.31 0.94
-9 -3 0 3.33 4.37
-9 -3 -1 20.64 4.84
9 -3 1 24.05 4.23
-9 -3 -1 25.15 1.57
9 -3 2 80.33 5.75
-9 -3 -2 76.91 3.19
-9 -3 -2 58.53 6.31
-9 -3 -3 7.33 4.22
9 -3 3 -0.18 3.6
-9 -3 -3 4.26 0.91
9 -3 4 9.03 3.07
-9 -3 -4 14.81 4.14
-9 -3 -4 6.69 0.91
9 -3 5 114.48 6.44
-9 -3 -5 113.54 7.78
9 -3 6 154.87 7.7
-9 -3 -6 143.86 8.95
-9 -3 -7 45.86 5.27
9 -3 7 40.38 4.07
9 -3 8 8.09 3.01
-9 -3 -8 13.04 4.13
-9 -3 -9 326.26 15.44
-9 -3 -10 28.59 4.94
9 -3 10 22.8 3
-9 -3 -11 7.98 4.39
9 -3 11 5.48 2.38
-9 -3 -12 4.27 4.35
9 -3 12 5.49 2.32
9 -3 13 130.86 6.49
9 3 13 129.13 8.16
9 -3 13 122.68 8.14
9 -3 14 61.54 4.14
9 3 14 53.69 5.52
9 -3 14 55.67 5.64
9 3 15 -0.53 3.41
9 -3 15 -3.62 3.41
9 -3 15 -3.49 2.27
9 -3 16 77.46 4.65
9 -3 16 76.61 6.51
9 3 16 81 6.54
9 -3 17 49.51 3.62
9 -3 17 39.14 5.3
9 3 17 51.45 5.62
-9 -3 -18 -2.86 4.94
9 -3 18 -0.36 1.91
9 3 18 -2.59 3.96
9 -3 18 -5.43 3.92
9 -4 -19 14.74 3.75
9 -4 -18 -0.41 2.89
9 -4 -17 3.54 2.98
-9 -4 16 40.27 3.65
-9 -4 15 63.59 4.31
-9 -4 14 153.62 7.12
-9 -4 13 68.81 4.44
-9 -4 13 66.3 5.06
-9 -4 12 28.75 3.16
-9 -4 12 25.75 3.98
-9 -4 11 61.91 3.98
-9 -4 11 54.08 5.05
-9 -4 10 2.76 3.55
-9 -4 10 3.34 2.22
-9 4 10 3.02 2.1
-9 -4 9 2.72 3.74
-9 -4 9 1.71 2.06
-9 4 9 0.11 2
-9 -4 8 1.02 2.05
-9 4 8 4.17 2.03
-9 -4 8 2.39 1.41
-9 -4 8 4.43 4.02
-9 -4 7 12.07 4.26
-9 -4 7 7.11 1.55
-9 -4 7 5.93 2.25
-9 4 7 5.11 2.11
-9 -4 6 26.55 2.93
-9 4 6 23.95 2.84
-9 -4 6 33.25 5.11
-9 -4 6 30.59 2.27
-9 -4 5 124.26 8.12
-9 -4 5 111.01 5.78
-9 4 5 103.22 5.54
-9 -4 5 129.88 5.3
-9 -4 4 27.63 3.11
-9 -4 4 39.21 5.47
-9 4 4 28.33 2.97
-9 -4 4 39.97 2.55
-9 -4 3 4.73 2.36
-9 4 3 1.4 2.19
-9 -4 3 8.16 1.64
-9 -4 3 10.97 4.8
-9 -4 2 -1.66 2.54
-9 4 2 -2.77 2.4
-9 -4 2 -1.41 4.47
-9 -4 2 1.4 1.33
-9 -4 1 78.18 7.08
-9 -4 1 68.73 4.61
-9 4 1 71.29 4.5
-9 -4 1 81.7 3.81
-9 -4 0 26.66 2.11
-9 -4 0 26.12 5.55
-9 -4 0 18.58 3.2
-9 4 0 17.58 3.06
-9 -4 -1 67.23 6.87
-9 -4 -2 193.41 11.21
-9 -4 -3 55.83 6.57
-9 -4 -4 154.33 9.45
-9 -4 -5 7.9 4.23
-9 -4 -6 3.87 4.18
-9 -4 -7 106.25 7.98
-9 -4 -8 8.75 4.63
-9 -4 -9 60.05 6.65
9 -4 10 90.95 5.9
-9 -4 -10 96.08 8.1
9 -4 10 95.53 6.71
-9 -4 -11 14.07 5
9 -4 11 16.3 3.17
9 -4 11 14.14 3.76
9 -4 12 55.63 5.46
9 -4 12 46.28 4.61
-9 -4 -12 52.87 6.7
9 -4 13 49.52 4.48
9 -4 13 41.84 5.14
9 -4 13 48.88 6.55
-9 -4 -13 48.95 6.8
-9 -5 8 35.17 2.89
-9 -5 7 64.72 3.88
-9 -5 7 59.46 5.92
-9 -5 6 3.33 4.36
-9 -5 6 3.54 1.87
-9 -5 5 129.92 8.53
-9 -5 4 14.28 5.23
-9 -5 3 0.8 4.85
-9 -5 2 20.19 5.59
-9 -5 1 133.12 9.4
-9 -5 0 3.18 5.5
9 -5 1 13.17 4.04
-9 -5 -1 5.58 5.36
9 -5 2 0.29 3.83
-9 -5 -2 -2.34 5.57
10 0 -28 137.61 9.36
10 0 -27 4.26 4.12
10 0 -26 21.37 4.71
-10 0 26 12.2 3.42
-10 0 25 0.2 3
-10 0 24 28.68 3.76
-10 0 23 -0.91 2.57
-10 0 22 35.01 3.82
-10 0 21 -0.71 2.62
-10 0 20 762.55 27.81
-10 0 19 -0.33 2.28
-10 0 18 23.56 3.09
-10 0 17 0.64 2.21
-10 0 16 0.16 2.17
-10 0 15 1.72 2.28
-10 0 14 9.16 2.41
-10 0 13 -1.24 2.14
-10 0 12 1068.91 37.67
-10 0 11 4.22 2.3
-10 0 10 11.45 2.67
-10 0 9 -0.83 2.37
-10 0 8 -1.03 2.48
-10 0 8 1.3 2.62
-10 0 7 -1.61 2.53
-10 0 7 0.38 2.64
-10 0 6 9.46 2.93
-10 0 5 -0.38 2.52
-10 0 4 333.42 14.05
-10 0 3 1.78 2.74
-10 0 2 73.8 5.43
-10 0 1 3.71 2.84
-10 0 0 132.62 7.66
-10 0 -1 4.53 3.48
-10 0 -2 4.2 3.38
-10 0 -3 1.91 3.38
-10 0 -4 1306.61 46.77
-10 0 -5 6.05 3.94
10 0 5 -0.59 0.44
-10 0 -6 311.12 14.41
-10 0 -7 1.37 3.99
-10 0 -8 57.6 6.16
-10 0 -9 2.58 4.18
-10 0 -10 4.39 4.18
-10 0 -11 -2.68 4.53
-10 0 -12 15.49 4.82
-10 0 -13 -3.39 4.47
-10 0 -14 34.06 5.83
-10 0 -15 -2.88 4.73
-10 0 -16 157.53 9.93
-10 0 -17 4.65 4.31
10 0 18 -0.37 4.24
-10 0 -18 4.42 4.35
10 0 19 -2.99 4.3
-10 0 -19 4.5 4.98
10 0 20 12.2 4.49
-10 0 -20 22.63 5.48
10 0 21 2.27 4.04
-10 0 -21 1.8 4.68
10 0 22 177.93 11.06
-10 0 -22 164.2 10.85
10 -1 -28 9 4.36
10 1 -28 8.66 4.33
10 -1 -27 16.76 4.4
10 1 -27 12.4 4.21
10 -1 -26 22.54 4.46
10 1 -26 20.96 4.42
-10 -1 25 -0.19 2.76
-10 1 25 2.98 2.88
-10 -1 24 187.39 9.04
-10 1 24 185.87 9.13
-10 -1 23 4.96 2.79
-10 1 23 3.85 2.64
-10 -1 22 45.03 4.06
-10 1 22 42.12 4.25
-10 -1 21 46.98 4.16
-10 1 21 43.39 4.25
-10 -1 20 16.38 2.91
-10 1 20 14.83 3.1
-10 1 19 59.53 4.41
-10 -1 19 52.13 4.26
-10 -1 18 8.77 2.64
-10 1 18 7.36 2.66
-10 -1 17 29.81 3.21
-10 1 17 33.85 3.5
-10 -1 16 289.29 12.19
-10 1 16 306.15 12.37
-10 -1 15 5.71 2.49
-10 1 15 6.05 2.43
-10 -1 14 10.23 2.45
-10 1 14 15.97 2.72
-10 -1 13 108.38 5.97
-10 1 13 109.92 5.97
-10 -1 12 22 2.93
-10 1 12 21.99 3.02
-10 -1 11 29.32 3.29
10 1 -11 27.95 1.97
-10 1 11 27.61 3.27
-10 -1 11 30.19 3.8
-10 -1 10 2.71 2.79
-10 -1 10 5.42 2.34
-10 1 10 2.5 2.29
10 1 -10 3.17 1.08
-10 -1 9 2.5 2.74
10 1 -9 3.03 1.05
-10 -1 9 -0.8 2.31
-10 1 9 1.12 2.3
-10 -1 8 461.66 18.61
-10 -1 8 498.34 18.37
-10 1 8 495.55 18.32
10 1 -8 463.43 16.42
-10 -1 7 58.28 4.96
10 1 -7 61.83 2.86
-10 -1 7 59.21 4.56
-10 1 7 64.49 4.71
-10 1 6 15.26 3.01
-10 -1 6 14.48 3.53
10 1 -6 15.53 1.34
-10 1 5 143.1 7.62
10 1 -5 145.28 5.52
-10 1 4 510.37 20.65
10 1 -4 546.01 18.45
-10 1 3 520.75 21.69
10 1 -3 582.96 19.48
10 1 -2 19.19 1.39
-10 1 2 13.76 3.36
10 1 -1 4.33 0.87
-10 1 1 3.34 3.01
-10 -1 0 525.71 21.09
-10 1 0 524.27 20.4
-10 -1 -1 12.46 4.14
-10 1 -1 7.96 3.27
-10 -1 -2 82.32 6.55
-10 1 -2 69.62 5.43
-10 -1 -3 55.09 5.88
-10 1 -3 62.48 5.18
-10 1 -4 65.03 5.28
-10 -1 -4 54.45 6.14
-10 1 -5 220.66 10.59
-10 -1 -5 204.91 11.37
-10 1 -6 12.65 3.9
-10 -1 -6 4.9 4.28
-10 -1 -7 22.83 4.94
-10 1 -7 32.02 4.54
10 -1 7 27.79 1.94
-10 1 -8 229.76 11.69
10 -1 8 252.43 8.99
-10 -1 -8 216.27 12.25
-10 1 -9 77.3 6.22
10 -1 9 70.91 3.27
-10 -1 -9 58.55 6.39
-10 1 -10 211.34 10.82
10 -1 10 215.47 7.91
-10 -1 -10 206.26 11.31
-10 1 -11 59.51 5.93
10 -1 11 59.58 2.84
-10 -1 -11 60.51 6.07
-10 1 -12 189.42 10.55
10 -1 12 194.07 7.26
-10 -1 -12 221.22 11.41
-10 1 -13 160.45 9.72
-10 -1 -13 142.91 9.57
10 -1 13 165.64 6.15
-10 -1 -14 37.37 5.41
-10 1 -14 31.31 5.35
-10 1 -15 -4.65 4.85
-10 -1 -15 1.7 4.2
-10 1 -16 27.58 5.51
-10 -1 -16 23.37 5.18
-10 1 -17 13.01 5.21
-10 -1 -17 22.22 5.21
-10 1 -18 100.67 8.42
-10 -1 -18 99.15 8.31
10 1 18 110.86 8.51
10 -1 18 113.75 8.56
10 -1 19 5.84 4.2
10 1 19 6.43 4.3
-10 1 -19 7.9 5.43
-10 -1 -19 6.79 4.97
10 1 20 41.02 5.82
10 -1 20 47.08 6.15
-10 1 -20 37.76 6.38
-10 -1 -20 41.61 6.44
10 1 21 55.35 6.2
10 -1 21 58.33 6.57
-10 1 -21 41.23 6.75
-10 -1 -21 53.43 7.1
10 -2 -26 35.12 4.8
10 2 -26 34.16 4.73
10 -2 -25 144.4 8.64
10 2 -25 145.85 8.75
10 -2 -24 4.4 3.12
10 2 -24 2.91 3.07
-10 -2 24 5.49 3.08
-10 2 24 0.78 2.95
-10 -2 23 69.98 5.29
-10 2 23 77.7 5.66
-10 -2 22 0.35 2.55
-10 2 22 1.82 2.74
-10 -2 21 60.12 4.62
-10 2 21 61.83 4.72
-10 -2 20 53.2 4.47
-10 2 20 56.5 4.5
-10 -2 19 -0.83 2.6
-10 2 19 2.09 2.53
-10 -2 18 14.62 2.93
-10 2 18 18.67 3.16
-10 2 17 202.11 9.06
-10 -2 17 190.15 8.86
-10 -2 16 5.65 2.41
-10 2 16 7.29 2.6
-10 -2 15 98.02 5.69
-10 2 15 104.66 5.78
-10 -2 14 51.77 4.02
-10 2 14 48.04 3.98
-10 -2 13 2.84 2.8
-10 -2 13 -0.45 2.22
-10 2 13 1.22 2.28
-10 -2 12 51.54 3.99
-10 2 12 51.75 4.05
-10 -2 12 58.07 4.87
-10 -2 11 6.1 3.35
-10 -2 11 2.97 2.25
-10 2 11 -0.3 2.26
-10 -2 10 4.35 3.25
-10 -2 10 0.3 2.25
-10 2 10 3.12 2.35
-10 -2 9 188.54 9.8
-10 -2 9 189.38 8.8
-10 2 9 176.83 8.63
10 2 -9 221.63 8.17
-10 -2 8 18.26 3.15
-10 2 8 14.82 2.79
-10 -2 8 16.07 3.94
10 2 -8 22.55 2.19
-10 -2 7 500.94 20.61
-10 -2 7 497.83 19.69
-10 2 7 490.73 19.57
-10 -2 6 0.49 2.6
-10 2 6 -0.16 2.37
-10 -2 6 6.8 3.74
-10 -2 5 1.9 3.62
-10 -2 5 0.87 2.78
-10 2 5 0.83 2.51
-10 -2 4 -0.49 3.81
-10 -2 3 76.24 6.25
-10 -2 2 9.01 4.13
-10 -2 1 100.25 7.37
-10 -2 0 13.6 4.44
-10 -2 -1 192.67 11.2
-10 2 -1 229.1 10.24
-10 -2 -2 85.25 7.29
-10 2 -2 98.63 6.25
-10 2 -3 -2.59 3.02
-10 -2 -3 -3.5 4.35
-10 2 -4 1.37 3.1
-10 2 -5 14.58 3.44
-10 2 -6 5.55 3.11
-10 2 -7 54.96 4.76
-10 2 -8 6.8 3.23
-10 2 -9 237.21 11.06
10 -2 9 247.21 9.76
-10 -2 -9 256.39 12.81
-10 2 -10 180.86 9.34
10 -2 10 196.84 7.99
-10 -2 -10 194.6 10.97
10 -2 11 9.61 1.92
-10 2 -11 12.7 3.7
-10 -2 -11 15.56 4.32
10 -2 12 -0.47 1.54
-10 -2 -12 3.75 4.23
-10 2 -12 0.79 3.25
10 -2 13 58.34 3.35
-10 -2 -13 55.61 6.4
-10 2 -13 52.2 5.08
10 -2 14 4.35 1.59
-10 -2 -14 3.98 4.28
-10 2 -14 7.11 3.88
10 -2 15 13.4 1.91
-10 2 -15 20.19 4.26
-10 2 -16 57.7 5.79
10 -2 16 59.24 3.34
10 2 16 59.11 6.14
-10 -2 -16 62.94 7.05
10 -2 17 104.39 4.83
-10 -2 -17 122.82 9.17
10 2 17 113.22 8.36
10 -2 17 115.08 8.31
-10 -2 -18 25.44 5.93
10 2 18 18.1 4.8
10 -2 18 18.99 4.74
-10 -2 -19 -0.82 5.09
10 2 19 2.03 3.84
10 -2 19 0.69 4.26
-10 -2 -20 -5.92 5.49
10 2 20 4.18 4.21
10 -2 20 -2.49 4.45
10 -3 -23 23.25 4.09
10 3 -23 27.35 4.1
-10 -3 22 96.18 6.03
10 -3 -22 95.65 6.53
10 3 -22 90.03 6.37
-10 -3 21 155.61 7.77
-10 3 21 149.72 7.77
-10 -3 20 5.79 2.73
-10 3 20 4.62 2.71
-10 -3 19 18.57 3.26
-10 3 19 17.59 3.13
-10 -3 18 70.11 4.88
-10 3 18 72.17 5.02
-10 -3 17 26.54 3.4
-10 3 17 24.98 3.44
-10 -3 16 0.91 2.42
-10 3 16 -2.94 2.66
-10 -3 15 5.21 2.59
-10 3 15 7.68 2.61
-10 -3 14 151.92 7.29
-10 3 14 144.93 7.25
-10 -3 13 2.47 2.43
-10 3 13 1.17 2.37
-10 -3 13 1.56 3.27
-10 3 12 2.46 2.46
-10 -3 12 2.45 2.4
-10 -3 12 3.92 3.48
-10 -3 11 319.79 14.01
-10 -3 11 324.88 12.89
-10 3 11 318.22 12.82
-10 -3 10 396.23 16.86
-10 -3 10 411.47 15.66
-10 3 10 407.39 15.58
-10 -3 9 229.54 11.08
-10 -3 9 226.16 9.7
-10 3 9 222.36 9.61
-10 -3 8 3.13 2.65
-10 3 8 1.64 2.44
-10 -3 8 0.24 3.66
-10 -3 7 12.29 2.8
-10 3 7 7.42 2.51
-10 -3 7 8.91 4.09
-10 -3 6 303.98 11.95
-10 3 6 268.73 11.55
-10 -3 6 300.24 13.61
-10 -3 5 138.38 7.04
-10 3 5 132.57 6.85
-10 -3 5 156.81 8.97
-10 -3 4 46.24 4.03
-10 3 4 38.67 3.65
-10 -3 4 41.2 5.44
-10 -3 3 118.15 6.54
-10 3 3 108.09 6.19
-10 -3 3 132.95 8.23
-10 -3 2 171.96 9.96
-10 -3 1 21.55 5.08
-10 -3 0 5.96 4.51
-10 -3 -1 10.28 4.76
-10 -3 -2 46.57 6.05
-10 -3 -3 4.04 4.76
-10 -3 -4 7.19 4.66
-10 -3 -5 108.18 8.3
-10 -3 -6 159.64 9.84
-10 -3 -7 42.69 5.61
-10 -3 -8 7.36 4.34
-10 -3 -9 7.51 4.36
-10 -3 -10 11.87 4.78
10 -3 10 3.44 2.22
-10 -3 -11 1.8 4.5
10 -3 11 -0.9 2.2
10 -3 12 9.72 2.51
10 -3 13 349.64 13.73
10 -3 14 58.46 4.09
10 3 14 57.01 5.91
10 -3 14 65.81 6.37
10 3 15 -0.88 3.67
10 -3 15 -2.46 4.06
10 -3 15 -0.26 2.05
10 -3 16 41.12 3.33
10 3 16 40.08 5.37
10 -3 16 33.51 5.13
10 3 17 1.22 3.93
10 -3 17 -1.26 3.95
10 -3 17 -0.12 1.94
-10 -4 18 35.39 3.85
10 -4 -18 34.12 4.7
-10 -4 17 1.19 2.63
-10 -4 16 19.33 3.06
-10 -4 15 2.36 2.58
-10 -4 14 91.71 5.4
-10 -4 13 111.62 5.94
-10 -4 13 105.72 6.69
-10 -4 12 79.96 4.91
-10 -4 12 77.33 6.02
-10 -4 11 25.51 4.51
-10 -4 11 30.66 3.35
-10 -4 10 31.35 3.36
-10 -4 10 30.66 4.75
-10 -4 9 28.31 3.29
-10 -4 9 23.19 4.86
-10 -4 8 8.9 2.57
-10 -4 8 14.6 4.64
-10 -4 7 37.41 5.28
-10 -4 7 35.29 3.47
-10 -4 6 51.47 4.02
-10 -4 6 60.08 6.19
-10 -4 5 38.42 5.7
-10 -4 5 31.88 3.44
-10 -4 4 60.93 4.26
-10 -4 4 54.42 6.41
-10 -4 3 35.76 5.69
-10 -4 3 22.35 3.18
-10 -4 2 7.36 4.93
-10 -4 2 0.56 2.86
-10 -4 1 62.41 4.6
-10 -4 1 63.38 6.81
-10 -4 0 3.18 5.09
-10 -4 0 -1.36 3.02
-10 -4 -1 28.89 5.79
-10 -4 -2 163.61 10.47
-10 -4 -3 68.4 7.29
-10 -4 -4 29.16 5.73
-10 -4 -5 16.75 5.53
-10 -4 -6 66.43 6.87
-10 -4 -7 31.68 5.72
-10 -4 -8 19.14 5.29
-10 -4 -9 72.66 7.44
10 -4 10 38.3 4.11
-10 -4 -10 42.35 6.24
10 -4 11 55.03 4.63
-10 -4 -11 56.9 6.99
10 -4 11 40.14 5.23
11 0 -27 -1.36 4.07
-11 0 27 -4.25 3.31
-11 0 26 4.6 3.17
-11 0 25 1.39 2.96
-11 0 24 28.4 3.9
-11 0 23 0.19 2.85
-11 0 22 28.3 3.74
-11 0 21 -2.76 2.77
-11 0 20 596 22.46
-11 0 19 0.9 2.7
-11 0 18 5.65 2.8
-11 0 17 0.7 2.53
-11 0 16 140.03 7.24
-11 0 15 0.34 2.24
-11 0 14 5.16 2.61
-11 0 13 -1.73 2.27
-11 0 12 345.55 14.15
-11 0 11 -0.88 2.37
-11 0 10 3.66 2.52
-11 0 9 -0.38 2.64
-11 0 8 82.04 5.43
-11 0 8 64.24 5.36
-11 0 7 -1.06 2.86
-11 0 7 -0.81 2.73
-11 0 6 32.25 4.05
-11 0 5 4.23 3.03
-11 0 4 687.33 26.07
-11 0 3 4.35 3.35
-11 0 2 5.6 3.25
-11 0 1 -0.46 3.14
-11 0 0 252.59 11.98
-11 0 -1 10.11 4.05
-11 0 -2 75.12 6.35
-11 0 -3 1.83 3.99
11 0 4 351.31 11.92
-11 0 -4 418.47 16.39
-11 0 -5 2.39 4
-11 0 -6 26.74 4.83
-11 0 -7 -0.57 4.13
-11 0 -8 1.48 4.04
-11 0 -9 2.46 4.48
-11 0 -10 36.23 5.92
-11 0 -11 4.83 4.93
-11 0 -12 64.63 6.89
-11 0 -13 5.71 4.94
-11 0 -14 99.67 8.3
-11 0 -15 1.05 5.11
-11 0 -16 42.47 6.76
-11 0 -17 -2.9 5.28
-11 0 -18 34.72 6.53
-11 0 -19 -4.13 5.72
11 0 19 -0.82 4.52
-11 0 -20 50.59 7.62
11 0 20 55.14 6.84
11 -1 -27 10.69 4.37
11 1 -27 10.97 4.39
-11 -1 27 4.85 3.29
-11 1 27 8.68 3.57
-11 -1 26 15.08 3.57
-11 1 26 16.15 3.69
-11 -1 25 25.67 3.78
-11 1 25 23.39 3.97
-11 -1 24 91.69 5.96
-11 1 24 93.24 5.94
-11 -1 23 1.91 2.81
-11 1 23 3.54 2.97
-11 -1 22 43.83 4.37
-11 1 22 40.39 4.27
-11 -1 21 67.13 5
-11 1 21 74.46 5.26
-11 -1 20 9.09 2.81
-11 1 20 8.98 2.98
-11 -1 19 29.08 3.59
-11 1 19 29.57 3.8
-11 -1 18 15.72 2.99
-11 1 18 11.9 3.12
-11 -1 17 -2.75 2.65
-11 1 17 0.89 2.48
-11 -1 16 163.42 8.16
-11 1 16 175.47 8.33
-11 -1 15 5.57 2.55
-11 1 15 5 2.65
-11 -1 14 0.34 2.29
-11 1 14 -3.26 2.52
-11 -1 13 178.88 8.53
-11 1 13 178.36 8.52
-11 -1 12 26.19 3.48
-11 -1 12 31.84 3.96
-11 1 12 33.38 3.6
-11 -1 11 57.59 4.46
-11 1 11 63.34 4.6
-11 -1 11 52.68 4.98
-11 -1 10 41.83 4.52
-11 -1 10 41.26 3.94
-11 1 10 42.16 3.83
11 1 -10 37.99 2.2
-11 -1 9 36.8 4.33
-11 -1 9 38.57 4.02
-11 1 9 42.71 4.01
11 1 -9 34.1 2.04
-11 -1 8 397.29 16.54
11 1 -8 394.97 13.98
-11 -1 8 422.84 16.31
-11 1 8 400.55 16.13
-11 -1 7 1.38 2.76
-11 1 7 4.86 3.01
-11 -1 7 1.98 3.29
11 1 -7 2.07 0.97
11 1 -6 45.43 2.3
-11 -1 6 39.13 4.55
11 1 -5 14.17 1.3
-11 1 5 11.94 3.26
11 1 -4 12.28 1.21
-11 1 4 17.14 3.73
-11 1 3 440.7 18.74
11 1 -3 475.38 16.14
-11 1 2 1.28 3.12
11 1 -2 1.89 0.88
11 1 -1 38.11 1.87
-11 1 1 44.98 4.57
-11 -1 0 34.97 4.92
-11 1 0 24.82 4.06
-11 -1 -1 21.39 4.52
-11 1 -1 22.01 3.88
-11 -1 -2 18.5 4.53
-11 1 -2 10.97 3.68
-11 -1 -3 8.83 4.33
-11 1 -3 18.92 3.84
-11 -1 -4 25.42 5.04
-11 1 -4 23 4.09
-11 -1 -5 14.09 4.79
-11 1 -5 22.53 4.29
-11 -1 -6 8.41 4.69
-11 1 -6 8.06 3.93
-11 1 -7 1.76 3.89
-11 -1 -7 5.43 4.77
11 -1 7 1.28 1.12
11 -1 8 307.49 11.11
-11 -1 -8 317.84 15.3
-11 1 -8 323.31 14.41
-11 1 -9 2.88 4.06
-11 -1 -9 -0.33 4.69
11 -1 9 1.37 1.05
-11 1 -10 74.69 6.54
11 -1 10 68.07 3.09
-11 -1 -10 68.26 7.06
11 -1 11 6.42 1.13
-11 -1 -11 4.79 4.92
-11 1 -11 9.41 4.39
11 -1 12 22.72 1.59
-11 -1 -12 26.74 5.86
-11 1 -12 27.18 4.95
-11 1 -13 96.51 7.53
-11 -1 -13 89.65 8.07
-11 1 -14 28.5 5.48
-11 -1 -14 22.87 5.34
-11 1 -15 40.91 6.06
-11 -1 -15 50.56 6.47
-11 1 -16 80.94 7.48
-11 -1 -16 77.01 7.69
-11 1 -17 13.18 5.43
-11 -1 -17 6.97 5.03
11 -1 18 59.06 6.89
11 1 18 60.09 6.96
-11 1 -18 48.17 6.99
-11 -1 -18 59.97 7.35
11 1 19 2.36 4.21
11 -1 19 -0.4 4.64
-11 1 -19 1.65 5.37
-11 -1 -19 8.06 5.42
11 1 20 0.78 4.23
11 -1 20 -0.79 4.47
-11 1 -20 3.37 5.64
-11 -1 -20 2.05 5.33
-11 -2 25 165.36 8.68
-11 2 25 174.06 8.9
-11 -2 24 22.85 3.77
-11 2 24 19.07 3.79
-11 -2 23 53.58 4.68
-11 2 23 59.52 4.8
-11 -2 22 -0.19 2.93
-11 2 22 -4.04 3.08
-11 -2 21 19.49 3.5
-11 2 21 19.27 3.57
-11 -2 20 52.38 4.45
-11 2 20 53.42 4.71
-11 -2 19 12.22 3.04
-11 2 19 16.61 3.29
-11 2 18 99.41 5.93
-11 -2 18 94.34 5.87
-11 -2 17 84.18 5.45
-11 2 17 88.69 5.63
-11 -2 16 14.73 3.12
-11 2 16 13.8 2.93
-11 -2 15 99.94 5.83
-11 2 15 89.77 5.72
-11 -2 14 1.98 2.41
-11 2 14 3.67 2.6
-11 -2 13 3.62 2.35
-11 2 13 -2.14 2.48
-11 -2 13 -0.86 3.14
-11 -2 12 16.11 2.93
-11 2 12 15.84 2.86
-11 -2 12 13.81 3.65
-11 2 11 21.18 3.12
-11 -2 11 28.76 3.49
-11 -2 11 24.13 4.13
-11 2 10 28.28 3.45
-11 -2 10 33.61 3.54
-11 -2 10 34.23 4.61
-11 -2 9 260.76 12.28
-11 -2 9 252 11.23
-11 2 9 242.01 11.1
11 2 -9 282.72 10.22
-11 -2 8 17.95 3.23
-11 2 8 14.29 3.04
-11 -2 8 18.77 4.11
11 2 -8 24.5 2.25
-11 -2 7 72.41 5.96
11 2 -7 72.22 3.71
-11 -2 7 72.29 5.12
-11 2 7 62.12 4.85
-11 -2 6 343.83 14.08
-11 2 6 312.11 13.68
-11 -2 6 355.62 15.05
-11 -2 5 5.37 3.79
-11 -2 5 -1.95 2.95
-11 2 5 -1.86 2.77
-11 -2 4 29.18 4.85
-11 -2 3 8.95 4.36
-11 -2 2 194.5 10.79
-11 -2 1 75.26 6.62
-11 -2 0 7.9 4.27
-11 2 0 1.88 3.04
-11 -2 -1 143.82 9.03
-11 2 -1 131.34 7.82
-11 -2 -2 90.09 7.7
-11 2 -2 94.3 6.53
-11 2 -3 2.38 3.28
-11 2 -4 20.98 3.94
-11 2 -5 42.33 4.71
-11 2 -6 2.49 3.14
-11 2 -7 68.17 5.55
-11 -2 -8 54.41 6.67
-11 2 -8 61.23 5.27
-11 2 -9 106.38 6.94
11 -2 9 109.48 5.2
-11 -2 -9 115.2 8.69
11 -2 10 31.48 2.69
-11 -2 -10 43.56 5.96
-11 2 -10 29.01 4.35
11 -2 11 0.85 1.62
-11 2 -11 0.86 3.45
-11 2 -12 106.74 7.41
11 -2 12 125.25 5.53
-11 -2 -12 139.58 9.67
-11 -2 -13 14.37 5.04
-11 2 -13 8.46 3.96
11 -2 13 8.85 1.78
-11 -2 -14 1.93 4.83
-11 2 -14 7.36 4.01
11 -2 14 -1.15 1.48
11 -2 15 2.58 1.53
-11 2 -15 8.23 4.14
-11 -2 -15 7.87 5.06
11 -2 16 55.12 3.12
-11 -2 -16 53.28 7.03
11 2 17 62.61 6.66
11 -2 17 56.83 6.83
-11 -2 -17 71.18 7.7
11 -2 17 59.91 3.27
11 2 18 17.15 5.04
11 -2 18 20.11 5.27
-11 -2 -18 14.2 5.43
-11 -3 22 111.6 6.7
-11 3 22 122.28 6.94
-11 -3 21 88.53 5.87
-11 3 21 104.12 6.13
-11 -3 20 -1.57 2.9
-11 3 20 -1.59 2.71
-11 -3 19 28.48 3.67
-11 3 19 25.24 3.62
-11 -3 18 33.55 3.74
-11 3 18 25.47 3.6
-11 -3 17 10.77 3.06
-11 3 17 11.24 2.98
-11 -3 16 8.02 2.93
-11 3 16 7.56 2.92
-11 -3 15 13.55 3.13
-11 3 15 17.38 3.3
-11 -3 14 99.06 6.77
-11 -3 14 104.36 6.14
-11 3 14 121.19 6.32
-11 -3 13 29.51 3.43
-11 3 13 23.96 3.35
-11 -3 13 30.21 4.53
-11 -3 12 7.86 2.77
-11 3 12 9.1 2.68
-11 -3 12 10.7 3.89
-11 -3 11 1.41 2.44
-11 3 11 -0.15 2.33
-11 -3 11 -0.71 3.68
-11 -3 10 205.33 10.45
-11 -3 10 200.59 9.04
-11 3 10 191.39 8.86
-11 3 9 21.89 3.09
-11 -3 9 21.93 3.25
-11 -3 9 26.59 4.75
-11 -3 8 5.85 2.79
-11 3 8 7.49 2.61
-11 -3 8 7.7 4.12
-11 -3 7 47.6 4.23
-11 3 7 42.63 3.89
-11 -3 7 48.86 5.59
-11 -3 6 127.44 6.85
-11 3 6 112.29 6.47
-11 -3 6 144.83 8.72
-11 -3 5 43.58 4.21
-11 3 5 41.39 4.03
-11 -3 5 52.16 5.98
-11 3 4 9.24 2.97
-11 -3 4 8.36 3.13
-11 -3 3 69.82 6.6
-11 -3 3 63.74 5.13
-11 3 3 58.21 4.76
-11 -3 2 39.85 5.63
-11 -3 1 2.97 4.58
-11 -3 0 6.5 4.82
-11 -3 -1 25.47 5.49
-11 -3 -2 72.12 7.16
-11 -3 -3 10.06 5.2
-11 -3 -4 36.77 6.24
-11 -3 -5 103.66 8.59
-11 -3 -6 17.23 5.44
-11 -3 -7 -7.11 5.42
-11 -3 -8 0.73 4.48
11 -3 9 8.67 2.44
-11 -3 -9 15.95 5.06
11 -3 10 5.37 2.45
-11 -3 -10 18.93 5.19
11 -3 11 5.08 2.4
-11 -3 -11 10.04 5.14
11 -3 12 31.08 3.27
11 -3 13 164.71 7.62
11 -3 14 25.66 2.92
-11 -4 15 21.81 3.38
-11 -4 14 33.32 3.66
-11 -4 13 37.65 3.74
-11 -4 13 34.76 4.86
-11 -4 12 6.1 4.16
-11 -4 12 3.09 2.78
-11 -4 11 70.65 6.27
-11 -4 11 79.61 5.06
-11 -4 10 56.92 4.32
-11 -4 10 44.77 5.7
-11 -4 9 0.25 4.24
-11 -4 9 2.55 2.52
-11 -4 8 -0.53 4.3
-11 -4 8 -1.7 2.64
-11 -4 7 42.87 5.64
-11 -4 7 31.06 3.52
-11 -4 6 34.29 3.78
-11 -4 6 40.74 5.99
-11 -4 5 83.24 5.44
-11 -4 5 113.26 8.08
-11 -4 4 35.81 3.88
-11 -4 4 42.68 6.25
-11 -4 3 69.73 5.04
-11 -4 3 91.09 7.62
-11 -4 2 62.62 4.95
-11 -4 2 71.84 7.09
-11 -4 1 5.47 3.21
-11 -4 1 19.47 5.55
-11 -4 0 47.59 4.57
-11 -4 0 45.3 6.55
-11 -4 -1 19.53 6.07
-11 -4 -2 57.62 7.33
-11 -4 -3 86.96 8.28
-11 -4 -4 13.82 5.9
-11 -4 -5 13.72 6.16
-11 -4 -6 104.94 9.34
-11 -4 -7 -4.19 6.08
-11 -4 -8 32.35 6.58
-12 0 26 -1.27 3.34
-12 0 25 2.09 3.22
-12 0 24 285.92 12.67
-12 0 23 3.11 3.22
-12 0 22 28.49 3.93
-12 0 21 -0.59 2.88
-12 0 20 367.48 15.16
-12 0 19 1.74 2.85
-12 0 18 1.53 2.76
-12 0 17 -2.48 2.78
-12 0 16 167.26 8.41
-12 0 15 -0.19 2.56
-12 0 14 -0.19 2.62
-12 0 13 -1.74 2.78
-12 0 12 245.35 11.09
-12 0 11 3.77 2.76
-12 0 10 3.48 2.93
-12 0 9 1.28 2.95
-12 0 9 0.89 3.03
-12 0 8 208.84 10.58
-12 0 8 224.11 10.53
-12 0 7 -2.31 3.33
-12 0 7 -0.69 3.12
-12 0 6 21.48 3.94
-12 0 5 0.69 3.28
-12 0 4 524.14 21
-12 0 3 -0.95 3.33
-12 0 2 32.53 4.69
-12 0 1 2.53 3.64
-12 0 0 130.75 8.26
-12 0 -1 5.84 3.76
-12 0 -2 540.6 22.09
-12 0 -3 2.53 3.97
-12 0 -4 6.6 4.44
-12 0 -5 2.63 4.32
-12 0 -6 8.23 4.43
-12 0 -7 0.59 4.12
-12 0 -8 89.77 7.43
-12 0 -9 4.75 4.88
-12 0 -10 34.27 5.91
-12 0 -11 5.06 4.97
-12 0 -12 46.45 6.8
-12 0 -13 -1.07 5.22
-12 0 -14 54.21 7.2
-12 0 -15 -3.36 5.7
-12 0 -16 1.14 5.57
-12 0 -17 -0.39 5.72
-12 0 -18 40.26 7.45
-12 -1 26 10.6 3.38
-12 1 26 13.46 3.7
-12 -1 25 61.3 5.21
-12 1 25 68.79 5.38
-12 -1 24 12.11 3.38
-12 1 24 7.16 3.45
-12 -1 23 3.3 3.12
-12 1 23 7.84 3.27
-12 -1 22 3.56 2.91
-12 1 22 2.24 3.01
-12 -1 21 53.22 4.62
-12 1 21 53.32 4.69
-12 1 20 85.28 5.84
-12 -1 20 86.88 5.86
-12 -1 19 8.41 3.08
-12 1 19 13.52 3.33
-12 1 18 23.52 3.68
-12 -1 18 26.74 3.6
-12 -1 17 63.96 4.85
-12 1 17 56.59 4.87
-12 -1 16 118.74 6.78
-12 1 16 128.55 7.08
-12 -1 15 0.93 2.64
-12 1 15 5.08 2.74
-12 -1 14 24.37 3.52
-12 1 14 28.58 3.67
-12 -1 13 15.15 3.27
-12 1 13 15.19 3.3
-12 -1 12 126.2 7.06
-12 1 12 126.62 7.11
-12 -1 12 121.75 7.52
-12 -1 11 98.5 6.04
-12 1 11 91.25 6
-12 -1 11 97.01 6.7
12 1 -10 6.57 1.16
-12 -1 10 7.66 3.7
-12 -1 10 6.83 2.95
-12 1 10 4.94 2.72
-12 -1 9 28.64 4.26
-12 -1 9 28.94 3.94
-12 1 9 31.29 3.99
12 1 -9 33.48 1.98
-12 -1 8 189.87 9.89
-12 -1 8 205.67 9.69
-12 1 8 211.7 9.71
12 1 -8 182.57 7.07
-12 -1 7 30.25 4.37
12 1 -7 27.41 1.76
-12 -1 7 25.26 4.13
-12 1 7 28.78 4
-12 1 6 2.25 2.91
12 1 -6 0.64 0.91
-12 1 5 6.99 3.51
12 1 -5 6.64 1.11
-12 1 4 267.28 12.66
12 1 -4 275.35 9.77
-12 1 3 -0.71 3.43
12 1 -3 -0.26 0.97
12 1 -2 27.12 1.63
-12 1 2 21.83 4.13
-12 -1 1 20.73 4.7
-12 1 1 20.07 4.02
-12 1 0 286.37 13.51
-12 -1 0 317.52 14.59
-12 -1 -1 11.68 4.6
-12 1 -1 7.18 3.56
-12 -1 -2 7.62 4.33
-12 1 -2 4.86 3.77
-12 -1 -3 13.18 4.65
-12 1 -3 6.65 3.75
-12 1 -4 66.16 5.83
-12 -1 -4 55.86 6.31
-12 1 -5 93.71 6.99
-12 -1 -5 98.51 8.1
-12 1 -6 271 12.93
-12 -1 -6 264.23 13.84
12 -1 7 80.53 3.6
-12 1 -7 75.55 6.71
-12 -1 -7 78.89 7.66
12 -1 8 86.32 3.74
-12 1 -8 84.32 7.1
-12 -1 -8 88.65 8.06
12 -1 9 102.93 4.2
-12 -1 -9 90.69 8.3
-12 1 -9 117.37 7.92
12 -1 10 0.84 0.98
-12 -1 -10 5.84 5.41
-12 1 -10 7.98 4.57
12 -1 11 -1.26 0.97
-12 1 -11 0.87 4.51
-12 -1 -11 0.37 5.32
-12 -1 -12 3.42 5.39
-12 1 -12 12.37 4.87
-12 -1 -13 15.14 6.13
-12 1 -13 44.59 6.13
-12 -1 -14 99.22 9.29
-12 1 -14 104.27 8.13
-12 -1 -15 12.46 6.35
-12 1 -15 12.61 5.02
-12 -1 -16 78.45 8.75
-12 1 -16 82.7 7.73
-12 -1 -17 21.62 6.78
-12 1 -17 31.3 5.97
-12 -1 -18 7.23 6.25
-12 1 -18 19.12 6.11
-12 -2 24 34.22 4.32
-12 2 24 38.96 4.34
-12 -2 23 16.24 3.51
-12 2 23 13.15 3.51
-12 -2 22 -3.03 3.27
-12 2 22 0.62 3.17
-12 -2 21 31.06 3.86
-12 2 21 32.9 4
-12 -2 20 16.46 3.38
-12 2 20 7.96 3.16
-12 -2 19 83.91 5.66
-12 2 19 78.79 5.67
-12 -2 18 38.68 4.1
-12 2 18 42.09 4.35
-12 -2 17 123.84 7.07
-12 2 17 139.48 7.34
-12 -2 16 16.55 3.34
-12 2 16 12.74 3.2
-12 -2 15 32.23 3.69
-12 2 15 31.92 3.64
-12 2 14 21.18 3.31
-12 -2 14 18.4 3.38
-12 -2 13 35.37 4.84
-12 -2 13 37.18 3.93
-12 2 13 43.48 4.05
-12 -2 12 13.14 3.05
-12 2 12 11.79 3.08
-12 -2 12 15.14 4.26
-12 2 11 103.07 6.12
-12 -2 11 104.69 6.2
-12 -2 11 93.69 7.04
-12 -2 10 46.78 4.22
-12 2 10 34.84 3.83
-12 -2 10 46.22 5.18
-12 -2 9 109.06 7.48
-12 -2 9 114.56 6.69
-12 2 9 102.79 6.41
12 2 -9 116.48 5.19
-12 -2 8 75.81 6.3
-12 -2 8 67.9 5.34
-12 2 8 73.52 5.28
12 2 -8 78.08 3.91
-12 -2 7 45.26 5.47
-12 -2 7 48.28 4.53
-12 2 7 39.55 4.16
-12 2 6 13.77 3.24
-12 -2 6 19.85 3.74
-12 -2 6 18.2 4.65
-12 -2 5 17.89 3.62
-12 2 5 14.2 3.5
-12 -2 5 21.99 4.66
-12 -2 4 76.36 6.69
-12 -2 3 330.95 15.45
-12 -2 2 10.02 4.66
-12 -2 1 59.29 6.29
-12 2 0 -4.44 3.6
-12 -2 0 -1.49 4.17
-12 -2 -1 51.71 5.94
-12 2 -1 46.31 5.09
-12 -2 -2 70.75 6.98
-12 2 -2 65.75 5.72
-12 2 -3 11.61 3.97
-12 2 -4 40.51 4.73
-12 2 -5 105.91 6.97
-12 2 -6 77.72 6.06
-12 2 -7 6.98 3.81
-12 2 -8 16.41 4.01
12 -2 8 12.79 2.16
-12 -2 -8 14.45 5.43
-12 2 -9 37.84 4.92
-12 -2 -9 25.02 6.41
-12 2 -10 31.76 4.74
12 -2 10 32.42 2.64
-12 -2 -10 28.97 6.53
12 -2 11 10.8 1.95
-12 2 -11 16.48 4.43
-12 -2 -12 6.39 5.81
-12 2 -12 14.42 4.31
12 -2 12 13.54 1.95
-12 2 -13 98.34 7.35
12 -2 13 110.16 4.9
-12 -2 -13 99.21 9.33
-12 2 -14 12.92 4.39
12 -2 14 19.49 2.07
-12 -2 -15 7.65 5.68
-12 -2 -16 42.5 7.05
-12 -3 20 -0.57 2.98
-12 3 20 1.14 2.91
-12 -3 19 -1.12 2.99
-12 3 19 -0.57 2.92
-12 -3 18 -3.24 3.11
-12 3 18 1.81 2.86
-12 -3 17 -1.42 2.79
-12 3 17 0.53 2.64
-12 -3 16 1.07 2.97
-12 3 16 1.59 2.96
-12 -3 15 50.04 4.51
-12 3 15 55.32 4.5
-12 -3 14 213.45 9.41
-12 3 14 181.18 8.94
-12 -3 14 183.67 10.1
-12 -3 13 94.88 5.77
-12 3 13 84.12 5.57
-12 -3 13 93.39 7.1
-12 -3 12 0.77 4.08
-12 3 12 1.16 2.62
-12 -3 12 0.17 2.69
-12 -3 11 2.84 4.15
-12 -3 11 3.26 2.76
-12 3 11 -0.33 2.61
-12 -3 10 7.2 4.37
-12 -3 10 2.77 2.81
-12 3 10 0.49 2.64
-12 3 9 58.1 4.57
-12 -3 9 57.72 4.68
-12 -3 9 63.89 6.23
-12 -3 8 25.59 5.11
-12 -3 8 20.73 3.54
-12 3 8 20.79 3.27
-12 -3 7 199.28 9.45
-12 3 7 187.19 9.11
-12 -3 7 228.23 11.38
-12 -3 6 69.2 5.29
-12 3 6 61.48 4.82
-12 -3 6 73.18 6.72
-12 -3 5 66.44 5.26
-12 3 5 66.03 5.04
-12 -3 5 84.22 7.21
-12 3 4 -2.01 3.14
-12 -3 4 1.19 3.33
-12 -3 3 21.14 3.94
-12 3 3 14.49 3.48
-12 -3 2 17.06 5.14
-12 -3 1 0.61 4.48
-12 -3 0 15.51 5.14
-12 -3 -1 66.13 7.12
-12 -3 -2 55.11 6.85
-12 -3 -3 6.75 5.22
-12 -3 -4 1.81 5.44
-12 -3 -5 86.8 8.32
-12 -3 -6 9.45 5.58
-12 -3 -7 0.77 5.57
-12 -3 -8 -4.72 5.78
12 -3 9 122.52 6.33
-12 -3 -9 114.82 9.91
12 -3 10 41.55 3.71
-12 -3 -10 39.1 7.17
12 -3 11 -3.35 2.42
-12 -3 -11 -0.83 5.77
12 -3 12 95.5 5.31
-12 -4 12 -0.16 2.92
-12 -4 12 4.01 4.37
-12 -4 11 27.85 5.15
-12 -4 11 23.72 3.52
-12 -4 10 20.49 5
-12 -4 10 20.69 3.38
-12 -4 9 4.33 4.52
-12 -4 9 0.16 2.76
-12 -4 8 78.85 5.2
-12 -4 8 79.72 7.24
-12 -4 7 2.04 2.88
-12 -4 7 12.52 5.06
-12 -4 6 28.37 3.74
-12 -4 6 34.26 5.86
-12 -4 5 36.89 4.04
-12 -4 5 46.67 6.23
-12 -4 4 8.81 3.23
-12 -4 4 21.63 5.68
-12 -4 3 60.44 5.09
-12 -4 3 81.57 7.68
-12 -4 2 74 5.55
-12 -4 2 81.8 7.85
-12 -4 1 11.85 5.43
-12 -4 1 -2.71 3.64
-12 -4 0 43.56 6.39
-12 -4 0 37.91 4.48
-12 -4 -1 3.5 5.4
-12 -4 -2 18.81 6.22
-12 -4 -3 40.58 7.04
-12 -4 -4 4.61 5.77
-13 0 24 555.91 21.89
-13 0 23 0.86 3.43
-13 0 22 21.82 3.83
-13 0 21 -2.54 3.2
-13 0 20 51.52 4.94
-13 0 19 -0.21 3.14
-13 0 18 -1.87 3.08
-13 0 17 -3.31 3.04
-13 0 16 696.62 26.19
-13 0 15 0.83 3.08
-13 0 14 3.39 3.05
-13 0 13 -2.79 3.26
-13 0 12 25.87 3.98
-13 0 11 2.87 3.18
-13 0 10 2.73 3.15
-13 0 9 0.73 3.29
-13 0 9 -0.71 3.27
-13 0 8 291.39 12.76
-13 0 8 244.36 12.4
-13 0 7 -0.74 3.6
-13 0 7 1.76 3.66
-13 0 6 48.45 5.17
-13 0 5 -1 3.43
-13 0 4 122.75 7.88
-13 0 3 3.91 3.61
-13 0 2 65.42 6.08
-13 0 1 1.63 4.07
-13 0 0 892.77 33.84
-13 0 -1 0.28 3.95
-13 0 -2 58.78 6.29
-13 0 -3 3.29 4.31
-13 0 -4 0.61 4.35
-13 0 -5 2.5 4.63
-13 0 -6 14.55 5.17
-13 0 -7 4.5 4.93
-13 0 -8 109.32 8.62
-13 0 -9 -0.65 4.5
-13 0 -10 72.58 7.52
-13 0 -11 6.19 5.09
-13 0 -12 81.67 8.09
-13 0 -13 7.66 5.49
-13 0 -14 1.5 5.45
-13 0 -15 -5.76 5.74
-13 0 -16 83.39 8.85
-13 -1 24 5.74 3.36
-13 1 24 4.31 3.47
-13 -1 23 34.33 4.3
-13 1 23 34.13 4.35
-13 -1 22 1.67 2.95
-13 1 22 0.43 3.28
-13 -1 21 15.1 3.57
-13 1 21 15.02 3.55
-13 -1 20 234.88 11.01
-13 1 20 239.05 11.14
-13 -1 19 2.05 2.95
-13 1 19 1.88 3.09
-13 -1 18 -1.84 3.21
-13 1 18 -2.29 3.23
-13 -1 17 28.43 3.82
-13 1 17 27.79 3.88
-13 -1 16 61.57 5.02
-13 1 16 58.24 4.99
-13 -1 15 17.59 3.42
-13 1 15 9.27 3.25
-13 -1 14 15.07 3.34
-13 1 14 15.95 3.61
-13 1 13 2.51 3
-13 -1 13 -1.26 2.9
-13 -1 12 151.5 9.08
-13 -1 12 173.52 8.86
-13 1 12 174.71 8.86
-13 -1 11 26.38 4.1
-13 1 11 24.77 3.78
-13 -1 11 16.49 4.18
-13 -1 10 9.6 3.59
-13 1 10 14.78 3.5
-13 -1 10 18.41 4.21
-13 -1 9 46.28 5.23
13 1 -9 51.15 2.64
-13 -1 9 58.64 5.36
-13 1 9 52.19 5.09
-13 -1 8 41.97 5.21
13 1 -8 45.84 2.4
-13 -1 8 46.28 4.97
-13 1 8 44.07 4.9
-13 -1 7 137.21 8.54
-13 -1 7 147.71 8.4
-13 1 7 143.52 8.2
13 1 -7 135.22 5.38
13 1 -6 26.01 1.75
-13 1 6 21.4 4.24
13 1 -5 0.6 0.99
-13 1 5 -2 3.44
13 1 -4 140.83 5.42
-13 1 4 136.88 8.34
13 1 -3 22.94 1.61
-13 1 3 20.17 4.33
13 1 -2 49.16 2.31
-13 1 2 47.2 5.23
-13 1 1 20.79 4.38
-13 -1 1 30.68 5.34
-13 1 0 193.4 10.48
-13 -1 0 205.83 11.34
-13 1 -1 85.37 6.84
-13 -1 -1 87.54 7.61
-13 1 -2 -1.31 3.65
-13 -1 -2 5.99 4.82
-13 1 -3 2.95 3.77
-13 -1 -3 16.33 5.16
-13 -1 -4 49.56 6.41
-13 1 -4 65.98 6.13
-13 -1 -5 21.96 5.56
-13 1 -5 13.31 4.51
13 -1 6 188.07 7.29
-13 1 -6 227.32 11.17
-13 -1 -6 205.77 11.77
-13 1 -7 53.56 5.96
-13 -1 -7 40.17 6.55
13 -1 7 41.68 2.35
13 -1 8 101.9 4.2
-13 1 -8 107.17 7.88
-13 -1 -8 117.25 9.1
-13 1 -9 84.71 7.4
-13 -1 -9 76.15 8.11
-13 1 -10 -2.71 4.6
-13 -1 -10 6.93 5.48
-13 -1 -11 2.75 5.63
-13 1 -11 13.46 5.25
-13 -1 -12 40.36 7.37
-13 1 -12 57.56 6.58
-13 1 -13 13.85 5.31
-13 -1 -13 9.92 6.15
-13 -1 -14 108.46 9.98
-13 1 -14 104.27 8.48
-13 -1 -15 -5.16 6.53
-13 1 -15 5.51 5.31
-13 -2 22 -4 3.48
-13 2 22 -0.87 3.4
-13 -2 21 152.49 8.23
-13 2 21 155.92 8.38
-13 -2 20 -4.04 3.25
-13 2 20 -2.25 3.08
-13 -2 19 132.72 7.46
-13 2 19 121.2 7.15
-13 -2 18 30.26 4.02
-13 2 18 24.71 3.84
-13 2 17 36.85 4.38
-13 -2 17 32.42 4.15
-13 2 16 71.21 5.37
-13 -2 16 74.54 5.43
-13 -2 15 -3.74 2.97
-13 2 15 0.97 2.93
-13 -2 14 -0.2 2.89
-13 2 14 0.39 2.81
-13 -2 13 72.37 6.58
-13 -2 13 89.57 5.8
-13 2 13 81.05 5.6
-13 -2 12 -4.24 3.1
-13 2 12 4.3 2.84
-13 -2 12 0.27 3.79
-13 -2 11 180.18 8.89
-13 2 11 167.45 8.57
-13 -2 11 151.79 9.48
-13 -2 10 102.76 6.64
-13 2 10 104 6.42
-13 -2 10 105.93 7.53
-13 -2 9 45.37 4.79
-13 2 9 45.17 4.46
-13 -2 9 48.8 5.83
-13 -2 8 20.92 4.71
13 2 -8 21.99 2.24
-13 -2 8 25.92 4.22
-13 2 8 25.56 3.89
-13 -2 7 3.84 3.47
-13 2 7 -0.86 3.28
-13 -2 7 0.86 4.11
-13 2 6 5.03 3.25
-13 -2 6 8.07 3.63
-13 -2 6 1.16 4.13
-13 -2 5 119.04 8.32
-13 -2 5 113.98 7.36
-13 2 5 113.63 7.25
-13 -2 4 37.32 5.62
-13 -2 3 197.09 11.22
-13 -2 2 94.2 7.71
-13 -2 1 25.05 5.46
-13 2 0 -0.25 3.58
-13 -2 0 0.64 4.66
-13 2 -1 3.73 3.67
-13 -2 -1 2.58 4.58
-13 2 -2 25.52 4.66
-13 2 -3 17.69 4.41
-13 2 -4 68.92 6.17
-13 2 -5 183.24 9.92
-13 2 -6 64.3 5.98
-13 2 -7 12.05 4.13
-13 -2 -7 7.3 5.71
-13 2 -8 0.97 3.87
13 -2 8 2.94 1.75
-13 -2 -8 1.97 5.71
-13 2 -9 21.9 4.76
13 -2 9 23.94 2.44
-13 -2 -9 11.32 6.42
13 -2 10 15.45 2.13
-13 2 -10 19.64 4.5
-13 -2 -10 20.65 6.67
-13 2 -11 29.75 5.1
-13 -2 -11 10.98 6.72
-13 2 -12 26.97 5.02
-13 -2 -12 20.71 6.74
-13 -2 -13 97 9.76
-13 2 -13 96.73 7.48
-13 -3 17 12.93 3.43
-13 3 17 9.97 3.23
-13 -3 16 1.14 3
-13 3 16 -1.67 2.96
-13 -3 15 62.36 5.23
-13 3 15 66.67 5.03
-13 3 14 178 8.81
-13 -3 14 191.17 9.12
-13 -3 14 177.24 10.23
-13 -3 13 34.75 5.53
-13 -3 13 41.29 4.29
-13 3 13 41.14 4.16
-13 -3 12 2.51 4.29
-13 -3 12 2.61 2.94
-13 3 12 4.25 2.85
-13 -3 11 -3.64 4.4
-13 -3 11 1.69 2.82
-13 3 11 0.35 2.59
-13 -3 10 13.42 4.56
-13 -3 10 12 3.31
-13 3 10 8.19 3.07
-13 -3 9 58.49 5.02
-13 3 9 53.03 4.64
-13 -3 9 65.43 6.51
-13 -3 8 3.85 4.61
-13 -3 8 -2.71 3.29
-13 3 8 -0.54 2.9
-13 -3 7 143.86 8.1
-13 3 7 145.74 7.89
-13 -3 7 176.64 10.04
-13 -3 6 71.46 5.59
-13 3 6 64.9 5.25
-13 -3 6 69.78 6.98
-13 -3 5 20.04 3.91
-13 3 5 13.95 3.6
-13 3 4 2 3.16
-13 -3 4 6.23 3.68
-13 -3 4 13.61 5.08
-13 -3 3 1.32 3.51
-13 3 3 -0.62 3.31
-13 -3 3 6.13 4.7
-13 -3 2 34.31 5.98
-13 -3 1 3.97 4.97
-13 -3 0 10.24 4.96
-13 -3 -1 98.02 8.22
-13 -3 -2 53.21 7.11
-13 -3 -3 7.61 5.58
-13 -3 -4 7.87 5.96
-13 -3 -5 17.95 6.18
-13 -3 -6 -2.39 5.9
-13 -3 -7 2.86 5.92
-13 -3 -8 -1.68 6.04
13 -3 9 217.09 9.48
-13 -3 -9 242.43 14.21
-14 0 23 4.11 3.85
-14 0 22 5.9 3.64
-14 0 21 -2.28 3.72
-14 0 20 35.03 4.59
-14 0 19 0.45 3.29
-14 0 18 2.26 3.39
-14 0 17 -1.81 3.51
-14 0 16 445.09 18.24
-14 0 15 -1.61 3.45
-14 0 14 7.5 3.5
-14 0 13 -2.84 3.42
-14 0 12 9.07 3.73
-14 0 11 0.24 3.46
-14 0 10 24.99 4.5
-14 0 9 -0.77 3.86
-14 0 9 5.76 3.84
-14 0 8 519.41 22.14
-14 0 8 584.78 22.39
-14 0 7 4.36 3.97
-14 0 7 4.53 3.98
-14 0 6 4.3 3.85
-14 0 5 -2.18 3.8
-14 0 4 4.44 3.95
-14 0 3 0.28 3.85
-14 0 2 52.02 6.09
-14 0 1 -1.76 4.06
-14 0 0 372.78 16.93
-14 0 -1 0.61 4.41
-14 0 -2 113.06 8.35
-14 0 -3 -1.57 4.34
-14 0 -4 11.26 4.89
-14 0 -5 2.95 4.92
-14 0 -6 41.05 6.2
-14 0 -7 8.48 5.16
-14 0 -8 200.07 11.83
-14 0 -9 -0.7 5.27
-14 0 -10 103.85 8.83
-14 0 -11 7.08 5.54
-14 0 -12 48.36 6.96
-14 0 -13 11.28 6.06
-14 0 -14 5.26 5.68
-14 -1 22 1.78 3.27
-14 1 22 -1.81 3.44
-14 -1 21 9.22 3.56
-14 1 21 7.31 3.64
-14 -1 20 270.74 12.33
-14 1 20 264.16 12.36
-14 -1 19 0.22 3.3
-14 1 19 2.92 3.54
-14 -1 18 1.11 3.26
-14 1 18 2.67 3.28
-14 -1 17 53.73 4.88
-14 1 17 44.71 4.71
-14 -1 16 11.36 3.71
-14 1 16 7.14 3.38
-14 -1 15 54.99 5.15
-14 1 15 50.93 5.23
-14 -1 14 1.83 3.37
-14 1 14 4.31 3.34
-14 -1 13 2.78 3.3
-14 1 13 -0.23 3.3
-14 -1 12 251.78 12.86
-14 -1 12 287.31 12.74
-14 1 12 275.59 12.56
-14 -1 11 1.9 3.43
-14 1 11 4 3.4
-14 -1 11 -0.55 3.84
-14 -1 10 -2.95 3.61
-14 1 10 -3.15 3.57
-14 -1 10 0.56 3.9
-14 -1 9 58.42 5.56
-14 1 9 48.65 5.32
-14 -1 9 48.21 5.79
-14 -1 8 0.28 3.85
-14 -1 8 -0.76 3.65
-14 1 8 0.25 3.6
14 1 -8 1.91 1.12
-14 -1 7 79.98 6.47
-14 1 7 83.35 6.61
-14 -1 7 88.11 7.08
-14 -1 6 -0.53 3.64
-14 1 6 -0.26 3.77
-14 1 5 3.19 3.94
-14 1 4 381.03 16.78
-14 1 3 1.93 3.92
-14 -1 2 33.88 5.8
-14 1 2 38.12 5.44
-14 -1 1 11.8 4.84
-14 1 1 20.83 4.83
-14 1 0 3.31 3.87
-14 -1 0 12.79 5.06
-14 -1 -1 140.47 9.45
-14 1 -1 119.24 8.37
-14 1 -2 25.29 5
-14 -1 -2 23.72 5.59
-14 1 -3 -0.57 4.19
-14 -1 -3 9.46 5.18
-14 1 -4 174.09 10.41
-14 -1 -4 179.7 11.09
-14 -1 -5 27.02 5.91
-14 1 -5 24.28 5.3
14 -1 5 20.32 1.78
-14 1 -6 39.69 5.73
-14 -1 -6 33.78 6.28
-14 1 -7 30.29 5.43
-14 -1 -7 31.72 6.34
-14 1 -8 7.51 4.91
-14 -1 -8 6.56 5.4
-14 1 -9 143.26 9.47
-14 -1 -9 136.89 10.3
-14 1 -10 26.26 5.77
-14 -1 -10 27.43 6.76
-14 1 -11 4.78 5
-14 -1 -11 5.25 6.08
-14 1 -12 120.68 9.05
-14 -1 -12 109.55 10.08
-14 1 -13 3.94 5.29
-14 -1 -13 7.31 6.59
-14 -2 19 80.01 6.13
-14 2 19 80.8 6.03
-14 2 18 1.27 3.1
-14 -2 18 2.58 3.23
-14 -2 17 22.63 3.94
-14 2 17 14.24 3.5
-14 -2 16 59.72 5.2
-14 2 16 57.1 5.06
-14 2 15 10.02 3.39
-14 -2 15 8.79 3.6
-14 -2 14 6.91 3.46
-14 2 14 3.35 3.14
-14 -2 13 98.62 6.48
-14 2 13 84.04 6.11
-14 -2 13 86.02 7.24
-14 -2 12 0.87 4.33
-14 -2 12 0.22 3.15
-14 2 12 -0.43 3.23
-14 -2 11 93.88 6.42
-14 2 11 89.82 6.28
-14 -2 11 93.46 7.46
-14 2 10 38.35 4.61
-14 -2 10 44.98 5.75
-14 -2 10 38.51 4.68
-14 -2 9 -2.07 4.32
-14 -2 9 -0.94 3.37
-14 2 9 -2.88 3.51
-14 -2 8 56.74 5.53
-14 2 8 47.95 5.07
-14 -2 8 64.53 6.45
-14 -2 7 3.31 4.41
-14 -2 7 10.16 3.92
-14 2 7 -1.39 3.52
-14 -2 6 2.77 4.36
-14 2 6 2.1 3.43
-14 -2 6 -0.99 3.73
-14 -2 5 74.31 7.01
-14 -2 5 79.87 6.39
-14 2 5 65.94 5.99
-14 -2 4 8.52 4.78
-14 -2 3 255.74 13.36
-14 -2 2 42.13 6.33
-14 -2 1 8 5.18
-14 -2 0 14.58 5.26
-14 2 0 5.72 4.2
-14 -2 -1 4.46 4.94
-14 2 -1 1.83 4
-14 2 -2 0.78 3.9
-14 2 -3 38.23 5.31
-14 2 -4 40.22 5.44
-14 2 -5 92.23 7.17
-14 2 -6 49.17 5.82
-14 2 -7 16.43 4.44
14 -2 7 14.77 2.24
-14 -2 -8 1.22 5.92
-14 2 -8 7.24 4.27
-14 -2 -9 10.96 6.54
-14 2 -9 1.04 4.29
-14 -2 -10 3.46 6.27
-14 2 -10 8.11 4.48
-14 -3 14 69.88 6.93
-14 -3 14 75.03 5.6
-14 3 14 62.73 5.19
-14 -3 13 42.65 6.05
-14 3 13 34.26 4.1
-14 -3 13 36.36 4.36
-14 -3 12 0.9 4.57
-14 -3 12 3.66 3.17
-14 3 12 -2.48 3.02
-14 -3 11 43.4 4.66
-14 3 11 43.09 4.46
-14 -3 11 49.71 6.31
-14 -3 10 29.52 5.8
-14 3 10 29.52 4.1
-14 -3 10 37.06 4.51
-14 -3 9 59.1 6.67
-14 -3 9 50.12 4.95
-14 3 9 41.06 4.53
-14 -3 8 7.43 4.9
-14 -3 8 4.25 3.51
-14 3 8 3.16 3.15
-14 -3 7 114.15 8.8
-14 -3 7 121.91 7.41
-14 3 7 114.15 7.07
-14 -3 6 29.3 5.86
-14 -3 6 18.86 4.19
-14 3 6 18.78 3.88
-14 -3 5 17.26 5.32
-14 -3 5 12.91 4.02
-14 3 5 6.16 3.48
-14 -3 4 -0.66 4.94
-14 -3 4 -5.04 3.94
-14 3 4 -7.5 3.73
-14 -3 3 -1.43 3.84
-14 3 3 -2.02 3.64
-14 -3 2 42.09 6.62
-14 -3 1 19.06 5.75
-14 -3 0 2.46 5.27
-14 -3 -1 144.77 10.19
-14 -3 -2 30.14 6.28
-14 -3 -3 11.27 5.78
-14 -3 -4 13.37 5.99
-14 -3 -5 1.98 5.87
-15 0 20 86.79 6.7
-15 0 19 1.71 3.62
-15 0 18 0.73 3.53
-15 0 17 -4.19 3.64
-15 0 16 172.71 9.55
-15 0 15 -3.53 3.74
-15 0 14 -2.56 3.71
-15 0 13 -6.98 4.16
-15 0 12 5.23 3.91
-15 0 11 -1.86 4.01
-15 0 10 15.74 4.53
-15 0 9 0.28 4.24
-15 0 9 0.28 3.93
-15 0 8 324.7 15.34
-15 0 8 339.14 15.28
-15 0 7 2.94 4.5
-15 0 7 -0.28 4.24
-15 0 6 10.33 4.54
-15 0 6 7.94 4.23
-15 0 5 3.83 4.25
-15 0 4 65.18 6.57
-15 0 3 0.31 4.55
-15 0 2 38.93 5.75
-15 0 1 2.48 4.51
-15 0 0 199.04 11.44
-15 0 -1 -1.61 4.59
-15 0 -2 10.18 5.22
-15 0 -3 0.99 4.63
-15 0 -4 -0.66 4.81
-15 0 -5 1.02 4.96
-15 0 -6 31.56 6.26
-15 0 -7 4.25 5.35
-15 0 -8 84.85 8.49
-15 0 -9 1.46 5.67
-15 0 -10 24.02 6.46
-15 -1 19 0.24 3.61
-15 1 19 1.21 3.79
-15 -1 18 7.68 3.76
-15 1 18 0.96 3.44
-15 -1 17 44.15 5.08
-15 1 17 43.72 5.1
-15 -1 16 25.08 4.39
-15 1 16 29.11 4.66
-15 -1 15 60.8 5.67
-15 1 15 58.98 5.55
-15 -1 14 1 3.63
-15 1 14 9.41 3.82
-15 -1 13 7.85 3.93
-15 1 13 6.01 3.84
-15 -1 12 209.68 11.54
-15 -1 12 234.77 11.27
-15 1 12 207.15 10.91
-15 -1 11 26.66 5.16
-15 -1 11 26.07 4.68
-15 1 11 22.76 4.43
-15 -1 10 -0.89 4.13
-15 -1 10 -1.06 4.08
-15 1 10 -2.61 3.99
-15 -1 9 3.92 4.32
-15 -1 9 -4.6 4.13
-15 1 9 -1.07 4.11
-15 -1 8 29.13 5.29
-15 -1 8 27.52 4.94
-15 1 8 24.24 4.88
-15 -1 7 61.41 6.09
-15 1 7 59.45 6.11
-15 -1 6 10.14 4.46
-15 1 6 5.27 4.23
-15 1 5 1.69 4.07
-15 1 4 225.88 11.93
-15 1 3 23.07 5.08
-15 -1 2 18.64 5.58
-15 1 2 26.09 5.28
-15 -1 1 22.35 5.67
-15 1 1 20.48 4.99
-15 -1 0 9.92 5.1
-15 1 0 0.59 4.26
-15 -1 -1 90.43 8.19
-15 1 -1 95.02 7.69
-15 -1 -2 114.78 9.07
-15 1 -2 116.51 8.41
-15 -1 -3 12.74 5.66
-15 1 -3 3.06 4.65
-15 1 -4 137.92 9.28
-15 -1 -4 142.91 10.27
-15 -1 -5 4.01 5.61
-15 1 -5 9 4.74
-15 -1 -6 8.54 5.54
-15 1 -6 7.25 4.73
-15 -1 -7 5.63 5.8
-15 1 -7 7.28 5.07
-15 -1 -8 7.93 5.89
-15 1 -8 -0.32 4.87
-15 1 -9 98.58 8.35
-15 -1 -9 87.5 8.77
-15 -1 -10 62 7.91
-15 1 -10 48.95 6.78
-15 -2 16 58.63 5.45
-15 2 16 57.14 5.37
-15 -2 15 27.47 4.53
-15 2 15 23.62 4.26
-15 -2 14 19.03 4.12
-15 2 14 16.72 3.96
-15 -2 13 75.45 7.09
-15 -2 13 80.04 6.24
-15 2 13 77.55 6.02
-15 -2 12 -2.16 4.62
-15 -2 12 -1.21 3.68
-15 2 12 -3.69 3.5
-15 -2 11 68.75 6.99
-15 -2 11 70.75 6
-15 2 11 57.18 5.49
-15 -2 10 26.42 5.4
-15 -2 10 31.49 4.74
-15 2 10 23.56 4.21
-15 -2 9 6.26 4.87
-15 -2 9 2.78 3.8
-15 2 9 -6.05 3.99
-15 -2 8 16.31 5.13
-15 -2 8 10.87 4.18
-15 2 8 10.55 3.99
-15 -2 7 91.37 7.82
-15 -2 7 90.17 6.95
-15 2 7 81.36 6.54
-15 -2 6 2.27 4.82
-15 -2 6 -1.31 4.11
-15 2 6 2.99 3.71
-15 -2 5 60.13 6.08
-15 -2 5 55.86 6.76
-15 2 5 41.05 5.37
-15 -2 4 7.01 5.15
-15 -2 3 57.04 6.9
-15 -2 2 49.24 6.71
-15 -2 1 1.73 5.04
-15 -2 0 19.8 5.74
-15 2 -1 27.19 5.09
-15 -2 -1 21.92 6.06
-15 2 -2 26.06 5.15
-15 2 -3 14.98 4.69
-15 2 -4 7 4.58
-15 2 -5 68.56 6.73
-15 -2 -6 9.11 5.99
-15 2 -6 3.86 4.29
-15 -3 5 4.76 5.19
-15 -3 5 -0.24 3.82
-15 3 5 -0.91 3.82
-16 0 17 -1.87 3.85
-16 0 16 111.73 7.86
-16 0 15 1.64 4.17
-16 0 14 6.4 4.19
-16 0 13 -0.56 4.08
-16 0 12 63.4 6.32
-16 0 11 1.41 4.14
-16 0 10 21.4 4.8
-16 0 9 -2.97 4.38
-16 0 9 1.17 4.15
-16 0 8 236.91 12.55
-16 0 8 237.48 12.34
-16 0 7 1.87 4.61
-16 0 7 0.3 4.26
-16 0 6 -2.55 4.91
-16 0 6 2.71 4.54
-16 0 5 -4.08 4.57
-16 0 4 209.87 11.91
-16 0 3 1.94 4.76
-16 0 2 62.61 7.04
-16 0 1 -2.33 4.93
-16 0 0 112.87 8.78
-16 0 -1 -1.02 5.16
-16 0 -2 5.12 5.05
-16 0 -3 1.39 5.13
-16 0 -4 -0.71 5.2
-16 0 -5 4.2 5.23
-16 0 -6 51.54 6.99
-16 -1 16 56.39 5.76
-16 1 16 49.57 5.68
-16 -1 15 21.63 4.72
-16 1 15 26.68 4.64
-16 -1 14 -2.72 4.01
-16 1 14 -1.88 3.95
-16 -1 13 14.81 4.46
-16 1 13 20.02 4.62
-16 -1 12 78.03 6.73
-16 1 12 76.44 6.66
-16 -1 11 26.55 5.37
-16 -1 11 24.71 5.01
-16 1 11 29.12 5.08
-16 -1 10 3.48 4.78
-16 -1 10 0.56 4.21
-16 1 10 -9.15 4.49
-16 -1 9 4.53 4.76
-16 -1 9 -3.46 4.56
-16 1 9 -2.53 4.39
-16 -1 8 31.89 5.77
-16 -1 8 31.67 5.22
-16 1 8 37.75 5.51
-16 -1 7 3.48 4.43
-16 1 7 8.02 4.38
-16 -1 6 15.19 5.01
-16 1 6 22.06 4.97
-16 1 5 6.87 4.59
-16 1 4 163.48 10.14
-16 -1 3 19.88 5.61
-16 1 3 29.86 5.55
-16 -1 2 5.47 4.95
-16 1 2 7.92 5.04
-16 -1 1 7.66 5.24
-16 1 1 13.02 5.21
-16 -1 0 26.8 6.24
-16 1 0 28.35 5.83
-16 1 -1 60.64 6.93
-16 -1 -1 46.11 6.93
-16 -1 -2 53.12 7.17
-16 1 -2 53.69 6.72
-16 -1 -3 25.94 6.33
-16 1 -3 23.57 5.53
-16 1 -4 68.83 7.2
-16 -1 -4 66.98 7.88
-16 -1 -5 23.52 6.46
-16 1 -5 21.22 5.57
-16 -2 11 54.56 5.81
-16 2 11 55.51 5.62
-16 -2 11 56.03 7.01
-16 -2 10 3.32 4.86
-16 -2 10 -2.9 4.32
-16 2 10 -0.25 3.76
-16 -2 9 -4.98 5.05
-16 -2 9 0.54 4.28
-16 2 9 -2.55 4.11
-16 -2 8 18.78 5.45
-16 -2 8 9.01 4.49
-16 2 8 6.21 4.12
-16 -2 7 128.39 9.36
-16 -2 7 121.58 8.36
-16 2 7 117.04 8.06
-16 -2 6 24.37 6.09
-16 -2 6 28.5 5.21
-16 2 6 19.4 4.62
-16 -2 5 8.23 5.25
-16 -2 5 9.68 4.58
-16 2 5 9.57 4.51
-16 -2 4 -2.42 5.01
-16 -2 4 -4.6 4.78
-16 2 4 -5.87 4.67
-16 -2 3 28.53 6.22
-16 -2 2 10.98 5.67
-16 -2 1 3.19 5.22
-16 -2 0 57.93 7.35
-17 0 11 -2.67 4.27
-17 0 10 0.9 4.35
-17 0 9 -0.31 4.4
-17 0 8 33.16 5.64
-17 0 8 39.76 6.1
-17 0 7 3.4 4.92
-17 0 7 -1.32 4.97
-17 0 6 5.37 4.77
-17 0 6 3.68 4.98
-17 0 5 -4.43 5.07
-17 0 4 130.44 9.5
-17 0 3 -3.08 5.15
-17 0 2 -0.69 5.19
-17 0 1 -5.27 5.15
-17 0 0 33.2 6.36
-17 -1 9 -3.92 4.57
-17 1 9 -4.12 4.67
-17 -1 9 -0.68 4.85
-17 -1 8 19.11 5.02
-17 1 8 29.91 5.32
-17 -1 8 17.58 5.68
-17 -1 7 22.72 5.27
-17 1 7 15.27 4.94
-17 -1 6 16.99 5.06
-17 1 6 16.8 5.03
-17 -1 5 0.94 4.69
-17 1 5 1.24 4.71
-17 1 4 30.17 5.75
-17 -1 3 27.63 6.41
-17 1 3 28.84 5.89
loop_
_exptl_oxdiff_crystal_face_indexfrac_h
_exptl_oxdiff_crystal_face_indexfrac_k
_exptl_oxdiff_crystal_face_indexfrac_l
_exptl_oxdiff_crystal_face_x
_exptl_oxdiff_crystal_face_y
_exptl_oxdiff_crystal_face_z
-1.0000 -2.0000 -0.0000 0.1596 -0.2112 0.1447
1.0000 2.0000 1.0000 -0.1566 0.2293 -0.1233
1.0000 -0.0000 -2.0000 0.0327 -0.0068 -0.0609
1.0000 0.0000 0.0000 0.0386 0.0294 -0.0182
-1.0000 -0.0000 -0.0000 -0.0386 -0.0294 0.0182
-1.0000 0.0000 2.0000 -0.0327 0.0068 0.0609
