#------------------------------------------------------------------------------
#$Date: 2022-04-08 01:35:06 +0300 (Fri, 08 Apr 2022) $
#$Revision: 274417 $
#$URL: file:///home/coder/svn-repositories/cod/cif/7/24/47/7244726.cif $
#------------------------------------------------------------------------------
#
# This file is available in the Crystallography Open Database (COD),
# http://www.crystallography.net/
#
# All data on this site have been placed in the public domain by the
# contributors.
#
data_7244726
loop_
_publ_author_name
'Wang, Zhi-Wen'
'Zhu, Zi-Yi'
'Li, Shangda'
'Wang, Fei'
_publ_section_title
;
 Design Syntheses of Metal-Organic Layer with Rich N-sites for CO2
 Chemical Fixation
;
_journal_name_full               CrystEngComm
_journal_paper_doi               10.1039/D2CE00088A
_journal_year                    2022
_chemical_absolute_configuration rm
_chemical_formula_moiety         'C42 H32 Cd3 N4 O14, 2(C H4 O)'
_chemical_formula_sum            'C43 H40 Cd3 N4 O16'
_chemical_formula_weight         1205.99
_space_group_crystal_system      orthorhombic
_space_group_IT_number           19
_space_group_name_Hall           'P 2ac 2ab'
_space_group_name_H-M_alt        'P 21 21 21'
_atom_sites_solution_hydrogens   mixed
_atom_sites_solution_primary     iterative
_audit_creation_date             2021-11-24
_audit_creation_method
;
Olex2 1.2
(compiled 2018.05.29 svn.r3508 for OlexSys, GUI svn.r5506)
;
_audit_update_record
;
2021-11-24 deposited with the CCDC.	2022-04-07 downloaded from the CCDC.
;
_cell_angle_alpha                90
_cell_angle_beta                 90
_cell_angle_gamma                90
_cell_formula_units_Z            4
_cell_length_a                   11.52880(10)
_cell_length_b                   15.09090(10)
_cell_length_c                   26.5164(2)
_cell_measurement_reflns_used    18610
_cell_measurement_temperature    293(2)
_cell_measurement_theta_max      60.5140
_cell_measurement_theta_min      2.5190
_cell_volume                     4613.32(6)
_computing_cell_refinement       'CrysAlisPro 1.171.41.93a (Rigaku OD, 2020)'
_computing_data_collection       'CrysAlisPro 1.171.41.93a (Rigaku OD, 2020)'
_computing_data_reduction        'CrysAlisPro 1.171.41.93a (Rigaku OD, 2020)'
_computing_molecular_graphics    'Olex2 (Dolomanov et al., 2009)'
_computing_publication_material  'Olex2 (Dolomanov et al., 2009)'
_computing_structure_refinement  'ShelXL (Sheldrick, 2015)'
_computing_structure_solution    'olex2.solve (Bourhis et al., 2015)'
_diffrn_ambient_temperature      293(2)
_diffrn_detector                 'Hybrid Pixel Array Detector'
_diffrn_detector_area_resol_mean 10.0000
_diffrn_detector_type            HyPix
_diffrn_measured_fraction_theta_full 0.999
_diffrn_measured_fraction_theta_max 0.975
_diffrn_measurement_details
;
List of Runs (angles in degrees, time in seconds):

  # Type    Start    End  Width  t~exp~   \w     \q     \k     \f   Frames
#--------------------------------------------------------------------------
  1  \w     86.00 111.00   0.50    0.05    --   73.42-125.00 -90.00   50
  2  \w     14.00  40.00   0.50    0.05    --   -0.78  38.00-180.00   52
  3  \w     37.00  87.00   0.50    0.05    --   73.42 -19.00  26.00  100
  4  \w   -103.00 -40.00   0.50    0.05    --  -74.98 171.00  69.00  126
  5  \w   -137.00-111.00   0.50    0.05    --  -74.98 171.00  69.00   52
  6  \w    -88.00 -25.00   0.50    0.05    --  -74.98  57.00 -30.00  126
  7  \w    -67.00 -10.00   0.50    0.05    --  -74.98  38.00 -30.00  114
  8  \w    -66.00   5.00   0.50    0.05    --   -0.78 -38.00-120.00  142
  9  \w   -144.00 -86.00   0.50    0.05    --  -74.98-113.00 -70.00  116
;
_diffrn_measurement_device       'four-circle diffractometer'
_diffrn_measurement_device_type  'ROD, Synergy Custom system, HyPix'
_diffrn_measurement_method       '\w scans'
_diffrn_orient_matrix_type
'CrysAlisPro convention (1999,Acta A55,543-557)'
_diffrn_orient_matrix_UB_11      0.1033311000
_diffrn_orient_matrix_UB_12      0.0070949000
_diffrn_orient_matrix_UB_13      -0.0227245000
_diffrn_orient_matrix_UB_21      -0.0490643000
_diffrn_orient_matrix_UB_22      -0.0210482000
_diffrn_orient_matrix_UB_23      -0.0441605000
_diffrn_orient_matrix_UB_31      -0.0203841000
_diffrn_orient_matrix_UB_32      0.0859622000
_diffrn_orient_matrix_UB_33      -0.0089656000
_diffrn_radiation_monochromator  mirror
_diffrn_radiation_probe          x-ray
_diffrn_radiation_type           GaK\a
_diffrn_radiation_wavelength     1.3405
_diffrn_reflns_av_R_equivalents  0.0365
_diffrn_reflns_av_unetI/netI     0.0389
_diffrn_reflns_Laue_measured_fraction_full 0.999
_diffrn_reflns_Laue_measured_fraction_max 0.975
_diffrn_reflns_limit_h_max       13
_diffrn_reflns_limit_h_min       -14
_diffrn_reflns_limit_k_max       19
_diffrn_reflns_limit_k_min       -10
_diffrn_reflns_limit_l_max       29
_diffrn_reflns_limit_l_min       -34
_diffrn_reflns_number            19974
_diffrn_reflns_point_group_measured_fraction_full 0.941
_diffrn_reflns_point_group_measured_fraction_max 0.888
_diffrn_reflns_theta_full        53.543
_diffrn_reflns_theta_max         60.566
_diffrn_reflns_theta_min         2.898
_diffrn_source                   'micro-focus metaljet'
_exptl_absorpt_coefficient_mu    7.903
_exptl_absorpt_correction_T_max  1.00000
_exptl_absorpt_correction_T_min  0.38457
_exptl_absorpt_correction_type   multi-scan
_exptl_absorpt_process_details
;
CrysAlisPro 1.171.41.93a (Rigaku Oxford Diffraction, 2020)
Empirical absorption correction using spherical harmonics,
implemented in SCALE3 ABSPACK scaling algorithm.
;
_exptl_crystal_colour            colourless
_exptl_crystal_colour_primary    colourless
_exptl_crystal_density_diffrn    1.736
_exptl_crystal_description       block
_exptl_crystal_F_000             2392
_exptl_crystal_size_max          0.3
_exptl_crystal_size_mid          0.2
_exptl_crystal_size_min          0.2
_refine_diff_density_max         1.672
_refine_diff_density_min         -2.329
_refine_diff_density_rms         0.197
_refine_ls_abs_structure_details
;
 Flack x determined using 3391 quotients [(I+)-(I-)]/[(I+)+(I-)]
 (Parsons, Flack and Wagner, Acta Cryst. B69 (2013) 249-259).
;
_refine_ls_abs_structure_Flack   0.008(8)
_refine_ls_extinction_method     none
_refine_ls_goodness_of_fit_ref   1.068
_refine_ls_hydrogen_treatment    mixed
_refine_ls_matrix_type           full
_refine_ls_number_parameters     616
_refine_ls_number_reflns         9425
_refine_ls_number_restraints     14
_refine_ls_restrained_S_all      1.069
_refine_ls_R_factor_all          0.0456
_refine_ls_R_factor_gt           0.0444
_refine_ls_shift/su_max          0.001
_refine_ls_shift/su_mean         0.000
_refine_ls_structure_factor_coef Fsqd
_refine_ls_weighting_details
'w=1/[\s^2^(Fo^2^)+(0.0882P)^2^+1.1190P] where P=(Fo^2^+2Fc^2^)/3'
_refine_ls_weighting_scheme      calc
_refine_ls_wR_factor_gt          0.1202
_refine_ls_wR_factor_ref         0.1213
_reflns_Friedel_coverage         0.647
_reflns_Friedel_fraction_full    0.868
_reflns_Friedel_fraction_max     0.781
_reflns_number_gt                9083
_reflns_number_total             9425
_reflns_threshold_expression     'I > 2\s(I)'
_cod_data_source_file            d2ce00088a2.cif
_cod_data_source_block           l-oh-bim+bdc+cd-da_autored
_cod_database_code               7244726
_shelx_shelxl_version_number     2017/1
_chemical_oxdiff_formula         'Cd C H O N'
_shelx_space_group_comment
;
The symmetry employed for this shelxl refinement is uniquely defined
by the following loop, which should always be used as a source of
symmetry information in preference to the above space-group names.
They are only intended as comments.
;
_diffrn_oxdiff_digest_frames
;
01fe337b3844d9dd3fabcd438d7c880680008784711
;
_diffrn_oxdiff_digest_hkl
;
01e9824275376a5ebe712856660820b8060afa
;
_reflns_odcompleteness_completeness 99.83
_reflns_odcompleteness_iscentric 1
_reflns_odcompleteness_theta     56.82
_olex2_refinement_description
;
1. Fixed Uiso
 At 1.2 times of:
  All C(H) groups, All N(H) groups
 At 1.5 times of:
  All C(H,H,H) groups, All O(H) groups
2. Restrained distances
 O00F-H00F
 0.85 with sigma of 0.01
 O00K-H00K
 0.85 with sigma of 0.01
 C01V-O01F
 1.37 with sigma of 0.002
 C014-H00F
 1.876694 with sigma of 0.02
 Cd03-H00F
 3.137199 with sigma of 0.02
 C019-H00K
 1.900735 with sigma of 0.02
 Cd02-H00K
 3.201457 with sigma of 0.02
3. Rigid bond restraints
 O01F, C01V
 with sigma for 1-2 distances of 0.01 and sigma for 1-3 distances of 0.01
4. Uiso/Uaniso restraints and constraints
O01F \\sim C01V: within 1.7A with sigma of 0.04 and sigma for terminal atoms of
0.08
5.a Ternary CH refined with riding coordinates:
 C014(H014), C019(H019)
5.b Aromatic/amide H refined with riding coordinates:
 N00E(H00E), C00R(H00R), C00T(H00T), C00U(H00U), C00W(H00W), C00X(H00X),
 C011(H011), N017(H017), C018(H018), C01A(H01A), C01D(H01D), C01E(H01E),
 C01H(H01H), C01I(H01I), C01J(H01J), C01K(H01K), C01M(H01M), C01N(H01N),
 C01O(H01O), C01P(H01P), C01Q(H01Q), C01R(H01R)
5.c Idealised Me refined as rotating group:
 C01L(H01B,H01C,H01F), C01S(H01U,H01V,H01W), C01U(H01G,H01L,H01S), C01V(H01Y,H,
 HA)
5.d Idealised tetrahedral OH refined as rotating group:
 O01B(H01T), O01F(H01X)
;
_shelx_res_file
;
TITL l-oh-bim+bdc+cd-da_autored_a.res in P2(1)2(1)2(1)
    l-oh-bim+bdc+cd-da_autored.res
    created by SHELXL-2017/1 at 10:33:32 on 24-Nov-2021
REM Old TITL L-OH-bim+BDC+Cd-da_autored in P212121 #19
REM SHELXT solution in P2(1)2(1)2(1): R1 0.109, Rweak 0.011, Alpha 0.064
REM <I/s> 3.131 for 32 systematic absences, Orientation as input
REM Flack x = 0.119 ( 0.007 ) from 3313 Parsons' quotients
REM Formula found by SHELXT: C43 N6 O15 Cd3
CELL 1.3405 11.5288 15.0909 26.5164 90 90 90
ZERR 4 0.0001 0.0001 0.0002 0 0 0
LATT -1
SYMM 0.5-X,-Y,0.5+Z
SYMM -X,0.5+Y,0.5-Z
SYMM 0.5+X,0.5-Y,-Z
SFAC C H Cd N O
DISP C 0.0147 0.007 57.608
DISP Cd 0.1141 3.726 27762.4847
DISP H -0 0 0.6481
DISP N 0.0253 0.0135 110.2408
DISP O 0.0412 0.025 193.4765
UNIT 172 160 12 16 64
DFIX 0.85 0.01 O00F H00F
DFIX 0.85 0.01 O00K H00K
DFIX 1.37 0.002 C01V O01F
DANG 1.876694 0.02 C014 H00F
DANG 3.137199 0.02 Cd03 H00F
DANG 1.900735 0.02 C019 H00K
DANG 3.201457 0.02 Cd02 H00K
DELU O01F C01V
SIMU 0.04 0.08 1.7 O01F C01V

L.S. 20 0 0
PLAN  20
BOND
list 4
fmap 2 53
acta
REM <olex2.extras>
REM <HklSrc "%.\\L-OH-bim+BDC+Cd-da_autored.hkl">
REM </olex2.extras>

WGHT    0.088200    1.119000
FVAR       0.23808
CD01  3    0.007697    0.500178    0.498362    11.00000    0.00881    0.02914 =
         0.00838   -0.00467   -0.00032   -0.00256
CD02  3    0.908780    0.532661    0.626945    11.00000    0.01522    0.02796 =
         0.01173   -0.00295    0.00159   -0.00131
CD03  3    0.105174    0.467441    0.369953    11.00000    0.01457    0.02917 =
         0.01160   -0.00454    0.00224   -0.00080
O004  5   -0.477251    0.061908    0.419644    11.00000    0.02402    0.03667 =
         0.01304   -0.00280    0.00381   -0.00518
O005  5   -0.384403    0.011290    0.353294    11.00000    0.04465    0.04460 =
         0.02329   -0.02083    0.01226   -0.01603
O006  5    0.052660    0.633678    0.532534    11.00000    0.05588    0.03989 =
         0.03923   -0.01606    0.00080   -0.02493
O007  5   -0.024016    0.666367    0.607224    11.00000    0.02664    0.02738 =
         0.04497   -0.00008    0.00803   -0.00627
C008  1    0.399040    0.941878    0.610267    11.00000    0.02345    0.03325 =
         0.01436   -0.00074    0.00182   -0.01395
O009  5    0.492599    0.940226    0.583837    11.00000    0.01666    0.03579 =
         0.01314   -0.00147   -0.00057   -0.01165
O00A  5    0.040580    0.331516    0.389264    11.00000    0.02985    0.03310 =
         0.03832   -0.00069    0.00408   -0.00406
C00B  1   -0.118189    0.248062    0.418720    11.00000    0.02596    0.03031 =
         0.02010   -0.00090    0.00081   -0.00816
O00C  5    0.263570    0.456578    0.414383    11.00000    0.02362    0.08250 =
         0.04480   -0.00101   -0.01580   -0.00335
O00D  5    0.821377    0.503671    0.507419    11.00000    0.00903    0.10494 =
         0.04836    0.01744   -0.00266    0.00328
N00E  4    0.761124    0.553354    0.774922    11.00000    0.04097    0.05135 =
         0.01965    0.00589    0.01588    0.00654
AFIX  43
H00E  2    0.711194    0.531732    0.795639    11.00000   -1.20000
AFIX   0
O00F  5    0.217561    0.583600    0.326024    11.00000    0.04902    0.04031 =
         0.04382   -0.01412    0.02108   -0.01950
H00F  2    0.249713    0.631122    0.337036    11.00000   -1.50000
O00G  5    0.750032    0.535611    0.582838    11.00000    0.02000    0.07509 =
         0.04361   -0.01189   -0.01588   -0.00018
N00H  4    0.127884    0.439264    0.288444    11.00000    0.03109    0.03195 =
         0.01185    0.00158    0.00364   -0.00563
N00I  4    0.858920    0.573070    0.704621    11.00000    0.02890    0.04050 =
         0.01361   -0.00230    0.00769   -0.00311
O00J  5    0.389521    0.993449    0.646688    11.00000    0.03861    0.06311 =
         0.02070   -0.02171    0.01355   -0.02652
O00K  5    0.801281    0.412018    0.670533    11.00000    0.04740    0.03624 =
         0.04125   -0.00480    0.01632   -0.01752
H00K  2    0.772098    0.362291    0.660501    11.00000   -1.50000
O00L  5    0.193846    0.495270    0.489060    11.00000    0.01339    0.08617 =
         0.05777    0.00509   -0.00020    0.00181
C00M  1    0.305268    0.877493    0.597537    11.00000    0.02143    0.03117 =
         0.01314   -0.00510    0.00052   -0.00906
O00N  5   -0.032111    0.365170    0.464263    11.00000    0.05460    0.04729 =
         0.04083   -0.02142    0.00445   -0.02234
C00O  1    0.838082    0.622322    0.784480    11.00000    0.04555    0.04766 =
         0.02410   -0.00899    0.00767    0.00708
C00P  1    0.396213    0.487814    0.479803    11.00000    0.01101    0.04710 =
         0.02646    0.00724   -0.00711   -0.00434
C00Q  1    0.779156    0.527434    0.728177    11.00000    0.02860    0.04193 =
         0.01438    0.00505    0.00578    0.00129
C00R  1   -0.305227    0.186425    0.439968    11.00000    0.02834    0.03897 =
         0.01814   -0.00654    0.00510   -0.01048
AFIX  43
H00R  2   -0.371875    0.187163    0.459722    11.00000   -1.20000
AFIX   0
C00S  1    0.048296    0.678079    0.571300    11.00000    0.01983    0.02741 =
         0.02929    0.00189   -0.00501   -0.00845
C00T  1    0.116619    0.818471    0.614292    11.00000    0.02675    0.03429 =
         0.03955   -0.01531    0.01874   -0.00943
AFIX  43
H00T  2    0.047057    0.820597    0.632010    11.00000   -1.20000
AFIX   0
C00U  1   -0.217764    0.249009    0.447689    11.00000    0.03314    0.03550 =
         0.02135   -0.01048    0.00629   -0.01315
AFIX  43
H00U  2   -0.226667    0.291814    0.472622    11.00000   -1.20000
AFIX   0
C00V  1    0.274902    0.478773    0.458692    11.00000    0.01225    0.04784 =
         0.03190    0.01361   -0.00680   -0.00163
C00W  1    0.323130    0.812133    0.561638    11.00000    0.02714    0.03772 =
         0.01526   -0.00470    0.00642   -0.00288
AFIX  43
H00W  2    0.392474    0.810618    0.543739    11.00000   -1.20000
AFIX   0
C00X  1    0.413854    0.522506    0.527034    11.00000    0.01176    0.07056 =
         0.03615   -0.00365    0.00128    0.00378
AFIX  43
H00X  2    0.350529    0.539750    0.546418    11.00000   -1.20000
AFIX   0
C00Y  1   -0.030662    0.321203    0.425618    11.00000    0.02216    0.02658 =
         0.02743   -0.00243   -0.00561   -0.00333
C00Z  1    0.079386    0.377549    0.254941    11.00000    0.03143    0.03822 =
         0.01849   -0.00749   -0.00199    0.00437
C010  1    0.740341    0.516885    0.537419    11.00000    0.00868    0.03264 =
         0.03932    0.00614   -0.00585   -0.00095
C011  1    0.200058    0.881282    0.623117    11.00000    0.02621    0.03564 =
         0.03330   -0.01897    0.01049   -0.01018
AFIX  43
H011  2    0.186321    0.926450    0.646217    11.00000   -1.20000
AFIX   0
C012  1   -0.389333    0.062574    0.391606    11.00000    0.02505    0.03092 =
         0.01503   -0.00231    0.00131   -0.00337
C013  1    0.619268    0.507571    0.517488    11.00000    0.00854    0.05081 =
         0.02441    0.00474   -0.00428    0.00207
C014  1    0.281376    0.554389    0.284085    11.00000    0.03929    0.03889 =
         0.03092   -0.00014    0.00922   -0.00981
AFIX  13
H014  2    0.284016    0.602082    0.259027    11.00000   -1.20000
AFIX   0
C015  1    0.899401    0.633108    0.739829    11.00000    0.04256    0.04147 =
         0.01699   -0.00545    0.00090    0.00420
C016  1   -0.291586    0.123432    0.402657    11.00000    0.02450    0.02841 =
         0.01614   -0.00056    0.00315   -0.00743
N017  4    0.222992    0.446614    0.215825    11.00000    0.04146    0.04838 =
         0.00990    0.00425    0.00568   -0.00048
AFIX  43
H017  2    0.273196    0.463065    0.193739    11.00000   -1.20000
AFIX   0
C018  1    0.239440    0.749688    0.552286    11.00000    0.03185    0.03419 =
         0.01512   -0.00702    0.00798   -0.00593
AFIX  43
H018  2    0.252265    0.706132    0.528109    11.00000   -1.20000
AFIX   0
C019  1    0.715215    0.452757    0.702924    11.00000    0.03344    0.06202 =
         0.04094    0.00171    0.01934   -0.01491
AFIX  13
H019  2    0.653573    0.477747    0.681820    11.00000   -1.20000
AFIX   0
C01A  1    0.524698    0.532081    0.546085    11.00000    0.02005    0.07721 =
         0.02446   -0.01036   -0.00005    0.00096
AFIX  43
H01A  2    0.535534    0.555113    0.578273    11.00000   -1.20000
AFIX   0

O01B  5    0.291535    0.721574    0.374468    11.00000    0.07891    0.07035 =
         0.06649   -0.03187    0.01398   -0.03685
AFIX 147
H01T  2    0.355608    0.745071    0.375664    11.00000   -1.50000
AFIX   0

C01C  1    0.211322    0.479343    0.263277    11.00000    0.03133    0.03625 =
         0.01289    0.00444    0.01093    0.00747
C01D  1    0.488537    0.461521    0.451066    11.00000    0.01561    0.07819 =
         0.01968   -0.00324   -0.00921    0.00210
AFIX  43
H01D  2    0.475888    0.437282    0.419292    11.00000   -1.20000
AFIX   0
C01E  1   -0.192011    0.122017    0.374298    11.00000    0.02981    0.04029 =
         0.04380   -0.02358    0.01617   -0.01384
AFIX  43
H01E  2   -0.182819    0.078994    0.349508    11.00000   -1.20000
AFIX   0

O01F  5    0.228174    0.221255    0.379601    11.00000    0.11478    0.12896 =
         0.12900   -0.07702   -0.04264    0.07745
AFIX 147
H01X  2    0.170292    0.252815    0.380197    11.00000   -1.50000
AFIX   0

C01G  1    0.139008    0.381788    0.209585    11.00000    0.03893    0.05034 =
         0.01929    0.00324    0.00129    0.00641
C01H  1    0.107319    0.329986    0.168526    11.00000    0.07077    0.08138 =
         0.02084   -0.01682    0.00099    0.01156
AFIX  43
H01H  2    0.147352    0.332666    0.138115    11.00000   -1.20000
AFIX   0
C01I  1   -0.014632    0.321394    0.261463    11.00000    0.03656    0.04518 =
         0.03592   -0.01204   -0.00031   -0.00544
AFIX  43
H01I  2   -0.053775    0.317307    0.292041    11.00000   -1.20000
AFIX   0
C01J  1   -0.047103    0.271446    0.219590    11.00000    0.04755    0.06203 =
         0.04956   -0.01365   -0.01544    0.00095
AFIX  43
H01J  2   -0.111811    0.234829    0.221663    11.00000   -1.20000
AFIX   0
C01K  1    0.602804    0.470931    0.469310    11.00000    0.01212    0.06943 =
         0.02598   -0.00910    0.00039    0.00074
AFIX  43
H01K  2    0.665851    0.453271    0.449876    11.00000   -1.20000
AFIX   0
C01L  1    0.403463    0.527848    0.297139    11.00000    0.03386    0.08580 =
         0.08369   -0.03357   -0.00167   -0.00602
AFIX 137
H01B  2    0.441783    0.576256    0.313697    11.00000   -1.50000
H01C  2    0.444689    0.512919    0.266853    11.00000   -1.50000
H01F  2    0.401857    0.477426    0.319202    11.00000   -1.50000
AFIX   0
C01M  1   -0.104661    0.184089    0.382150    11.00000    0.02537    0.04435 =
         0.04746   -0.01867    0.01526   -0.01577
AFIX  43
H01M  2   -0.037430    0.182397    0.362791    11.00000   -1.20000
AFIX   0
C01N  1    0.862465    0.672754    0.827914    11.00000    0.07807    0.08281 =
         0.02455   -0.02297    0.00938    0.01277
AFIX  43
H01N  2    0.822370    0.665021    0.858027    11.00000   -1.20000
AFIX   0
C01O  1    0.987310    0.697030    0.736699    11.00000    0.05957    0.05602 =
         0.03633   -0.01206    0.00859   -0.01956
AFIX  43
H01O  2    1.028815    0.705230    0.706990    11.00000   -1.20000
AFIX   0
C01P  1    0.949699    0.734217    0.822670    11.00000    0.08833    0.09823 =
         0.04877   -0.05044    0.00455   -0.01449
AFIX  43
H01P  2    0.968918    0.769102    0.850348    11.00000   -1.20000
AFIX   0
C01Q  1    1.010186    0.746612    0.778206    11.00000    0.07430    0.07919 =
         0.06189   -0.03617    0.00044   -0.02486
AFIX  43
H01Q  2    1.067666    0.789771    0.776718    11.00000   -1.20000
AFIX   0
C01R  1    0.014981    0.275221    0.174979    11.00000    0.08350    0.08556 =
         0.03994   -0.03373   -0.02126   -0.00405
AFIX  43
H01R  2   -0.007374    0.238857    0.148383    11.00000   -1.20000
AFIX   0

C01S  1    0.244430    0.721909    0.419893    11.00000    0.13913    0.07544 =
         0.05927   -0.00765    0.00564   -0.05768
AFIX 137
H01U  2    0.177152    0.684425    0.420033    11.00000   -1.50000
H01V  2    0.222218    0.781263    0.428635    11.00000   -1.50000
H01W  2    0.299694    0.700283    0.444016    11.00000   -1.50000
AFIX   0

C01T  1    0.135040    0.751302    0.578949    11.00000    0.02418    0.02355 =
         0.01732   -0.00354    0.00315   -0.01076
C01U  1    0.662894    0.387705    0.738448    11.00000    0.13045    0.09531 =
         0.06878   -0.00162    0.04711   -0.06707
AFIX 137
H01G  2    0.631364    0.338841    0.719754    11.00000   -1.50000
H01L  2    0.602162    0.415889    0.757322    11.00000   -1.50000
H01S  2    0.721405    0.366423    0.761182    11.00000   -1.50000
AFIX   0

C01V  1    0.284571    0.226940    0.424894    11.00000    0.26351    0.12254 =
         0.07991   -0.02890   -0.05815    0.10333
AFIX 137
H01Y  2    0.357607    0.256388    0.420256    11.00000   -1.50000
H     2    0.297713    0.168447    0.437928    11.00000   -1.50000
HA    2    0.237958    0.259973    0.448272    11.00000   -1.50000
AFIX   0
HKLF 4




REM  l-oh-bim+bdc+cd-da_autored_a.res in P2(1)2(1)2(1)
REM R1 =  0.0444 for    9083 Fo > 4sig(Fo)  and  0.0456 for all    9425 data
REM    616 parameters refined using     14 restraints

END

WGHT      0.0883      1.1008

REM Highest difference peak  1.672,  deepest hole -2.329,  1-sigma level  0.197
Q1    1  -0.0404  0.5029  0.4585  11.00000  0.05    1.67
Q2    1   0.0585  0.5015  0.4591  11.00000  0.05    1.60
Q3    1   0.9615  0.5344  0.6631  11.00000  0.05    1.51
Q4    1  -0.4847  0.0441  0.4571  11.00000  0.05    1.49
Q5    1   0.0559  0.4959  0.5403  11.00000  0.05    1.32
Q6    1   0.8540  0.5354  0.6631  11.00000  0.05    1.30
Q7    1   0.5034  0.9552  0.5440  11.00000  0.05    1.28
Q8    1  -0.0427  0.4972  0.5403  11.00000  0.05    1.28
Q9    1   0.1568  0.4659  0.3362  11.00000  0.05    1.25
Q10   1   0.0067  0.5450  0.5449  11.00000  0.05    1.21
Q11   1   0.0506  0.4647  0.3353  11.00000  0.05    1.21
Q12   1   0.0976  0.5045  0.4205  11.00000  0.05    1.12
Q13   1   0.9056  0.5819  0.5799  11.00000  0.05    1.11
Q14   1   0.0048  0.4469  0.4572  11.00000  0.05    1.09
Q15   1   0.9186  0.4951  0.5785  11.00000  0.05    1.08
Q16   1   0.1032  0.4259  0.3216  11.00000  0.05    1.04
Q17   1   0.1493  0.4643  0.4045  11.00000  0.05    1.00
Q18   1   0.1021  0.5099  0.3193  11.00000  0.05    0.94
Q19   1   0.0501  0.4669  0.4074  11.00000  0.05    0.93
Q20   1   0.1081  0.4165  0.4177  11.00000  0.05    0.89
;
_shelx_res_checksum              80153
_shelx_hkl_file
;
   0   0   2 1605.15   31.23
   0   0   3    0.53    0.30
   0   0   4 1151.05   23.86
   0   0   5    0.61    0.47
   0   0   6   80.46    3.69
   0   0   7   27.82    2.20
   0   0   8 7529.61  145.74
   0   0   9    4.77    1.18
   0   0  10  709.62   18.72
   0   0  11    1.20    0.86
   0   0  12 1121.55   29.02
   0   0  12 1226.56   26.61
   0   0  13    1.07    1.03
   0   0  13    1.79    0.82
   0   0  14 1939.05   48.00
   0   0  14 2230.27   45.11
   0   0  15    2.07    1.38
   0   0  15    2.33    1.04
   0   0  16 2995.34   73.06
   0   0  16 3604.39   69.69
   0   0  17    1.04    0.97
   0   0  18  143.15    7.20
   0   0  19    1.84    1.19
   0   0  20 1002.65   26.68
   0   0 -21    5.92    3.35
   0   0 -22 2122.30   59.77
   0   0 -23   -0.31    3.71
   0   0 -24 5958.67  136.33
   0   0 -25    0.65    3.58
   0   0 -26    6.41    4.19
   0   0 -27    3.13    3.76
   0   0 -28   33.44    7.03
   0   0 -29    4.92    4.23
   0   0 -30 1097.75   40.03
   0   0 -31    1.87    3.41
   0   0 -32  912.62   34.03
   0   0 -33    2.97    3.45
   0   0 -34    0.48    3.00
   0  -1   0    3.82    0.34
   0  -1  -1    6.86    0.55
   0  -1  -2    8.07    0.73
   0   1   3    5.77    0.74
   0  -1  -3    4.47    0.68
   0  -1  -4    2.40    0.62
   0   1   4    2.68    0.61
   0   1   5    3.84    0.84
   0  -1  -5    3.04    0.78
   0   1   6   12.99    1.48
   0   1   7    3.26    0.90
   0  -1   8   30.62    2.52
   0   1   8   30.40    2.55
   0   1   9    8.79    1.53
   0  -1   9    5.07    1.16
   0   1  10   36.75    3.18
   0  -1  10   35.94    3.06
   0   1  11    5.20    1.41
   0   1  11    6.18    1.18
   0   1  12   23.09    2.78
   0  -1  12   26.14    2.95
   0   1  12   25.83    2.34
   0   1  13    4.68    1.05
   0   1  13    4.79    1.48
   0  -1  13    5.88    1.15
   0   1  13    3.69    1.10
   0   1  14   61.70    5.04
   0  -1  14   58.82    4.90
   0   1  14   68.04    3.84
   0  -1  14   62.17    3.68
   0   1  14   66.70    4.13
   0  -1  15    5.04    1.67
   0   1  15    3.28    1.49
   0   1  15    1.86    1.07
   0  -1  15    2.23    1.01
   0  -1  16   48.06    4.88
   0   1  16   46.58    4.81
   0  -1  16   50.83    3.64
   0   1  16   55.41    3.81
   0   1  16   61.06    4.29
   0   1  17    5.55    1.38
   0   1 -17    1.42    1.84
   0   1  17    1.80    1.14
   0  -1  17    7.52    1.56
   0   1 -18    4.21    2.38
   0   1  18    3.22    1.37
   0  -1  18    4.39    1.36
   0   1 -19    5.16    2.89
   0   1  19    4.88    1.71
   0   1 -20   27.98    5.22
   0   1  20   20.61    3.02
   0   1 -21   18.43    4.69
   0   1  21   14.62    2.77
   0   1 -22   99.52   10.14
   0   1  22   74.58    5.92
   0   1 -23    9.41    4.61
   0  -1 -23    4.54    4.08
   0  -1 -24  327.69   19.69
   0   1 -24  365.09   20.83
   0  -1 -25    9.50    4.91
   0   1 -25    7.55    4.70
   0  -1 -26    2.63    4.11
   0   1 -26    2.17    3.91
   0  -1 -27    5.94    3.97
   0   1 -27   10.69    5.18
   0   1 -28    2.51    3.98
   0  -1 -28    0.66    3.24
   0   1 -29   12.16    4.88
   0  -1 -29    9.70    4.55
   0  -1 -30  117.26   11.81
   0   1 -30  105.59   11.25
   0   1 -31    0.95    3.62
   0  -1 -31    2.79    3.77
   0   1 -32   89.20    9.75
   0  -1 -32   85.75    9.50
   0   1 -33    2.15    3.17
   0  -1 -33    2.09    2.75
   0   1 -34    0.73    3.02
   0  -1 -34    1.21    3.01
   0  -2  -1 1604.12   31.58
   0  -2  -2 1998.05   39.36
   0  -2  -3  308.02    7.93
   0  -2  -4  305.51    8.36
   0  -2  -5  591.33   14.39
   0  -2  -6 5871.87  114.37
   0   2   7   17.02    1.89
   0  -2  -7   29.26    2.51
   0   2   8 8679.98  168.00
   0   2   9 1193.59   27.71
   0   2   9 1316.20   26.55
   0  -2  10 1079.55   25.66
   0   2  10 1063.46   25.98
   0  -2  11  451.17   14.04
   0   2  11  437.72   14.09
   0   2  11  462.14   12.19
   0  -2  12  606.63   17.81
   0   2  12  600.37   18.01
   0   2  12  640.30   16.43
   0   2  12  651.60   15.91
   0   2  13  454.85   15.68
   0  -2  13  451.36   15.24
   0   2 -13  460.82   16.26
   0   2  13  496.31   13.40
   0   2  13  512.24   14.12
   0   2 -14 2686.36   62.44
   0   2  14 2549.32   60.94
   0  -2  14 2598.14   60.63
   0   2  14 2964.05   57.65
   0   2  14 2893.72   58.43
   0   2  15    7.42    1.53
   0   2  15   10.02    2.38
   0  -2  15    6.02    1.85
   0   2 -15    7.99    2.43
   0   2  15    7.72    1.68
   0   2 -16 2230.15   52.10
   0   2  16 2156.99   45.35
   0   2  16 2123.98   46.15
   0   2 -17  166.26   10.43
   0   2  17  151.62    7.05
   0   2  17  141.53    7.33
   0   2 -18   22.98    4.10
   0   2  18   22.60    2.94
   0   2  18   19.81    2.63
   0   2  19    5.42    1.62
   0   2 -19    6.99    2.84
   0   2  19    5.65    1.75
   0   2 -20   46.99    6.47
   0   2  20   39.18    4.13
   0   2 -21  519.34   22.37
   0   2  21  349.82   14.16
   0   2 -22 2553.11   61.36
   0   2  22 1771.55   46.19
   0   2 -23  227.21   16.11
   0   2  23  160.73    9.36
   0   2 -24 3924.33   98.91
   0   2 -25  290.67   19.19
   0  -2 -25  236.06   16.21
   0  -2 -26   13.19    4.76
   0   2 -26   12.65    5.49
   0  -2 -27    7.29    4.23
   0   2 -27    5.45    6.08
   0   2 -28   42.02    7.70
   0  -2 -28   35.79    6.73
   0   2 -29  111.33   11.77
   0  -2 -29  103.99   10.86
   0   2 -30 1145.19   41.52
   0  -2 -30 1117.98   39.86
   0   2 -31    6.09    4.25
   0  -2 -31    4.37    3.99
   0   2 -32 1146.96   40.12
   0  -2 -32 1177.30   39.72
   0  -2 -33  107.34   10.04
   0   2 -33  112.67   10.54
   0  -2 -34    0.47    3.05
   0   2 -34    0.48    2.78
   0  -3   0    3.67    0.60
   0   3   1    2.54    0.55
   0  -3  -1    1.81    0.49
   0   3   2   21.46    1.56
   0  -3  -2   23.50    1.61
   0   3   3    7.60    1.05
   0  -3  -3    7.26    0.99
   0   3   4   43.68    2.68
   0  -3  -4   44.51    2.61
   0  -3  -5   26.56    2.16
   0  -3  -6   78.48    4.09
   0  -3  -7   26.34    2.48
   0   3  -8   14.71    2.12
   0  -3  -8   22.72    2.47
   0   3   8   19.29    1.95
   0  -3  -9   45.83    3.68
   0   3  -9   36.20    3.49
   0   3   9   40.27    2.84
   0   3   9   40.15    2.94
   0   3 -10   41.84    3.85
   0   3  10   45.80    3.06
   0   3  10   43.04    3.16
   0   3 -11   42.10    4.01
   0  -3  11   46.15    3.82
   0   3  11   56.48    3.52
   0   3  11   49.11    3.48
   0  -3  12   36.07    3.48
   0   3 -12   26.42    3.28
   0   3  12   27.78    2.72
   0   3  12   32.39    2.70
   0   3 -13   70.84    5.63
   0  -3  13   71.50    5.16
   0   3  13   71.39    5.42
   0   3  13   71.40    4.25
   0   3  13   73.51    4.57
   0   3  14   87.22    6.29
   0  -3  14   85.19    5.98
   0   3 -14   92.13    6.89
   0   3  14  104.33    5.37
   0   3  14  100.49    5.57
   0   3  15    1.03    0.98
   0  -3  15    1.42    1.16
   0   3 -15    5.99    2.14
   0   3  15    3.27    1.56
   0   3  15    4.91    1.43
   0   3 -16   69.52    6.49
   0  -3  16   62.53    5.53
   0   3  16   66.86    4.86
   0   3  16   65.51    4.48
   0   3  17    1.19    1.00
   0   3 -17    4.10    2.09
   0   3  18    1.27    1.08
   0   3  18    3.01    1.50
   0   3  19   17.59    2.64
   0   3  19   14.05    2.61
   0   3 -20   16.93    4.21
   0   3  20   17.80    2.75
   0   3  20   11.41    2.49
   0   3  21   37.82    4.29
   0   3  21   35.82    3.93
   0   3 -22  152.11   12.54
   0   3  22  101.73    7.35
   0   3 -23    3.45    3.74
   0   3  23    2.31    2.14
   0   3 -24  166.26   14.16
   0   3  24  114.58    8.13
   0   3 -25   38.48    7.43
   0  -3 -26    7.84    4.10
   0   3 -26    6.43    4.11
   0   3 -27   -1.11    3.95
   0  -3 -27    3.80    3.65
   0  -3 -28   21.28    5.64
   0   3 -28   27.51    6.85
   0  -3 -29   42.23    7.38
   0   3 -29   43.10    7.88
   0   3 -30  101.94   11.43
   0  -3 -30   82.87    9.65
   0   3 -31    3.93    3.93
   0  -3 -31    3.88    3.66
   0  -3 -32  102.81   10.57
   0   3 -32   90.05   10.05
   0  -3 -33   45.58    6.87
   0   3 -33   45.26    7.14
   0  -3 -34    2.11    2.84
   0   3 -34    0.23    2.84
   0  -4  -1  628.52   14.85
   0  -4   1  677.67   14.95
   0  -4  -2 4790.53   90.18
   0   4   2 4495.34   89.99
   0   4   3 1899.03   36.25
   0  -4  -3 1956.03   39.35
   0   4   3 1886.95   39.24
   0  -4  -4    9.96    1.35
   0   4   4   10.35    1.42
   0  -4  -5  110.71    4.88
   0   4   5   96.48    4.76
   0   4   6 2721.46   54.61
   0  -4  -6 2837.03   54.52
   0   4   7  668.10   17.51
   0   4   7  632.91   16.11
   0   4  -8 4285.38   86.85
   0   4   8 4219.62   86.01
   0   4   8 4403.50   84.86
   0   4   8 4188.37   84.24
   0   4   9 2307.11   51.28
   0   4   9 2444.47   50.05
   0   4   9 2323.35   49.38
   0   4 -10  255.24   10.73
   0   4  10  257.91   10.38
   0   4  10  270.30    9.20
   0   4  10  272.68    9.49
   0   4 -11 1296.72   33.56
   0   4  11 1250.64   32.66
   0   4  11 1428.43   31.54
   0   4  11 1392.17   30.91
   0  -4  12   61.00    4.65
   0   4 -12   59.17    5.11
   0   4  12   63.85    4.33
   0   4  12   62.20    4.06
   0   4  13 3949.00   76.75
   0   4  13 3801.42   75.66
   0   4 -14 3717.33   79.95
   0   4  14 3740.31   75.60
   0   4  14 3760.08   74.77
   0  -4  15  207.23   10.18
   0   4 -15  229.18   11.85
   0   4  15  239.13    9.74
   0   4  15  237.75    9.34
   0   4 -16 2994.02   67.14
   0   4  16 2946.72   60.55
   0   4  16 2958.12   61.54
   0   4 -17 1061.35   31.74
   0   4  17  976.33   26.45
   0   4  17  980.97   25.74
   0   4 -18   36.43    5.26
   0   4  18   39.21    4.12
   0   4  18   38.07    3.74
   0   4 -19  100.66    8.94
   0   4  19   88.80    5.89
   0   4  19   82.77    6.13
   0   4 -20   69.43    7.73
   0   4  20   63.27    5.13
   0   4  20   56.41    5.18
   0   4  21  894.02   25.32
   0   4  21  816.58   25.49
   0   4  22 1840.21   45.04
   0   4  22 1794.84   46.31
   0   4  23   31.94    3.99
   0   4  23   30.22    4.40
   0   4 -24 1767.98   50.98
   0   4  24 1269.81   36.96
   0   4 -25 1063.28   38.40
   0   4  25  747.41   25.49
   0   4 -26  155.98   14.14
   0   4 -27   40.04    7.71
   0  -4 -28   36.46    6.85
   0   4 -28   28.75    6.77
   0  -4 -29  828.94   33.54
   0   4 -29  883.87   36.09
   0  -4 -30  521.51   24.84
   0   4 -30  552.40   27.09
   0  -4 -31  128.32   11.60
   0   4 -31  130.44   12.22
   0  -4 -32  588.40   25.49
   0   4 -32  576.20   26.06
   0   4 -33  530.05   23.41
   0  -4 -33  573.76   24.46
   0  -5   0    7.27    1.08
   0  -5  -1    7.54    1.12
   0  -5   1    3.39    0.76
   0  -5   2    8.82    1.19
   0  -5  -2    7.36    1.17
   0  -5  -3   11.35    1.48
   0   5   3   10.67    1.43
   0   5  -3    9.66    1.70
   0  -5  -4    6.58    1.22
   0   5  -4    7.71    1.59
   0   5  -5    3.80    1.29
   0  -5  -5    4.77    1.15
   0   5   5    3.94    1.02
   0   5   6    3.28    0.96
   0  -5  -6    4.62    1.20
   0   5  -6    5.68    1.47
   0   5   6    4.22    1.19
   0   5   6    4.17    1.11
   0   5   7   20.01    2.43
   0   5  -7   15.08    2.34
   0  -5  -7   20.77    2.40
   0   5   7   22.34    2.29
   0   5   7   19.24    2.18
   0   5  -8   43.79    3.95
   0  -5  -8   45.20    3.65
   0   5   8   31.75    3.18
   0   5   8   32.17    2.83
   0   5  -9   45.14    4.28
   0  -5  -9   52.13    4.26
   0   5   9   59.19    3.94
   0   5  10    4.72    1.32
   0   5 -10    5.05    1.74
   0   5  10    5.81    1.62
   0   5  10    4.75    1.37
   0   5  11    2.55    1.13
   0   5 -11    0.90    1.12
   0   5  11    1.05    1.00
   0   5  11    0.68    0.99
   0   5  12    4.94    1.38
   0   5  12    3.26    1.37
   0   5 -12    3.19    1.65
   0   5  12    2.18    1.21
   0   5  13   24.38    3.44
   0   5 -13   26.03    3.75
   0  -5  13   23.54    3.04
   0   5  13   25.69    2.98
   0   5  13   25.00    2.82
   0   5 -14   13.86    2.98
   0  -5  14   10.06    2.20
   0   5  14   14.33    2.40
   0   5  14    9.61    1.89
   0   5  15    1.83    1.18
   0   5 -15    4.56    2.04
   0  -5  15    3.49    1.45
   0   5  15    0.86    1.21
   0   5 -16   95.84    8.03
   0  -5  16   84.43    6.40
   0   5  16   95.20    5.94
   0   5  16   92.22    6.14
   0   5 -17   29.45    4.64
   0   5  17   25.41    3.36
   0   5  17   28.08    3.34
   0   5  18    8.49    2.03
   0   5 -18   11.16    3.17
   0   5  18   10.76    2.46
   0   5  19    8.80    2.21
   0   5 -19    5.90    2.87
   0   5  19    5.82    2.11
   0   5  20    0.51    1.26
   0   5 -20    0.51    2.59
   0   5  20    0.57    1.43
   0   5 -21   83.38    9.28
   0   5  21   68.89    6.00
   0   5  21   69.59    5.75
   0   5  22   66.50    5.74
   0   5  22   70.67    6.37
   0   5  23    4.79    2.05
   0   5 -23    2.49    3.74
   0   5  23    1.34    1.89
   0   5  24   20.88    3.53
   0   5 -24   29.12    6.65
   0   5  24   22.92    4.06
   0   5 -25   53.11    8.52
   0   5  25   39.98    5.16
   0   5 -26   23.70    6.15
   0   5  26   19.75    3.91
   0   5 -27   15.23    5.61
   0   5 -28    6.68    4.70
   0   5 -29  100.58   11.48
   0  -5 -29   87.52   10.01
   0   5 -30  124.01   12.33
   0  -5 -30  119.52   11.64
   0  -5 -31    7.65    4.22
   0   5 -31    6.52    4.22
   0   5 -32   57.67    7.79
   0  -5 -32   52.22    7.36
   0   5 -33   45.27    6.57
   0  -5 -33   53.67    7.31
   0  -6   0 4554.64   89.54
   0  -6   1 2556.26   50.55
   0  -6  -1 2749.27   53.64
   0  -6   1 2684.92   53.23
   0   6   1 2600.96   53.70
   0  -6  -2 3659.07   71.03
   0  -6   2 3516.34   70.34
   0   6   2 3426.05   71.00
   0  -6  -3 1148.45   25.78
   0  -6   3 1149.00   25.27
   0   6   3 1076.34   25.07
   0   6   3 1062.88   25.48
   0  -6  -4  522.10   14.05
   0   6   4  487.52   13.92
   0   6  -4  458.99   15.16
   0   6   4  486.41   13.48
   0   6   4  482.60   13.69
   0   6  -5 1290.74   31.02
   0   6   5 1490.42   32.02
   0   6  -5 1395.73   32.61
   0  -6  -5 1428.41   31.58
   0   6   5 1415.90   31.86
   0   6  -5 1235.86   32.64
   0   6   5 1327.34   30.71
   0   6  -6 2351.69   52.29
   0   6   6 2687.77   53.35
   0   6   6 2533.91   47.73
   0  -6  -6 2572.48   53.48
   0   6   6 2445.43   53.32
   0   6  -6 2198.57   54.09
   0   6   6 2472.10   52.44
   0   6  -7  910.59   23.09
   0   6   7 1049.55   24.11
   0   6  -7  872.95   25.06
   0  -6  -7 1039.84   24.80
   0   6   7  942.97   24.57
   0   6   7  920.33   23.33
   0   6   7  950.20   23.46
   0   6  -8 5304.90  111.44
   0   6   8 6268.12  112.89
   0   6  -8 5319.87  114.76
   0  -6  -8 5858.71  113.98
   0   6   8 5625.81  114.11
   0   6   8 5788.08  112.66
   0   6   8 5478.65  112.30
   0   6  -9 1770.47   41.19
   0   6   9 2105.98   42.64
   0   6  -9 1859.20   45.08
   0   6   9 1859.63   44.18
   0  -6  -9 2070.46   44.73
   0   6   9 1911.24   42.48
   0   6 -10  135.80    6.24
   0   6  10  167.77    7.03
   0   6 -10  151.74    8.69
   0  -6 -10  176.87    8.62
   0   6  10  140.05    7.87
   0   6  10  155.76    7.27
   0   6 -11  695.17   19.01
   0   6  11  830.78   20.07
   0   6  11  741.00   22.58
   0  -6 -11  852.92   23.50
   0   6 -11  775.09   23.84
   0   6  11  745.53   20.59
   0   6  12  101.15    5.15
   0   6  12   86.92    6.52
   0   6 -12   91.62    7.15
   0   6  12   89.82    5.78
   0   6  12   93.60    5.67
   0   6 -13 1292.70   34.43
   0   6  13 1238.89   30.20
   0   6  13 1195.76   29.37
   0  -6  14  424.77   15.82
   0   6 -14  545.30   20.24
   0   6  14  483.03   15.65
   0   6  14  591.45   17.32
   0   6 -15  327.55   15.58
   0   6  15  316.43   12.08
   0   6  15  323.77   12.67
   0   6  16 1458.49   36.56
   0   6  16 1422.65   35.73
   0   6  17 1011.23   28.00
   0   6  17  971.17   26.89
   0   6 -18  177.02   12.02
   0   6  18  168.64    9.25
   0   6  18  153.65    8.44
   0   6  19  259.25   11.62
   0   6  19  268.38   12.36
   0   6  20  189.81    9.89
   0   6  20  191.57   10.36
   0   6  21 1787.75   46.31
   0   6  21 1834.70   45.69
   0   6  22  402.93   15.98
   0   6  22  387.68   16.40
   0   6  23    9.62    2.65
   0   6 -23    8.93    4.37
   0   6  23   10.12    3.00
   0   6  24  230.95   12.63
   0   6  24  249.42   12.25
   0   6  25 1044.03   30.38
   0   6  25  962.75   31.09
   0   6 -26  258.71   17.98
   0   6  26  166.37   10.68
   0   6 -27   48.50    8.35
   0   6 -28  134.19   12.99
   0  -6 -29 1235.38   41.92
   0   6 -29 1275.09   44.28
   0  -6 -30  965.52   35.40
   0   6 -30  945.06   36.07
   0  -6 -31   18.52    4.81
   0   6 -31   18.31    5.03
   0  -6 -32  460.71   21.21
   0   6 -32  400.92   20.23
   0   7   0    0.52    0.72
   0  -7   0    0.56    0.69
   0   7  -1    1.23    0.80
   0   7   1    1.69    0.97
   0  -7   1    2.60    0.87
   0   7   1    0.39    0.65
   0   7  -2    1.97    0.83
   0   7   2    2.39    1.01
   0  -7   2    3.92    0.69
   0  -7   2    3.26    0.97
   0   7   2    0.84    0.76
   0   7   3    4.04    1.27
   0   7   3    0.81    0.94
   0   7  -3    2.30    1.19
   0  -7  -3    1.33    0.88
   0  -7   3    3.40    0.99
   0   7   3    0.78    0.81
   0   7   4    8.55    1.78
   0   7  -4    8.06    1.72
   0  -7   4   13.92    1.85
   0  -7  -4    7.79    1.59
   0   7   4    9.79    1.62
   0   7   4    8.15    1.56
   0   7  -5    8.46    1.76
   0   7   5    9.96    1.92
   0   7   5    6.41    1.49
   0   7  -5    7.96    1.90
   0  -7   5    8.52    1.62
   0  -7  -5    6.45    1.56
   0   7   5    7.14    1.60
   0   7   5    6.79    1.44
   0   7  -6   22.07    2.64
   0   7   6   25.16    2.87
   0   7  -6   21.16    2.95
   0   7   6   26.27    3.00
   0   7  -6   20.04    3.02
   0  -7  -6   20.78    2.62
   0   7   6   20.66    2.43
   0   7   7   21.88    2.74
   0   7  -7   19.99    2.51
   0   7   7   19.83    2.76
   0   7  -7   21.38    3.22
   0  -7  -7   21.25    2.75
   0   7   7   20.10    2.53
   0   7   8    8.71    1.94
   0   7  -8    9.35    1.80
   0   7   8    8.02    0.55
   0   7   8    4.46    1.55
   0   7  -8    6.26    2.05
   0   7   8    7.25    1.68
   0   7  -9   32.39    3.14
   0   7   9   34.22    3.35
   0   7   9   31.69    3.67
   0  -7  -9   30.93    3.57
   0   7  -9   35.54    4.11
   0   7   9   33.01    3.41
   0   7   9   31.12    3.26
   0   7  10    7.97    1.73
   0   7  10    1.97    1.22
   0   7 -10    3.11    1.21
   0   7  10    5.80    1.82
   0  -7 -10    2.59    1.40
   0   7 -10    7.14    2.17
   0   7  10    4.04    1.53
   0   7 -11   19.57    2.45
   0   7  11   11.67    2.05
   0   7 -11   14.51    2.94
   0   7  11   10.28    2.39
   0  -7 -11   16.92    2.95
   0   7  11   11.45    2.17
   0   7 -12    6.25    1.51
   0   7  12    4.15    1.36
   0   7  12    6.06    1.80
   0   7 -12    5.71    2.22
   0   7  13    7.98    1.90
   0   7  13    8.41    1.71
   0   7 -13    7.17    2.36
   0   7  14    2.14    1.33
   0   7 -14    4.06    2.25
   0   7  14    3.30    1.69
   0   7 -15   29.69    4.74
   0   7  15   24.94    3.50
   0   7  15   24.83    3.30
   0   7 -16   25.97    4.84
   0   7  16   24.01    3.58
   0   7  16   22.06    3.18
   0   7 -17   46.66    6.33
   0   7  17   40.53    4.57
   0   7  17   42.56    4.45
   0   7 -18   14.64    4.22
   0   7  18   14.22    2.73
   0   7  18    5.96    2.43
   0   7 -19   22.30    4.99
   0   7  19   18.03    3.49
   0   7  19   20.70    3.34
   0   7  20   11.33    2.73
   0   7 -20   13.86    4.51
   0   7  20   12.33    3.19
   0   7  21   68.64    6.43
   0   7  21   83.24    6.64
   0   7 -22   50.25    7.51
   0   7  22   45.12    5.12
   0   7  22   44.44    5.36
   0   7  23    1.15    1.85
   0   7 -23    1.91    3.30
   0   7  23    2.17    2.03
   0   7  24    8.95    2.73
   0   7 -24   16.42    5.03
   0   7  24    7.78    2.76
   0   7  25   29.27    4.35
   0   7  25   27.43    4.43
   0   7  26   19.05    3.54
   0   7  26   18.73    3.77
   0   7 -27   10.30    4.47
   0   7 -28   14.50    5.16
   0   7 -29   84.91   10.01
   0  -7 -30   70.03    8.64
   0   7 -30   57.08    8.28
   0   7 -31   -0.56    3.43
   0  -7 -31   -0.82    3.47
   0  -7 -32   35.06    5.97
   0   7 -32   33.75    5.98
   0   8   0  863.16   22.91
   0  -8   0  837.15   20.79
   0   8   0  800.34   19.53
   0   8   0  806.48   20.72
   0   8  -1 3621.60   74.12
   0  -8  -1 3545.71   71.81
   0  -8   1 3532.61   71.38
   0   8   1 3472.11   71.88
   0   8  -1 3480.67   71.30
   0   8   1 3409.80   70.50
   0   8  -2 1750.89   39.71
   0  -8   2 1700.79   37.10
   0  -8  -2 1750.60   38.17
   0   8   2 1671.45   36.86
   0   8  -2 1613.01   36.85
   0   8   2 1676.46   37.81
   0   8   3 3692.43   73.85
   0   8  -3 3543.42   73.30
   0  -8   3 3281.18   67.68
   0  -8   3 3555.21   70.79
   0  -8  -3 3569.81   71.80
   0   8   3 3464.27   71.56
   0   8  -3 3435.62   69.97
   0   8   3 3457.46   70.61
   0   8  -4 2375.93   53.07
   0  -8   4 2372.91   50.93
   0  -8  -4 2496.88   52.38
   0   8  -4 2346.92   49.71
   0   8   4 2360.79   51.03
   0   8   4 2340.13   51.74
   0   8   5  862.08   23.00
   0   8  -5  791.30   22.19
   0   8  -5  827.11   23.40
   0  -8  -5  833.58   22.06
   0  -8   5  813.36   21.10
   0   8  -5  762.33   19.03
   0   8   5  800.47   20.89
   0   8   5  785.06   21.42
   0   8  -6 1919.48   45.53
   0   8   6 2175.24   46.76
   0   8  -6 2008.95   47.29
   0  -8   6 2084.63   45.34
   0  -8  -6 2088.33   46.12
   0   8   6 1934.63   45.04
   0   8   6 1953.97   44.46
   0   8  -7  965.55   26.60
   0   8   7 1158.80   28.23
   0   8  -7 1003.77   28.49
   0  -8   7 1042.79   27.09
   0   8   7 1070.21   28.12
   0   8  -7 1027.05   29.25
   0  -8  -7 1125.44   28.10
   0   8   7 1018.53   26.31
   0   8  -8 1436.08   37.54
   0  -8  -8 1454.57   35.61
   0   8   8 1437.64   36.04
   0   8   8 1417.14   34.07
   0   8  -9 2553.10   59.59
   0   8   9 2519.47   57.81
   0  -8  -9 2642.86   57.84
   0   8   9 2515.08   55.57
   0   8 -10  119.88    6.63
   0   8  10  110.73    6.73
   0   8 -10  111.01    8.08
   0   8  10  100.03    6.40
   0   8  10  110.39    6.73
   0   8  11  699.88   19.67
   0   8 -11  643.63   22.50
   0   8  11  670.57   19.70
   0   8  11  637.77   19.36
   0   8  12  624.78   18.25
   0   8 -12  630.12   22.22
   0   8  12  597.23   18.67
   0   8  12  600.64   18.76
   0   8  13  777.87   20.98
   0   8 -13  831.31   26.73
   0   8  13  775.13   22.35
   0   8 -14  406.29   18.02
   0   8  14  362.25   14.02
   0   8 -15  657.91   24.41
   0   8  15  583.05   19.34
   0   8 -16  266.94   14.84
   0   8  16  249.43   11.51
   0   8  16  245.06   11.93
   0   8 -17 1176.83   36.84
   0   8  17 1090.80   30.49
   0   8  17 1111.88   31.36
   0   8 -18   63.54    7.72
   0   8  18   62.43    6.11
   0   8  18   62.09    5.66
   0   8 -19  280.22   16.23
   0   8  19  240.03   11.89
   0   8  19  248.26   12.52
   0   8  20  645.51   22.67
   0   8  20  642.18   21.84
   0   8  21 1695.76   43.74
   0   8  21 1645.06   44.38
   0   8  22  703.18   23.48
   0   8  22  684.10   24.09
   0   8 -23  177.49   14.13
   0   8  23  160.77    9.90
   0   8  23  147.41    9.98
   0   8  24  143.06    9.30
   0   8  24  141.55    9.75
   0   8  25  668.92   22.87
   0   8  25  602.48   22.82
   0   8  26  150.88    9.49
   0   8  26  138.05    9.63
   0   8 -27   55.33    8.19
   0   8 -28  236.37   16.36
   0   8 -29  954.71   35.71
   0   8 -30  257.24   16.33
   0  -8 -30  231.75   15.07
   0  -8 -31    3.32    3.42
   0   8 -31    2.89    3.16
   0   9   0    4.32    1.84
   0   9   0    1.92    1.14
   0  -9   0    1.47    0.95
   0   9   0    0.87    0.78
   0   9  -1    0.48    0.84
   0   9   1    0.87    0.97
   0   9  -1    1.80    1.38
   0  -9   1    2.95    1.09
   0  -9  -1    2.71    1.13
   0   9   1    0.41    0.66
   0   9  -1    1.51    0.81
   0   9  -2    2.82    1.11
   0   9  -2    3.01    1.57
   0   9   2    1.09    1.03
   0  -9  -2    3.63    1.26
   0   9   2    2.14    1.03
   0   9   3    8.76    2.22
   0   9   3    8.24    1.88
   0   9  -3    9.07    2.17
   0  -9   3    7.49    1.57
   0  -9  -3    9.09    1.89
   0   9  -3   12.04    1.83
   0   9   3    6.96    1.59
   0   9   4    7.50    1.84
   0   9   4    9.83    2.33
   0   9  -4   10.31    2.29
   0  -9   4    9.18    1.73
   0  -9  -4   12.66    2.24
   0   9   4    9.13    1.79
   0   9  -4    8.41    1.49
   0   9  -5   21.21    3.06
   0   9   5   17.22    2.84
   0   9  -5   15.94    2.98
   0  -9  -5   18.09    2.72
   0  -9   5   16.87    2.32
   0   9  -5   12.42    1.78
   0   9   5   12.12    2.29
   0   9   5   14.83    2.28
   0   9   6    7.74    1.95
   0   9   6    6.75    1.96
   0   9  -6    8.12    2.06
   0   9  -6    6.45    2.15
   0  -9  -6    5.99    1.80
   0   9   6    4.17    1.49
   0   9  -7    3.26    1.57
   0   9   7    4.69    1.81
   0   9   7    3.75    1.51
   0  -9  -7    3.13    1.43
   0   9   7    1.11    1.26
   0   9  -8   23.20    3.18
   0   9   8   22.75    3.28
   0  -9  -8   20.72    3.20
   0   9   8   15.89    2.65
   0   9   9   24.35    3.36
   0   9  -9   19.59    2.94
   0   9   9   16.94    2.67
   0   9  10    2.95    1.49
   0   9 -10    2.47    1.32
   0   9 -10    1.46    1.69
   0   9  10    2.10    1.45
   0   9  11   11.36    2.48
   0   9 -11    8.18    2.00
   0   9  11    9.83    2.28
   0   9 -11   10.52    3.10
   0   9  11   12.99    2.58
   0   9  12   28.54    3.55
   0   9 -12   23.13    3.13
   0   9 -12   37.97    5.25
   0   9  12   29.82    3.77
   0   9  12   26.86    3.59
   0   9  13   11.79    2.59
   0   9  13   12.47    2.36
   0   9 -13   10.92    2.21
   0   9 -13   12.39    3.52
   0   9  13   11.91    2.70
   0   9  14    1.65    1.64
   0   9 -14    5.90    2.81
   0   9  14    4.52    2.06
   0   9  15    9.57    2.53
   0   9 -15   12.27    3.49
   0   9 -16   23.66    4.76
   0   9  16   25.93    3.86
   0   9 -17   35.54    5.95
   0   9  17   27.56    4.08
   0   9  18    9.60    2.73
   0   9 -18   19.50    4.85
   0   9  18   15.17    3.35
   0   9  19    3.04    2.10
   0   9 -19    4.71    3.37
   0   9  19    3.26    2.47
   0   9 -20   28.94    5.86
   0   9  20   24.58    4.15
   0   9  20   23.33    3.82
   0   9 -21   61.14    8.09
   0   9  21   59.56    6.28
   0   9  21   59.50    5.98
   0   9 -22   23.12    5.76
   0   9  22   23.60    4.32
   0   9  22   24.21    4.01
   0   9  23    2.93    2.16
   0   9 -23    3.42    3.13
   0   9  23    1.32    2.09
   0   9  24    0.85    1.82
   0   9 -24    0.63    2.54
   0   9  24    3.19    2.37
   0   9  25   37.22    4.83
   0   9 -25   46.65    7.45
   0   9  25   30.01    4.63
   0   9  26   19.95    3.74
   0   9 -26   29.61    6.12
   0   9 -27    6.64    3.68
   0   9 -28   26.70    5.94
   0   9 -29   75.85    8.97
   0   9 -30   18.53    5.00
   0  -9 -30   18.81    4.97
   0  10   0   96.34    6.88
   0  10   0   87.72    4.78
   0  10  -1 1095.96   29.75
   0  10   1 1027.64   25.38
   0  10  -1 1085.90   26.80
   0  10   1 1073.68   27.28
   0  10  -2  657.31   20.80
   0  10   2  622.53   18.60
   0  10  -2  635.88   17.84
   0  10   2  613.49   17.24
   0  10  -3  666.47   21.12
   0  10   3  674.09   21.27
   0  10   3  625.24   18.00
   0  10   3  649.75   19.34
   0  10  -3  649.76   17.92
   0  10  -4 2134.03   50.48
   0  10   4 2286.90   51.39
   0 -10  -4 2108.64   49.11
   0  10  -4 2130.34   46.06
   0  10   4 2108.25   47.09
   0  10   4 2081.83   48.38
   0  10  -5  196.10   10.24
   0  10   5  218.22   10.79
   0  10  -5  202.44   10.89
   0 -10  -5  195.44    9.77
   0  10  -5  203.02    7.83
   0  10   5  199.97    8.86
   0  10   5  209.82    9.70
   0  10  -6 1450.50   38.32
   0  10  -6 1481.01   39.92
   0 -10  -6 1509.38   38.14
   0  10   6 1528.38   37.42
   0  10   6 1508.89   36.19
   0  10  -7   68.95    6.46
   0  10  -7   65.72    5.67
   0  10   7   79.75    6.40
   0  10   7   72.79    5.30
   0  10   7   65.38    5.46
   0  10  -8  135.10    9.28
   0  10  -8  147.58    8.66
   0  10   8  164.52    9.32
   0  10   8  145.28    8.30
   0  10   8  154.06    8.05
   0  10   9 1538.22   37.52
   0  10   9 1498.41   38.02
   0  10  10  323.24   13.46
   0  10  10  294.81   12.24
   0  10 -11  255.84   11.77
   0  10  11  291.43   12.39
   0  10  12 1858.36   43.03
   0  10  12 1737.16   42.80
   0  10  12 1808.84   42.77
   0  10  13  654.98   20.75
   0  10  13  633.42   20.64
   0  10 -14  198.91   13.05
   0  10  14  164.08    9.60
   0  10  14  175.74    9.96
   0  10 -15  324.75   17.43
   0  10  15  286.70   13.35
   0  10  15  296.40   13.53
   0  10  16  107.32    8.04
   0  10  16  118.63    8.20
   0  10 -17  593.36   25.05
   0  10  17  484.77   18.65
   0  10 -18  484.83   22.86
   0  10  18  425.50   17.25
   0  10 -19   84.16    9.45
   0  10  19   73.05    6.64
   0  10  20  912.10   29.03
   0  10  20  918.11   28.55
   0  10  21  989.51   30.18
   0  10  21  993.78   31.21
   0  10  22   63.20    6.57
   0  10  22   78.03    6.87
   0  10 -23   67.34    8.80
   0  10  23   52.15    5.98
   0  10  23   52.85    5.75
   0  10  24    9.01    2.81
   0  10 -24   14.25    4.95
   0  10  24    7.51    2.88
   0  10  25  450.93   17.61
   0  10  25  417.92   17.68
   0  10  26  225.87   11.64
   0  10 -26  303.84   17.81
   0  10 -27    2.85    3.28
   0  11   0    1.10    1.58
   0  11   0    3.29    1.43
   0  11  -1    2.85    1.38
   0  11   1    2.42    1.41
   0  11  -1    2.36    1.81
   0  11   1    1.51    1.00
   0  11   2   -0.46    1.32
   0  11  -2    1.58    1.68
   0  11  -2    1.55    1.18
   0  11   2    0.51    0.96
   0  11   3    3.61    1.97
   0  11   3    2.47    1.38
   0  11  -3    1.74    1.54
   0  11  -3    2.84    1.18
   0  11   3    0.83    1.03
   0  11  -4    0.18    2.11
   0  11   4    2.05    1.85
   0  11  -4    4.27    2.17
   0  11   4    1.33    1.53
   0  11  -4    3.08    1.20
   0  11   4    0.89    1.07
   0  11  -5    2.34    2.14
   0  11   5    1.88    1.52
   0  11  -5    1.75    1.56
   0  11   5    2.72    1.75
   0  11   5    1.15    1.24
   0  11  -6    6.59    2.61
   0  11   6    2.27    1.82
   0  11   6    0.65    1.38
   0  11  -6    4.34    1.93
   0  11   6    0.55    1.24
   0  11  -7   13.86    3.44
   0  11   7   21.43    3.73
   0  11  -7   12.52    2.96
   0  11   7   11.31    2.67
   0  11   7   14.12    2.61
   0  11  -8    1.93    2.51
   0  11   8    1.49    1.81
   0  11  -8    1.60    1.73
   0  11   8    1.57    1.40
   0  11  -9   21.67    4.41
   0  11   9   18.26    3.42
   0  11  -9   19.50    3.39
   0  11   9   17.54    3.12
   0  11   9   18.52    3.04
   0  11 -10    5.28    2.20
   0  11  10    7.50    2.43
   0  11  10    4.61    2.10
   0  11  10    3.98    1.96
   0  11 -11    3.89    1.82
   0  11  11    0.84    1.57
   0  11  12   26.05    3.79
   0  11 -12   29.42    3.92
   0  11  12   26.65    3.81
   0  11  13   13.26    3.31
   0  11  13    9.70    2.68
   0  11  14    6.17    2.52
   0  11  14    4.41    2.31
   0  11  15    2.49    2.04
   0  11  15    2.78    2.09
   0  11  16    2.17    2.19
   0  11  16    2.49    2.02
   0  11  17   16.37    3.49
   0  11  17   16.57    3.47
   0  11  18   43.80    5.36
   0  11  18   36.52    4.91
   0  11  19    2.06    2.45
   0  11  20   20.42    3.85
   0  11  21   36.84    4.82
   0  11  22   10.76    3.07
   0  11  22   17.05    3.66
   0  11  23    0.67    1.73
   0  11  23    1.61    1.96
   0  11  24    5.28    2.40
   0  11  24    4.67    2.33
   0  11  25   16.36    3.33
   0  11  26   16.41    3.32
   0  12   0   95.13    7.74
   0  12   0   99.20    6.37
   0  12  -1  349.96   15.76
   0  12   1  353.94   13.43
   0  12  -1  362.35   13.15
   0  12  -2  678.30   23.54
   0  12   2  645.58   18.68
   0  12  -2  695.73   19.77
   0  12   2  683.98   20.76
   0  12  -3  502.97   20.71
   0  12   3  542.20   20.44
   0  12  -3  529.51   20.26
   0  12  -3  549.37   16.57
   0  12   3  554.78   18.10
   0  12   3  527.16   16.41
   0  12  -4 1699.97   47.37
   0  12  -4 1811.00   46.96
   0  12   4 1884.81   47.22
   0  12   4 1836.68   43.80
   0  12   4 1801.48   41.83
   0  12  -5  136.56   10.03
   0  12  -5  146.77    9.79
   0  12   5  161.91   10.20
   0  12   5  151.96    8.66
   0  12   5  137.13    7.58
   0  12  -6  565.06   22.58
   0  12  -6  586.17   21.80
   0  12   6  606.28   18.84
   0  12   6  601.26   19.96
   0  12  -7  298.67   15.71
   0  12  -7  318.70   15.00
   0  12   7  328.62   12.95
   0  12   7  330.66   13.74
   0  12  -8  154.66   11.14
   0  12  -8  176.79   10.68
   0  12   8  187.24   11.10
   0  12   8  176.68    9.73
   0  12   8  185.05    9.38
   0  12  -9  318.55   16.44
   0  12  -9  308.02   14.70
   0  12   9  343.15   14.26
   0  12   9  327.45   13.44
   0  12  10  508.39   19.13
   0  12  10  466.32   17.48
   0  12  10  461.53   16.77
   0  12 -11   45.28    5.13
   0  12  11   59.73    6.03
   0  12  11   54.70    5.42
   0  12  11   57.96    5.77
   0  12  12 2419.17   56.70
   0  12  13  198.19   10.69
   0  12  14  114.94    8.01
   0  12  15   41.95    5.01
   0  12  15   41.64    5.10
   0  12  16    8.19    2.94
   0  12  16    9.23    2.84
   0  12  17  378.54   16.08
   0  12  17  387.12   16.45
   0  12  18  555.11   20.56
   0  12  18  564.22   20.66
   0  12  19    2.91    2.46
   0  12  19    2.46    2.45
   0  12  20  983.64   29.61
   0  12  20  969.22   29.86
   0  12  21  472.49   18.29
   0  12  22   20.61    3.80
   0  12  23   28.34    4.14
   0  12  24   55.93    5.48
   0  12  25  122.50    7.92
   0  13   0    0.96    1.35
   0  13   0    0.39    1.92
   0  13  -1    1.38    1.26
   0  13  -1    1.77    2.32
   0  13   1    0.75    1.44
   0  13  -2    0.54    1.16
   0  13  -2    1.78    2.19
   0  13   2    1.69    1.59
   0  13  -3    4.45    2.76
   0  13  -3    7.82    1.96
   0  13  -3    8.15    3.02
   0  13   3    7.83    2.93
   0  13   3    4.26    1.90
   0  13  -4    0.67    2.89
   0  13  -4    3.80    2.72
   0  13   4    2.33    1.68
   0  13   4    4.33    2.58
   0  13   4    3.09    1.59
   0  13   5    2.80    2.01
   0  13  -5    4.62    2.47
   0  13   5    2.77    2.48
   0  13   5    2.06    1.47
   0  13  -6    0.91    2.70
   0  13   6    1.99    2.23
   0  13  -6   -0.40    2.32
   0  13   6    1.15    1.59
   0  13   6    0.12    1.49
   0  13  -7    3.46    3.13
   0  13   7    1.77    2.19
   0  13  -7    3.58    2.39
   0  13   7    1.03    1.74
   0  13   7    3.39    1.77
   0  13  -8    6.99    4.25
   0  13   8    5.10    2.66
   0  13   8    0.45    1.63
   0  13  -8    1.77    1.82
   0  13   8    1.70    1.54
   0  13  -9    3.34    3.48
   0  13  -9    6.32    2.65
   0  13   9   -0.15    1.77
   0  13   9    3.45    2.26
   0  13   9    0.67    1.57
   0  13 -10    6.93    3.88
   0  13 -10    4.41    2.32
   0  13  10    6.16    2.60
   0  13  10    2.21    1.92
   0  13  10    2.80    1.93
   0  13  11    5.23    2.42
   0  13  11    5.89    2.30
   0  13  12   16.39    3.41
   0  13  12   15.57    3.15
   0  13  13   13.11    2.99
   0  13  14    3.09    1.99
   0  13  15    1.90    1.86
   0  13  16    0.17    1.95
   0  13  16    1.47    1.92
   0  13  17    3.92    2.39
   0  13  17    0.99    1.97
   0  13  18   21.01    3.88
   0  13  18   14.94    3.28
   0  13  19    4.48    2.54
   0  13  19    4.31    2.52
   0  13  20   25.25    4.09
   0  13  20   28.44    4.27
   0  13  21   10.22    2.96
   0  13  21    7.64    2.64
   0  13  22    0.75    1.83
   0  13  22    0.31    1.76
   0  13  23    1.29    1.80
   0  13  24    1.35    1.65
   0  13  25    2.10    1.65
   0  14   0  509.99   21.15
   0  14   0  507.55   17.06
   0  14  -1   45.02    6.69
   0  14  -1   66.44    7.24
   0  14   1   59.63    5.24
   0  14  -1   63.87    5.14
   0  14  -2  196.00   13.52
   0  14  -2  223.39   13.22
   0  14   2  228.79   10.72
   0  14  -2  220.91    9.91
   0  14  -3  262.99   15.62
   0  14  -3  288.31   15.36
   0  14   3  300.00   15.32
   0  14   3  286.47   12.46
   0  14  -4 2086.52   58.38
   0  14  -4 2210.92   57.36
   0  14   4 2255.70   52.53
   0  14  -5   39.26    6.39
   0  14  -5   38.95    5.67
   0  14   5   39.86    5.78
   0  14   5   33.74    4.29
   0  14   5   38.14    4.02
   0  14  -6  486.96   22.27
   0  14  -6  521.28   21.44
   0  14   6  533.10   18.72
   0  14   6  509.55   17.00
   0  14  -7  104.83    9.86
   0  14   7  120.93    9.25
   0  14  -7  103.95    8.87
   0  14   7  104.58    6.77
   0  14   7  110.35    7.67
   0  14  -8   73.08    8.50
   0  14   8   82.69    7.66
   0  14  -8   71.71    7.21
   0  14   8   70.37    6.25
   0  14   8   69.74    5.58
   0  14  -9   28.10    6.10
   0  14   9   25.29    3.52
   0  14   9   25.46    3.97
   0  14 -10  440.88   21.48
   0  14  10  457.01   16.47
   0  14  10  461.88   17.60
   0  14  11   65.44    5.75
   0  14  11   64.42    6.11
   0  14  12 1437.19   37.74
   0  14  12 1510.37   39.23
   0  14  13   25.51    3.90
   0  14  13   27.71    4.24
   0  14  14   56.13    5.83
   0  14  14   55.03    5.45
   0  14  15   21.72    3.59
   0  14  16  193.61   10.46
   0  14  17   23.94    3.88
   0  14  17   23.95    3.79
   0  14  18  259.28   12.31
   0  14  18  280.17   13.06
   0  14  19    2.33    2.00
   0  14  19    3.24    2.22
   0  14  20  897.17   26.54
   0  14  20  849.19   25.68
   0  14  21   35.45    4.41
   0  14  22    2.02    1.77
   0  14  23    0.89    1.34
   0  15   0   -0.26    3.62
   0  15   0    6.02    3.08
   0  15   0    0.85    1.37
   0  15  -1    1.32    3.65
   0  15   1    1.07    3.72
   0  15  -1    4.66    2.83
   0  15   1    1.78    1.56
   0  15  -2   -0.79    3.63
   0  15   2    2.25    1.59
   0  15  -3    4.96    3.30
   0  15   3    1.64    1.77
   0  15   3    2.84    2.62
   0  15  -3    1.33    2.55
   0  15  -4    0.78    3.13
   0  15   4    4.33    1.95
   0  15  -4    2.43    2.69
   0  15   4    2.83    2.95
   0  15  -5    3.13    3.60
   0  15   5    8.86    3.06
   0  15  -5    9.25    3.39
   0  15   5    5.15    2.28
   0  15  -6    2.33    3.86
   0  15   6    1.02    1.65
   0  15  -7   10.15    4.48
   0  15   7    5.74    2.30
   0  15  -8    6.35    4.36
   0  15   8    2.54    1.98
   0  15   8    0.61    1.34
   0  15  -9    7.27    4.20
   0  15   9    4.98    2.26
   0  15   9    2.52    1.61
   0  15  10    1.22    1.65
   0  15  10    2.20    1.61
   0  15  11    0.15    1.71
   0  15  11    1.06    1.57
   0  15  12    9.91    2.83
   0  15  12    8.18    2.38
   0  15  13    1.86    1.78
   0  15  13    1.35    1.61
   0  15  14    2.44    2.04
   0  15  14    0.27    1.49
   0  15  15    1.96    1.96
   0  15  15    0.14    1.49
   0  15  16    5.64    2.08
   0  15  17    0.26    1.55
   0  15  19    2.22    2.02
   0  15  20   35.38    4.26
   0  15  21    1.85    1.62
   0  15  22    0.12    1.44
   0  16   0    7.06    3.96
   0  16  -1   14.88    4.56
   0  16   1   10.08    4.26
   0  16   1   15.98    2.87
   0  16   2  226.97   15.24
   0  16  -2  233.49   15.31
   0  16   2  255.45   11.06
   0  16  -3    9.96    4.43
   0  16   3    9.22    4.20
   0  16   3   10.53    2.66
   0  16  -4 1165.89   39.08
   0  16   4 1238.33   32.20
   0  16  -5   46.18    7.39
   0  16   5   45.74    4.77
   0  16  -6    7.18    4.76
   0  16   6    2.33    1.72
   0  16  -7   15.57    5.37
   0  16   7    6.52    2.34
   0  16  -8  136.05   11.72
   0  16   8  125.50    7.94
   0  16   9    3.24    1.98
   0  16  10  328.06   13.67
   0  16  11    4.35    2.22
   0  16  12  910.42   26.39
   0  16  13    5.67    2.30
   0  16  14   68.63    5.79
   0  16  15    0.67    1.49
   0  16  16   62.20    5.41
   0  16  17    7.05    2.35
   0  17   0   -0.79    3.93
   0  17  -1   -0.26    3.60
   0  17   1   -1.32    4.28
   0  17  -2    3.95    3.78
   0  17   2    5.76    3.22
   0  17   3   -0.26    3.50
   0  17  -3    5.77    3.93
   0  17  -4    3.90    4.06
   0  17   4   -2.83    3.94
   0  17   4    3.68    1.60
   0  17   5   -0.50    3.31
   0  17  -5    7.35    4.44
   0  17   5    2.12    1.53
   0  17  -6    6.32    4.31
   0  17   6   -0.50    3.05
   0  17   6    0.36    1.31
   0  17  -7    4.77    4.23
   0  17   7   -0.98    3.68
   0  17   7    0.49    1.31
   0  17   8    4.04    1.83
   0  17   9    1.97    1.63
   0  17  10    7.25    2.18
   0  17  11    1.59    1.69
   0  17  12    4.75    2.02
   0  17  13    0.72    1.45
   0  17  14    4.13    1.79
   0  17  15    0.45    1.32
   0  17  16    3.38    1.69
   0  17  17    0.94    1.32
   0  18   0   38.56    6.21
   0  18   1   32.50    5.72
   0  18  -1   41.50    6.55
   0  18   2   71.95    7.97
   0  18  -2   85.49    8.85
   0  18   3  144.98   11.02
   0  18  -3  167.35   12.16
   0  18   4  420.59   19.47
   0  18  -4  454.54   20.94
   0  18   5  103.70    9.22
   0  18  -5  135.60   11.10
   0  18   6   28.09    5.15
   0  18   7   71.28    7.49
   0  18   8    1.24    2.81
   0  18   9   42.86    5.74
   0  18   9   54.69    4.50
   0  18  10  296.76   14.85
   0  18  10  333.47   12.03
   0  18  11   29.71    4.94
   0  18  11   39.91    3.87
   0  18  12  402.56   13.57
   0  19   0    3.36    3.23
   0  19  -1    3.20    3.41
   0  19   1    5.33    3.43
   0  19   2    3.61    3.13
   0  19  -2    6.07    3.57
   0  19  -3    8.31    4.04
   0  19   3    1.18    2.93
   0  19   4    1.92    2.77
   0  19   5    0.94    2.39
   0  19   6    1.63    2.35
  -1   0   0   24.63    1.25
   1   0   1   12.69    0.87
   1   0   2 1446.00   28.35
   1   0   3   13.85    1.04
   1   0   4  458.79   10.70
  -1   0  -5    9.65    1.16
   1   0   5   14.14    1.35
  -1   0  -6  642.67   15.10
   1   0   6  601.10   14.67
   1   0   7    7.99    1.20
  -1   0  -7   12.87    1.59
   1   0   8   15.29    1.75
   1   0   9  102.99    5.03
  -1   0   9  109.09    5.67
  -1   0  10 1380.15   32.18
   1   0  10 1352.80   31.08
  -1   0  11   15.68    2.33
   1   0  11   14.92    2.08
  -1   0  11   16.89    1.79
   1   0  12    7.75    1.72
  -1   0  12    6.62    1.64
   1   0  12    7.22    1.29
  -1   0  12    6.64    1.26
  -1   0  13   17.11    1.79
  -1   0  13   17.43    2.65
   1   0  13   17.79    2.53
   1   0  13   23.95    2.27
  -1   0  13   17.54    2.01
   1   0  14  226.75   10.16
  -1   0  14  216.56   10.43
  -1   0  14  259.69    8.85
   1   0  14  251.84    8.67
   1   0  15   90.39    6.36
  -1   0  15   92.39    6.71
   1   0  15  106.72    5.40
  -1   0  15  107.60    5.53
  -1   0  16  321.30   10.96
   1   0  16  344.15   11.22
   1   0  17   37.86    3.43
  -1   0  17   36.85    3.41
   1   0  18 1430.34   33.87
   1   0  19   13.07    2.30
   1   0 -20  412.22   19.39
   1   0  20  352.26   13.14
   1   0 -21   22.58    5.29
   1   0 -22  765.00   30.67
   1   0 -23  166.48   13.91
   1   0 -24   98.16   10.85
   1   0 -25  131.83   12.76
   1   0 -26 1129.58   41.43
   1   0 -27    7.14    4.20
   1   0 -28  195.94   15.83
   1   0 -29   49.81    8.18
   1   0 -30   92.06   10.48
   1   0 -31  125.27   12.00
   1   0 -32  188.90   14.24
   1   0 -33   30.34    5.79
   1   0 -34  129.43   10.61
   1   1 -34   40.46    6.17
   1   1 -33  332.61   18.39
   1   1 -32   10.76    4.33
   1   1 -31 1462.60   48.01
   1   1 -30   14.20    5.00
   1   1 -29  407.98   23.14
   1   1 -28   45.11    7.90
   1   1 -27   28.76    6.64
   1   1 -26  192.01   16.03
   1   1 -25 1388.80   47.82
   1   1 -24  158.62   13.85
   1   1 -23 3095.60   80.77
   1   1 -22   46.71    7.10
   1   1 -21  401.86   20.51
   1   1 -20   85.50    8.74
   1   1 -19  215.42   13.57
  -1   1  19  187.09    8.88
   1   1 -18  213.74   12.78
  -1   1  18  186.03    8.65
  -1   1  17 1700.15   38.14
   1   1 -17 1775.44   45.52
  -1   1  16    4.80    1.39
   1  -1  16    5.05    1.82
   1   1 -16    2.17    1.69
  -1   1  16    3.27    1.27
   1  -1  16    4.57    1.24
  -1   1  15 3713.23   88.02
   1  -1  15 3539.02   86.35
  -1   1  15 4409.48   84.98
   1  -1  15 4319.77   83.75
  -1   1  15 4534.02   84.44
   1  -1  14  220.44    9.90
  -1   1  14  221.14   10.64
   1  -1  14  259.49    8.39
  -1   1  14  245.39    8.84
  -1   1  14  247.85    8.53
  -1   1  13  513.59   17.00
   1  -1  13  495.83   15.94
  -1   1  13  529.23   14.46
  -1   1  13  542.00   14.17
  -1   1  12    4.96    1.07
  -1   1  12    6.19    1.66
  -1   1  12    7.11    1.31
  -1   1  11    7.59    1.68
   1  -1  11    9.08    1.61
  -1   1  11   13.12    1.63
  -1   1  11   13.13    1.56
  -1   1  10 1008.89   25.68
   1  -1  10 1028.62   24.75
  -1   1  10 1075.27   23.69
   1  -1   9 4773.31   96.39
  -1   1   9 4671.95   97.49
  -1   1   8  118.09    5.64
   1  -1   8  123.63    5.12
   1  -1   7 5282.92  102.63
   1  -1   6  712.21   16.20
   1  -1   5  752.99   16.45
   1  -1   4  803.79   16.86
   1  -1   3  566.38   11.86
  -1  -1  -2  550.58   13.25
   1  -1   2  655.01   12.41
   1  -1   0   21.64    1.23
   1   1   2  558.39   12.59
  -1   1  -2  589.81   11.68
   1   1   3  554.63   12.72
  -1   1  -3  572.84   11.97
   1   1   4  790.80   17.50
   1   1   5  788.61   17.94
   1   1   6  744.78   17.56
   1   1   7 5552.48  108.43
   1   1   8  118.67    5.37
   1   1   9 4806.50   95.78
   1   1  10 1016.69   24.84
   1   1  11   12.37    1.98
   1   1  11   10.38    1.54
   1   1  12    5.89    1.56
  -1  -1  12    3.28    1.30
  -1  -1  12    6.25    1.17
   1   1  13  485.44   16.07
  -1  -1  13  474.99   16.46
   1   1  13  521.58   13.58
   1   1  13  550.22   14.68
   1   1  14  211.55    9.81
  -1  -1  14  200.38    9.90
   1   1  14  238.60    7.99
   1   1  14  229.14    8.54
  -1  -1  15 3452.39   85.51
   1   1  15 3681.10   85.53
   1   1  15 4354.16   83.35
   1   1  15 4471.09   82.05
  -1  -1  16    3.31    1.61
   1   1  16    4.90    1.79
   1   1  16    4.36    1.48
   1   1  17 1664.15   38.42
   1   1  18  177.88    8.35
   1   1  19  174.51    8.48
   1   1  20   64.08    5.08
   1   1  21  288.05   12.06
   1   1  22   45.65    4.68
   1  -1 -23 2958.44   70.15
   1   1  23 2234.02   55.19
   1  -1 -24  143.25   12.94
   1  -1 -25 1351.73   46.14
   1  -1 -26  173.71   14.61
   1  -1 -27   15.24    5.15
   1  -1 -28   55.14    8.39
   1  -1 -29  393.21   22.40
   1  -1 -30   19.31    5.29
   1  -1 -31 1448.32   47.03
   1  -1 -32   10.17    4.08
   1  -1 -33  329.96   18.07
   1  -1 -34   43.66    6.26
   1   2 -34   67.73    7.79
   1   2 -33   30.05    6.01
   1   2 -32   87.66    9.95
   1   2 -31  223.15   16.35
   1   2 -30  121.60   12.35
   1   2 -29   46.29    7.95
   1   2 -28  194.44   15.89
   1   2 -27  161.91   14.55
   1   2 -26  941.82   38.01
   1   2 -25   70.05    9.82
   1   2 -24  348.18   21.26
   1   2 -23  284.70   18.77
   1   2 -22  500.14   24.22
   1   2 -21   48.11    7.08
  -1   2  21   38.46    4.20
   1   2 -20   95.10    9.27
  -1   2  20   75.66    5.71
  -1   2  19   90.22    5.82
   1   2 -19   95.78    8.82
  -1   2  19   77.85    5.64
  -1   2  18  890.54   23.45
   1   2 -18  941.20   30.10
   1   2 -17   83.50    7.60
  -1   2  17   72.35    5.15
  -1   2  17   88.59    5.37
   1  -2  16   91.63    6.57
   1   2 -16  102.27    7.93
  -1   2  16   90.74    5.53
  -1   2  16   96.02    5.43
   1   2 -15  304.06   14.03
   1  -2  15  303.25   12.42
  -1   2  15  300.08   13.20
  -1   2  15  332.97   11.17
  -1   2  15  339.29   11.02
   1  -2  14  426.85   14.95
  -1   2  14  431.60   15.98
   1   2 -14  443.02   16.92
  -1   2  14  498.29   13.69
  -1   2  14  487.49   14.08
   1   2 -13  163.97    9.20
  -1   2  13  170.48    8.87
   1  -2  13  176.69    8.20
  -1   2  13  190.47    7.47
  -1   2  13  190.97    7.17
  -1   2  12    5.24    1.14
   1  -2  12    6.68    1.53
   1   2 -12    3.14    1.41
  -1   2  12    3.25    1.05
   1  -2  11  106.93    5.58
  -1   2  11  115.09    5.27
  -1   2  11  106.98    4.81
   1  -2  10  448.80   12.99
  -1   2  10  489.50   12.70
  -1   2  10  462.98   11.97
   1  -2   9  598.50   15.16
  -1   2   9  664.12   15.21
   1  -2   8  163.80    6.04
   1  -2   7  215.27    6.76
  -1  -2  -6   88.40    4.28
   1  -2   6   97.10    3.71
   1  -2   5 2860.64   58.23
  -1  -2  -5 3258.14   60.11
  -1   2   4  114.87    4.33
   1  -2   4  106.92    3.36
   1  -2   3   19.27    0.95
  -1   2   3   15.74    1.32
  -1  -2  -3   18.31    1.51
  -1  -2  -2 3248.82   61.51
  -1   2   2 3071.02   60.76
   1  -2   1  761.57   15.97
  -1  -2  -1  737.15   15.13
  -1   2   1  779.18   15.78
  -1   2   1  749.93   15.50
   1  -2   0    4.09    0.58
  -1   2   0    3.63    0.34
   1   2   2 3218.64   60.69
   1   2   2 3102.23   62.09
   1   2   3    3.38    0.72
   1   2   4  126.60    4.77
   1   2   5 2789.44   56.17
   1   2   6  154.12    5.98
   1   2   7  272.18    8.94
   1   2   8  177.42    7.11
   1   2   9  635.66   16.82
   1   2   9  639.64   15.68
   1   2  10  474.12   14.22
   1   2  10  507.10   13.25
   1   2  11  113.82    6.21
   1   2  11  112.43    5.36
   1   2  11  107.27    4.86
   1   2  12    5.53    1.60
   1   2  12    5.72    1.24
   1   2  12    6.06    1.32
  -1  -2  13  160.04    8.45
   1   2  13  166.72    8.44
   1   2  13  200.41    7.84
   1   2  13  187.34    7.09
  -1  -2  14  432.83   15.91
   1   2  14  425.85   15.60
   1   2  14  497.64   14.49
   1   2  14  495.03   13.56
  -1  -2  15  282.62   12.71
   1   2  15  308.66   13.00
   1   2  15  355.74   11.00
   1   2  15  354.87   11.84
   1   2  16   90.37    5.54
   1   2  16   92.53    5.08
   1   2  17   78.54    4.83
   1   2  17   69.13    5.07
   1   2  18  812.74   21.31
   1   2  18  784.84   22.45
   1   2  19   76.97    5.65
   1   2  20   83.31    6.05
   1   2  21   52.12    4.92
   1   2  22  341.18   13.87
   1   2  23  143.55    8.76
   1   2  24  216.62   11.15
   1  -2 -25   58.93    8.78
   1   2  25   51.98    5.44
   1  -2 -26  845.55   34.25
   1  -2 -27  144.00   13.00
   1  -2 -28  186.66   14.80
   1  -2 -29   47.97    7.71
   1  -2 -30  128.78   12.11
   1  -2 -31  234.36   16.51
   1  -2 -32   94.41    9.86
   1  -2 -33   40.69    6.44
   1  -2 -34   80.74    8.29
   1   3 -33  253.32   15.89
   1   3 -32   82.47    9.52
   1   3 -31 1243.03   43.61
   1   3 -30  222.80   16.90
   1   3 -29  176.32   15.01
   1   3 -28  307.44   20.39
   1   3 -27   35.38    7.64
   1   3 -26  220.83   16.91
   1   3 -25  815.00   34.54
   1   3 -24  128.51   12.75
   1   3 -23 3934.11   97.63
   1   3 -22  377.91   20.39
  -1   3  22  285.20   12.85
  -1   3  21  135.32    7.78
  -1   3  21  127.67    7.95
  -1   3  20   65.87    5.20
   1   3 -20   75.02    8.49
  -1   3  20   56.33    5.05
   1   3 -19   31.68    5.55
  -1   3  19   27.51    3.47
  -1   3  19   31.85    3.49
  -1   3  18  454.25   15.58
  -1   3  18  477.27   15.38
   1   3 -17 1606.24   42.21
  -1   3  17 1542.64   34.44
  -1   3  16    4.54    1.50
   1  -3  16    5.59    1.84
   1   3 -16    4.84    2.72
  -1   3  16    9.82    2.00
   1   3 -15 4756.58  100.04
  -1   3  15 4795.25   93.62
  -1   3  15 4848.71   93.01
   1   3 -14 1014.11   29.40
  -1   3  14 1013.18   24.43
  -1   3  14 1051.75   25.24
   1   3 -13  544.63   19.15
   1  -3  13  544.12   16.78
  -1   3  13  606.09   16.39
  -1   3  13  561.10   15.50
   1   3 -12   96.76    6.74
   1  -3  12  106.08    5.80
  -1   3  12  101.60    5.03
  -1   3  12  109.52    5.54
  -1  -3 -11   40.38    3.74
  -1   3  11   30.37    3.26
   1   3 -11   30.15    3.58
   1  -3  11   32.49    2.93
  -1   3  11   28.94    2.52
  -1   3  11   34.53    2.92
   1   3 -10 1505.16   39.93
  -1  -3 -10 1928.17   40.11
   1  -3  10 1607.01   37.28
  -1   3  10 1712.39   39.39
  -1   3  10 1880.57   37.90
  -1   3  10 1735.87   36.94
   1  -3   9 2948.22   64.31
  -1  -3  -9 3552.13   67.11
  -1   3   9 3179.17   66.57
   1   3  -9 2853.77   67.16
  -1   3   9 3272.98   64.37
  -1   3   9 3423.17   65.22
  -1   3   8  164.92    7.07
  -1  -3  -8  192.04    7.49
   1   3  -8  150.97    7.36
   1  -3   8  174.19    6.23
  -1   3   8  167.13    6.12
  -1   3   8  184.99    6.66
   1  -3   7 7025.47  143.40
  -1   3   7 7458.18  145.45
  -1   3   6  314.32    9.77
   1  -3   6  319.05    8.56
  -1  -3  -5   23.78    2.12
  -1   3   5   24.32    2.06
  -1  -3  -4 1669.98   34.06
  -1   3   4 1555.05   33.36
  -1  -3  -3 1701.14   34.67
  -1   3   3 1635.60   34.03
  -1   3   2  432.02    9.52
  -1  -3  -2  412.84   10.76
  -1   3   2  417.81    9.97
   1  -3   2  413.18    8.60
   1  -3   1 2638.88   51.88
  -1   3   1 2610.47   51.40
   1  -3   1 2655.37   50.60
  -1  -3  -1 2752.22   53.12
  -1   3   1 2692.61   51.47
   1  -3   0   96.62    3.37
  -1   3   0  101.11    2.88
   1  -3   0  107.88    3.00
   1  -3  -1 2615.87   50.74
   1  -3  -2  554.80   12.58
   1   3   3 1613.72   31.72
   1  -3  -3 1688.69   33.64
   1  -3  -4 1754.15   36.44
   1   3   7 7841.96  152.60
   1   3   8  179.02    7.46
   1   3   8  179.23    6.77
  -1   3  -8  163.11    7.03
   1   3   9 3339.15   67.39
   1   3   9 3283.48   65.72
   1   3   9 3312.13   65.17
   1   3  10 1749.12   39.13
   1   3  10 1751.11   36.79
   1   3  10 1762.29   37.58
   1   3  11   25.14    2.99
   1   3  11   28.86    2.57
   1   3  11   29.62    2.81
   1   3  12  102.24    6.39
   1   3  12  114.98    5.58
   1   3  13  564.26   15.51
   1   3  13  561.67   16.14
   1   3  14  890.21   25.94
  -1  -3  14  826.57   25.34
   1   3  14 1000.11   23.70
   1   3  14  995.82   24.48
   1   3  15 4842.34   92.57
   1   3  15 4771.64   91.12
   1   3  16    6.78    1.62
   1   3  16   10.85    2.11
   1   3  17 1427.51   35.04
   1   3  17 1445.89   33.95
   1   3  18  447.71   14.45
   1   3  18  435.66   15.26
   1   3  19   16.76    2.88
   1   3  19   20.65    2.78
   1   3  20   60.76    4.82
   1   3  20   60.02    5.31
   1   3  21  141.83    8.43
   1   3  22  273.45   12.46
   1   3  23 2842.83   65.20
   1   3  24   85.46    7.03
   1   3  25  513.51   19.23
   1  -3 -26  217.50   15.47
   1   3  26  168.82   10.21
   1  -3 -27   25.77    6.13
   1  -3 -28  297.88   18.90
   1  -3 -29  159.33   13.39
   1  -3 -30  207.59   15.24
   1  -3 -31 1233.87   41.81
   1  -3 -32   82.54    9.42
   1  -3 -33  257.53   15.63
   1   4 -33   18.18    5.06
   1   4 -32  211.68   15.08
   1   4 -31  207.34   15.79
   1   4 -30  168.73   14.75
   1   4 -29   32.52    7.38
   1   4 -28  121.91   12.74
   1   4 -27  258.11   18.56
   1   4 -26  333.66   21.12
   1   4 -25  169.68   14.98
   1   4 -24  181.25   14.97
   1   4 -23  437.65   22.71
  -1   4  23  323.44   14.34
  -1   4  22  402.99   15.13
  -1   4  22  349.20   14.99
   1   4 -21   31.52    5.80
  -1   4  21   22.85    3.55
  -1   4  21   27.71    3.64
  -1   4  20   43.96    4.36
  -1   4  20   37.12    4.26
  -1   4  19  549.89   18.37
  -1   4  19  567.77   18.05
   1   4 -18  397.50   18.48
  -1   4  18  354.06   13.45
  -1   4  18  381.16   13.43
   1   4 -17   29.76    4.79
  -1   4  17   30.52    3.54
  -1   4  17   32.31    3.42
   1   4 -16  190.36   11.45
   1  -4  16  161.28    8.81
  -1   4  16  180.00    8.13
  -1   4  16  183.09    8.50
   1   4 -15  468.95   18.57
   1  -4  15  425.75   15.33
  -1   4  15  472.70   14.93
  -1   4  15  470.69   14.41
   1   4 -14  275.03   13.15
  -1   4  14  257.04   11.96
  -1   4  14  272.93    9.90
  -1   4  14  293.24   10.65
  -1   4  13   99.44    6.75
   1  -4  13   80.18    5.31
   1   4 -13   79.10    6.59
  -1   4  13   86.46    4.94
  -1   4  13   88.70    5.30
  -1  -4 -12   67.72    5.29
   1   4 -12   54.27    5.23
  -1   4  12   60.01    5.00
   1  -4  12   57.07    4.18
  -1   4  12   61.63    4.02
  -1   4  12   64.70    4.34
  -1   4  11  133.56    7.33
  -1  -4 -11  154.31    7.84
   1  -4  11  130.62    6.21
   1   4 -11  133.82    7.96
  -1   4  11  154.47    6.75
  -1   4  11  140.31    6.21
   1   4 -10 1842.20   46.55
  -1   4  10 1963.71   45.56
  -1  -4 -10 2237.95   46.37
   1  -4  10 1994.84   43.44
  -1   4  10 2029.02   43.33
  -1   4  10 2168.21   44.28
  -1  -4  -9  372.31   12.02
   1  -4   9  327.17   10.06
  -1   4   9  316.21   11.34
   1   4  -9  294.22   11.92
  -1   4   9  319.46   10.01
  -1   4   9  350.94   10.76
  -1  -4  -8  124.27    6.12
   1   4  -8  104.39    6.19
  -1   4   8  114.18    5.86
   1  -4   8  113.17    4.82
  -1   4   8  112.44    5.07
   1   4  -7  819.61   21.07
  -1  -4  -7  834.94   20.13
   1   4  -7  693.81   20.34
  -1   4   7  769.16   19.63
  -1   4   7  750.50   18.51
   1   4  -6  758.04   19.34
   1   4  -6  666.66   19.14
  -1   4   6  718.04   18.16
  -1  -4  -6  763.08   18.63
  -1   4   6  699.19   17.42
  -1   4   6  751.06   17.78
  -1  -4  -5 1836.76   38.39
  -1   4   5 1730.02   37.74
  -1   4   4  144.30    5.48
  -1  -4  -4  145.88    5.85
  -1   4   3  383.80    8.85
  -1  -4  -3  373.87   10.66
  -1   4   3  367.55    9.90
  -1   4   2 2683.10   52.17
   1  -4   2 2689.07   51.75
  -1  -4  -2 2750.55   54.65
  -1   4   2 2686.94   53.16
   1  -4   1 1349.26   27.98
  -1   4   1 1350.24   27.66
   1  -4   1 1380.06   27.05
  -1  -4  -1 1383.28   29.47
   1  -4   0    8.32    0.91
   1  -4   0   10.99    0.91
   1  -4  -1 1467.46   29.73
   1  -4  -2 2758.13   54.42
   1  -4  -3  438.12   10.87
   1   4   3  390.59   11.26
   1   4   4  160.79    4.05
   1  -4  -4  165.48    5.91
   1   4   4  148.98    6.12
   1  -4  -5 1796.54   38.17
  -1   4  -6  670.11   17.60
  -1   4  -7  710.13   19.27
   1   4   7  756.86   18.94
   1   4   7  734.66   18.64
  -1   4  -8  119.01    6.14
   1   4   8  128.54    5.90
   1   4   8  120.03    5.57
  -1   4  -9  357.64   12.17
   1   4   9  333.72   10.65
   1   4   9  339.95   10.99
   1   4  10 2056.34   44.76
   1   4  10 2052.21   44.14
   1   4  11  154.81    7.09
   1   4  11  144.54    6.57
   1   4  12   69.42    4.47
   1   4  12   78.25    5.00
   1   4  13   90.82    6.40
   1   4  13   95.89    5.75
   1   4  13   99.31    5.54
   1   4  14  317.91   11.23
   1   4  14  319.52   11.64
   1   4  15  436.76   13.82
   1   4  15  460.07   14.67
   1   4  16  183.47    8.96
   1   4  16  193.65    8.55
   1   4  17   17.09    2.56
   1   4  17   13.45    2.52
   1   4  18  361.07   13.02
   1   4  18  351.44   13.76
   1   4  19  540.46   18.42
   1   4  19  562.46   17.62
   1   4  20   45.33    4.39
   1   4  20   39.86    4.47
   1   4  21   28.98    4.07
   1   4  21   28.35    3.58
   1   4  22  355.91   13.74
   1   4  22  341.49   14.68
   1   4  23  316.79   14.26
   1   4  24  127.82    8.91
   1   4  25  145.75    9.63
   1   4  26  241.46   12.74
   1  -4 -27  200.36   14.81
   1   4  27  148.32    9.83
   1  -4 -28  127.67   12.08
   1  -4 -29   25.78    6.26
   1  -4 -30  152.18   12.87
   1  -4 -31  170.46   13.41
   1  -4 -32  184.98   13.71
   1  -4 -33   15.39    4.68
   1   5 -33  208.79   13.68
   1   5 -32  184.51   13.65
   1   5 -31  896.33   34.57
   1   5 -30  515.75   26.00
   1   5 -29  297.63   19.85
   1   5 -28  412.15   24.04
   1   5 -27  104.28   11.86
   1   5 -26  681.12   31.73
   1   5 -25  585.78   28.62
   1   5 -24  411.63   22.68
  -1   5  24  269.30   13.35
  -1   5  23  816.81   25.01
  -1   5  23  770.13   25.36
  -1   5  22  610.32   20.26
  -1   5  22  555.12   20.23
  -1   5  21  431.17   16.78
  -1   5  21  454.44   16.50
   1   5 -20   58.01    7.46
  -1   5  20   46.80    4.85
  -1   5  20   48.38    4.68
   1   5 -19   77.53    8.46
  -1   5  19   68.77    5.42
  -1   5  19   67.76    5.62
  -1   5  18  625.36   19.22
  -1   5  18  610.58   19.56
  -1   5  17 1056.46   27.74
  -1   5  17 1042.26   28.37
   1   5 -16  438.67   18.98
  -1   5  16  417.95   14.55
  -1   5  16  411.52   13.96
   1   5 -15 2902.59   68.22
  -1   5  15 2747.82   60.54
  -1   5  15 2910.69   61.76
   1   5 -14 1796.23   46.10
  -1   5  14 1883.21   41.05
  -1   5  14 1780.30   39.84
  -1  -5 -13 1162.61   30.03
   1  -5  13  964.93   25.88
  -1   5  13  987.33   28.53
   1   5 -13 1037.87   30.79
  -1   5  13 1087.83   26.78
  -1   5  13 1059.63   25.93
   1   5 -12  306.77   13.69
  -1  -5 -12  331.99   13.01
   1  -5  12  282.05   10.42
  -1   5  12  286.01   12.15
  -1   5  12  304.31   10.59
  -1   5  12  313.91   11.16
  -1   5  11    5.62    1.39
  -1   5  11    5.68    1.69
  -1  -5 -11    8.02    1.93
   1  -5  11    4.42    1.22
  -1   5  11    4.42    1.37
  -1   5  10  772.14   21.68
   1   5 -10  763.08   23.25
   1  -5  10  725.53   19.19
  -1   5  10  785.90   19.83
   1   5  -9 2205.94   47.82
   1   5  -9 2264.20   52.54
  -1   5   9 2305.79   50.63
   1  -5   9 2241.40   47.83
  -1   5   9 2353.26   48.83
   1   5  -8   63.43    3.85
  -1   5   8   78.56    4.40
   1   5  -8   80.25    5.46
  -1  -5  -8   69.49    4.74
   1   5  -8   58.11    4.90
  -1   5   8   63.34    3.98
   1   5  -7 2775.55   59.20
  -1   5   7 3245.46   60.29
   1   5  -7 2954.54   61.99
  -1   5   7 2842.43   60.49
   1   5  -7 2552.50   61.90
  -1  -5  -7 3003.22   61.23
  -1   5   7 2801.49   59.38
  -1   5   7 2994.18   59.84
   1   5  -6 2234.77   49.21
  -1   5   6 2605.58   50.02
   1   5  -6 2462.38   51.54
  -1   5   6 2326.87   49.90
   1   5  -6 2068.77   51.17
  -1  -5  -6 2461.64   50.62
  -1   5   6 2393.35   49.35
   1   5  -5   57.12    3.67
  -1   5   5   62.90    3.82
   1   5  -5   61.65    4.22
  -1  -5  -5   64.01    4.08
  -1   5   5   71.47    3.98
   1   5  -5   53.52    4.21
  -1   5   5   55.75    3.42
  -1   5   4 1137.29   22.21
   1   5  -4 1087.02   25.80
  -1   5   4 1038.09   24.21
  -1  -5  -4 1103.30   25.34
  -1   5   4 1034.69   24.23
  -1   5   3   91.34    4.09
  -1  -5  -3  100.62    4.91
   1  -5   3  105.44    3.35
  -1   5   3   90.37    3.06
  -1  -5  -2  225.93    7.85
   1  -5   2  219.14    5.81
  -1   5   2  223.28    6.80
   1  -5   2  227.25    6.71
  -1  -5  -1 2222.31   45.08
   1  -5   1 2165.75   42.32
   1  -5   1 2080.36   42.96
  -1  -5   0   29.22    2.47
   1  -5   0   29.56    1.79
   1  -5  -1 2223.89   44.92
  -1  -5   1 2285.92   47.07
   1  -5  -2  276.20    7.99
   1  -5  -3   90.78    4.12
  -1   5  -3   80.48    4.72
  -1   5  -4 1038.43   24.32
  -1   5  -4 1014.90   24.95
   1  -5  -4 1054.55   23.71
   1   5   4 1023.10   24.51
  -1   5  -5   79.62    4.40
   1   5   5   89.20    2.49
  -1   5  -5   78.13    4.75
   1   5   5   76.45    4.34
   1  -5  -5   84.56    4.48
   1   5   5   79.01    4.73
   1   5   6 2378.51   48.64
  -1   5  -6 2316.58   48.61
  -1   5  -6 2472.39   50.36
   1   5   6 2349.32   50.22
   1   5   6 2243.30   48.88
  -1   5  -6 2163.86   49.68
   1  -5  -6 2480.76   49.56
   1   5   6 2215.83   48.82
   1   5   7 2917.26   58.21
  -1   5  -7 2773.60   58.26
  -1   5  -7 2948.17   60.48
  -1   5  -7 2684.32   60.02
   1   5   7 2945.28   60.69
   1   5   7 2791.34   58.93
   1   5   8   54.81    3.43
  -1   5  -8   66.52    4.70
  -1   5  -8   59.51    3.69
  -1   5  -8   54.54    4.33
   1   5   8   65.81    4.75
   1   5   8   59.62    4.05
   1   5   9 2294.70   48.89
  -1   5  -9 2489.42   52.86
   1   5   9 2393.37   52.83
  -1   5  -9 2290.19   52.40
   1   5   9 2432.84   51.25
   1   5   9 2425.56   50.97
  -1   5 -10  887.97   24.17
   1   5  10  829.86   23.74
   1   5  10  842.29   21.94
   1   5  10  886.15   22.71
   1   5  11    6.75    1.59
  -1   5 -11    5.57    1.18
   1   5  11    9.73    2.14
   1   5  11    8.53    1.80
   1   5  12  297.65   10.94
   1   5  12  304.05   11.43
   1   5  13 1047.22   26.47
   1   5  13 1031.18   26.93
   1   5  14 1814.26   41.85
   1   5  14 1832.27   42.56
   1   5  15 2931.38   63.66
   1   5  15 2891.83   62.72
   1   5  16  406.98   14.20
   1   5  16  414.46   14.95
   1   5  17 1067.19   28.83
   1   5  17 1048.30   27.75
   1   5  18  634.76   20.56
   1   5  18  646.12   19.82
   1   5  19   71.63    6.02
   1   5  19   71.81    5.59
   1   5  20   56.65    5.06
   1   5  20   48.93    5.16
   1   5  21  415.58   16.59
   1   5  21  425.51   15.70
   1   5  22  609.72   19.77
   1   5  22  551.87   20.29
   1   5  23  830.10   24.63
   1   5  23  750.89   25.10
   1   5  24  306.61   14.61
   1   5  25  369.20   16.47
   1   5  26  452.36   18.63
   1   5  27   68.18    6.70
   1  -5 -28  321.55   18.99
   1  -5 -29  261.34   17.29
   1  -5 -30  478.27   23.71
   1  -5 -31  872.14   32.65
   1  -5 -32  182.21   13.22
   1  -5 -33  223.73   14.27
   1   6 -32   35.33    6.39
   1   6 -31  189.61   14.17
   1   6 -30   37.57    7.26
   1   6 -29   38.87    7.51
   1   6 -28   32.58    7.21
   1   6 -27  265.93   18.78
   1   6 -26  107.64   12.09
   1   6 -25   74.74    9.99
  -1   6  24   48.78    5.20
  -1   6  24   48.11    5.48
  -1   6  23  291.99   13.30
  -1   6  23  266.59   13.22
   1   6 -22   27.08    6.00
  -1   6  22   25.36    3.77
  -1   6  22   19.01    3.62
   1   6 -21   45.18    7.28
  -1   6  21   41.34    4.63
  -1   6  21   39.10    4.83
   1   6 -20   39.86    6.74
  -1   6  20   57.68    5.23
  -1   6  20   39.40    4.70
  -1   6  19  341.00   14.04
  -1   6  19  336.62   13.42
  -1   6  18   61.39    5.37
  -1   6  18   59.28    5.04
   1   6 -17  111.19    9.74
  -1   6  17  103.42    6.58
  -1   6  17  106.00    6.93
   1   6 -16   37.50    5.52
  -1   6  16   27.08    3.30
  -1   6  16   30.00    3.62
   1   6 -15  481.53   20.24
  -1   6  15  473.14   15.95
  -1   6  15  453.01   15.06
   1   6 -14   67.91    6.81
  -1   6  14   61.33    4.92
  -1   6  14   61.74    4.65
  -1   6  13   86.09    4.80
  -1   6  13   82.36    5.40
  -1   6  13   94.12    5.97
  -1   6  12    5.02    1.49
  -1   6  12    5.77    1.41
   1  -6  12    8.45    1.63
  -1   6  12    6.09    1.87
   1   6 -12    5.89    2.15
  -1   6  11  737.85   18.42
  -1   6  11  643.99   20.22
  -1  -6 -11  739.39   21.46
   1  -6  11  586.90   17.19
   1   6 -11  695.59   22.87
  -1   6  11  663.71   18.45
   1   6 -10  406.59   12.56
   1  -6  10  401.30   12.28
  -1  -6 -10  479.78   15.70
  -1   6  10  425.59   14.78
   1   6 -10  452.37   16.90
  -1   6  10  453.88   13.60
   1   6  -9   86.21    4.84
   1   6  -9   88.02    6.29
  -1  -6  -9   92.61    6.01
   1   6  -9   90.45    6.59
  -1   6   9   83.60    5.55
  -1   6   9   90.06    5.26
  -1   6   9   79.83    4.89
   1   6  -8   18.80    2.30
   1   6  -8   22.50    3.11
  -1   6   8   29.51    3.10
  -1  -6  -8   22.08    2.83
   1   6  -8   18.02    2.95
  -1   6   8   24.00    2.59
  -1   6   8   21.82    2.48
   1   6  -7  492.07   14.74
   1   6  -7  554.18   16.86
   1   6  -7  489.87   16.93
  -1  -6  -7  535.33   16.10
  -1   6   7  517.18   15.49
  -1   6   7  535.98   14.86
   1   6  -6    4.34    1.32
  -1   6   6    3.76    1.29
   1   6  -6    4.93    1.61
  -1   6   6    5.33    0.83
  -1   6   6    6.18    1.39
   1   6  -6    2.96    1.58
  -1  -6  -6    4.45    1.32
  -1   6   6    4.78    1.24
   1   6  -5  340.45   11.30
  -1   6   5  384.76   11.86
   1   6  -5  361.13   12.37
  -1   6   5  368.44    8.53
   1   6  -5  312.13   12.52
  -1   6   5  337.53   10.96
  -1  -6  -5  366.31   11.98
   1  -6   5  353.49    9.37
  -1   6   5  353.96   10.81
  -1   6   5  334.50   10.84
   1   6  -4  501.85   14.76
  -1   6   4  552.30   15.12
   1   6  -4  525.56   15.47
  -1   6   4  512.54   13.80
   1  -6   4  504.78   11.93
  -1  -6  -4  513.82   14.89
  -1   6   4  521.63   14.13
  -1   6   4  504.63   13.69
   1   6  -3  246.61    9.14
   1  -6   3  244.27    7.68
  -1   6   3  265.90    9.31
  -1   6   3  250.18    8.05
  -1  -6  -3  261.43    9.21
   1  -6   3  250.29    6.78
  -1   6   3  234.84    8.29
  -1   6   3  234.89    7.92
  -1   6   2   21.10    2.42
   1   6  -2   24.01    2.55
   1  -6   2   25.60    1.93
  -1  -6  -2   23.13    2.40
   1  -6   2   23.53    1.62
  -1   6   2   20.75    2.08
   1   6  -1  994.63   23.81
  -1  -6  -1 1001.99   23.30
   1  -6   1  975.34   20.58
  -1   6   1  936.47   22.03
   1   6   0    3.42    1.20
  -1  -6   0    6.49    1.34
   1  -6   0    8.02    1.05
  -1   6   0    3.95    1.20
  -1   6  -1  937.03   23.55
  -1  -6   1 1011.08   23.66
   1  -6  -1  946.90   21.34
  -1   6  -2   46.83    3.57
   1   6   2   52.42    3.82
   1  -6  -2   52.26    3.08
   1   6   3  270.88    9.59
   1   6   3  246.16    8.63
   1  -6  -3  266.66    8.55
  -1   6  -3  261.59    9.38
   1   6   4  545.69   15.30
   1   6   4  496.15   14.39
  -1   6  -4  517.72   15.82
   1  -6  -4  546.00   14.38
  -1   6  -4  539.06   15.25
   1   6   5  357.78   11.47
  -1   6  -5  332.21   11.14
   1   6   5  320.02   10.81
   1   6   5  324.73   11.45
   1  -6  -5  356.55   11.09
  -1   6  -5  371.81   12.50
   1   6   6   15.50    2.13
  -1   6  -6   14.52    2.32
  -1   6  -6   17.11    2.21
  -1   6  -6   15.66    2.38
   1   6   6   16.19    2.17
   1  -6  -6   15.69    2.12
   1   6   6   12.11    1.94
   1   6   7  522.91   14.87
  -1   6  -7  523.83   16.15
   1   6   7  522.02   10.97
   1   6   7  514.31   16.24
  -1   6  -7  466.62   15.55
   1  -6  -7  530.63   15.57
   1   6   7  473.28   14.81
   1   6   7  475.31   14.74
   1   6   8   26.39    2.71
  -1   6  -8   27.94    3.28
   1   6   8   25.64    3.14
  -1   6  -8   28.42    3.27
   1   6   8   24.75    2.82
   1   6   8   23.59    2.75
   1   6   9   68.72    4.31
  -1   6  -9   70.37    5.30
   1   6   9   65.73    5.17
   1   6   9   61.11    4.45
   1   6  10  437.77   12.90
  -1   6 -10  448.42   15.65
   1   6  10  417.61   15.36
   1   6  10  440.48   14.13
  -1   6 -11  649.91   20.79
   1   6  11  649.04   20.68
   1   6  11  707.88   19.60
   1   6  11  666.38   18.90
  -1   6 -12    7.62    1.52
   1   6  12   13.86    2.33
   1   6  12    9.30    2.08
   1   6  13   87.13    5.78
   1   6  13   91.58    6.15
   1   6  14   82.78    5.96
   1   6  14   86.09    5.87
   1   6  15  450.56   15.56
   1   6  15  460.52   16.15
   1   6  16   36.74    3.98
   1   6  16   36.90    4.24
   1   6  17   89.42    6.27
   1   6  17   85.66    6.51
   1   6  18   62.62    5.34
   1   6  18   51.65    5.20
   1   6  19  340.91   14.50
   1   6  19  347.78   13.94
   1   6  20   32.39    4.47
   1   6  20   26.32    3.75
   1   6  21   42.76    4.84
   1   6  21   42.61    5.22
   1   6  22   34.47    4.74
   1   6  22   37.95    4.59
   1   6  23  310.04   13.69
   1   6  23  281.66   13.92
   1   6  24   42.67    5.43
   1   6  24   41.32    4.93
   1   6  25   60.01    6.44
   1   6  26   71.11    6.97
   1   6  27  192.97   11.58
   1  -6 -29   36.63    6.90
   1  -6 -30   45.56    7.49
   1  -6 -31  161.99   12.66
   1  -6 -32   35.36    6.16
   1   7 -32  164.04   12.27
   1   7 -31  359.58   19.33
   1   7 -30  299.12   18.34
   1   7 -29  425.77   22.99
   1   7 -28  302.73   19.52
   1   7 -27  292.18   19.12
   1   7 -26  307.54   19.87
   1   7 -25  284.18   18.91
  -1   7  24  117.53    8.29
  -1   7  24  115.38    8.49
  -1   7  23  408.01   17.23
  -1   7  23  429.38   17.06
  -1   7  22  567.96   20.89
  -1   7  22  568.28   20.23
  -1   7  21  559.51   19.82
  -1   7  21  546.20   20.23
   1   7 -20   79.59    9.23
  -1   7  20   64.01    6.18
  -1   7  20   65.97    5.87
  -1   7  19  254.48   11.69
  -1   7  19  263.19   12.41
  -1   7  18 1009.63   28.60
  -1   7  18 1040.39   29.50
  -1   7  17  569.81   19.36
  -1   7  17  570.63   18.68
   1   7 -16   95.71    9.02
  -1   7  16   78.80    5.84
  -1   7  16   92.86    6.58
   1   7 -15  596.57   23.46
  -1   7  15  538.47   17.43
  -1   7  15  549.80   18.22
   1   7 -14 1623.77   43.48
  -1   7  14 1431.85   35.82
  -1   7  13  406.35   13.18
   1   7 -13  437.36   18.48
  -1   7  13  409.67   14.22
  -1   7  12   74.49    4.95
   1   7 -12   75.17    6.99
  -1   7  12   68.69    5.04
  -1   7  11  177.97    7.97
  -1   7  11  152.75    8.71
   1   7 -11  159.86   10.00
  -1   7  11  170.11    8.17
  -1   7  11  162.51    7.80
   1   7 -10 1842.66   43.44
  -1   7  10 2272.19   45.51
   1   7 -10 2088.99   49.12
  -1   7  10 2009.04   46.69
   1   7 -10 2036.11   49.54
   1  -7  10 1723.03   41.72
  -1  -7 -10 2120.26   47.78
  -1   7  10 2146.64   45.29
  -1   7  10 2046.47   44.71
   1   7  -9  694.51   19.73
   1   7  -9  753.31   23.13
  -1   7   9  731.48   21.43
   1   7  -9  741.93   23.66
  -1  -7  -9  806.79   22.68
  -1   7   9  781.32   20.66
  -1   7   9  735.95   20.18
   1   7  -8  237.40    9.70
   1   7  -8  269.95   11.75
  -1   7   8  260.56   10.60
   1   7  -8  238.30   11.74
  -1  -7  -8  265.78   11.19
  -1   7   8  260.10    9.96
   1   7  -7 2076.74   49.50
   1   7  -7 2243.53   52.17
  -1   7   7 2453.64   45.29
  -1   7   7 2217.08   50.28
  -1  -7  -7 2383.55   51.79
   1   7  -7 2109.43   52.92
  -1   7   7 2225.79   49.37
   1   7  -6 2763.07   60.59
   1   7  -6 2882.43   62.58
   1  -7   6 2939.00   57.56
   1   7  -6 2672.15   63.49
  -1   7   6 2882.85   60.52
  -1  -7  -6 2991.90   61.97
  -1   7   6 2799.29   60.04
  -1   7   6 2871.45   59.78
   1   7  -5  801.00   21.86
   1   7  -5  850.73   23.18
   1  -7   5  821.05   18.62
  -1  -7  -5  867.40   22.68
  -1   7   5  860.30   21.47
  -1   7   5  816.68   21.18
  -1   7   5  822.97   20.75
   1   7  -4  507.45   15.50
   1   7  -4  520.41   16.20
   1  -7   4  508.50   13.78
  -1  -7  -4  526.44   15.67
   1  -7   4  507.89   12.31
  -1   7   4  502.03   14.23
  -1   7   4  497.29   14.53
  -1   7   4  513.56   14.16
   1   7  -3  632.63   18.04
  -1   7   3  657.89   18.29
   1  -7   3  647.29   15.86
  -1  -7  -3  647.50   17.94
   1  -7   3  632.42   14.68
  -1   7   3  601.55   16.10
  -1   7   3  611.26   16.74
   1   7  -2 2756.47   56.97
   1  -7   2 2532.59   52.99
   1  -7   2 2660.79   52.56
  -1  -7  -2 2744.75   56.31
  -1   7   2 2565.63   53.76
  -1   7   2 2648.26   54.87
   1   7  -1 1420.63   33.43
  -1  -7  -1 1428.28   32.69
   1  -7   1 1421.54   29.86
  -1   7   1 1362.02   31.26
   1   7   0    3.69    1.46
  -1   7   0    3.23    1.04
  -1   7   0    4.44    1.45
  -1  -7   0    3.32    1.19
   1  -7   0    2.30    0.78
   1   7   0    3.80    1.09
  -1   7  -1 1441.66   33.48
   1  -7  -1 1484.58   30.89
  -1  -7   1 1442.06   32.91
  -1   7  -1 1399.94   30.91
   1  -7  -2 2725.81   54.96
  -1  -7   2 2739.08   57.08
  -1   7  -2 2770.52   57.48
   1   7   3  661.99   18.41
  -1   7  -3  614.12   17.97
   1   7   3  596.03   16.71
   1  -7  -3  659.90   16.74
  -1  -7   3  640.23   18.15
   1   7   4  538.20   15.85
  -1   7  -4  507.85   15.49
   1   7   4  481.13   14.36
  -1  -7   4  493.64   15.54
   1  -7  -4  516.26   14.40
   1   7   4  486.73   14.87
   1   7   5  912.13   23.32
   1  -7  -5  908.44   22.32
   1   7   6 3096.97   62.67
  -1   7  -6 2882.24   63.24
  -1   7  -6 2768.11   63.16
   1  -7  -6 3115.91   62.29
   1   7   6 2868.85   62.88
   1   7   6 2785.77   61.28
   1   7   7 2421.86   50.53
  -1   7  -7 2260.26   51.50
   1   7   7 2186.28   51.37
   1  -7  -7 2356.36   50.50
   1   7   7 2171.61   49.58
   1   7   8  268.24   10.17
  -1   7  -8  251.46   10.95
   1   7   8  243.20   10.98
   1   7   8  233.36    9.77
   1   7   8  236.88    9.89
   1   7   9  834.98   21.07
   1   7   9  725.72   15.22
  -1   7  -9  805.98   22.97
   1   7   9  757.03   22.92
   1   7   9  762.06   21.17
   1   7   9  793.27   21.54
   1   7  10 2195.00   46.49
  -1   7 -10 2102.73   49.51
   1   7  10 2151.25   41.68
   1   7  10 2054.82   49.97
   1   7  10 2083.68   47.36
  -1   7 -11  157.63    9.15
  -1   7 -11  134.49    6.71
   1   7  11  147.37    7.81
  -1   7 -12   60.14    4.28
   1   7  12   79.05    5.68
   1   7  13  414.45   15.07
   1   7  13  406.28   14.75
   1   7  14 1474.72   36.91
   1   7  14 1420.17   36.01
   1   7  15  562.12   18.97
   1   7  15  550.26   18.34
   1   7  16   71.54    6.06
   1   7  16   78.32    6.02
   1   7  17  555.54   18.78
   1   7  17  579.85   19.91
   1   7  18 1021.73   30.09
   1   7  18 1063.39   29.40
   1   7  19  260.39   12.86
   1   7  19  274.22   12.46
   1   7  20   77.61    6.94
   1   7  20  104.07    7.40
   1   7  21  551.20   19.56
   1   7  21  535.99   20.37
   1   7  22  599.41   20.62
   1   7  22  546.40   20.79
   1   7  23  415.35   17.64
   1   7  23  440.04   17.21
   1   7  24  128.13    8.78
   1   7  24  130.93    9.47
   1   7  25  209.85   11.33
   1   7  25  195.74   11.78
   1   7  26  211.47   12.23
   1   7  27  209.04   12.07
   1  -7 -30  332.86   18.65
   1  -7 -31  416.32   20.52
   1   8 -31  173.51   12.83
   1   8 -30   33.39    6.30
   1   8 -29   44.13    7.13
   1   8 -28   20.06    5.30
   1   8 -27  319.26   19.81
   1   8 -26   31.24    6.25
  -1   8  25   45.19    5.20
   1   8 -25   69.60   10.19
  -1   8  24   13.99    3.19
   1   8 -24   18.12    5.13
  -1   8  24    8.46    2.92
  -1   8  23  347.14   15.96
  -1   8  23  365.77   15.61
   1   8 -22   49.91    7.85
  -1   8  22   39.63    4.83
  -1   8  22   37.98    5.12
   1   8 -21   42.80    7.18
  -1   8  21   51.60    5.72
  -1   8  21   44.57    5.13
   1   8 -20   26.82    5.80
  -1   8  20   22.43    3.75
  -1   8  20   19.06    3.68
  -1   8  19  604.48   21.35
  -1   8  19  599.02   20.45
   1   8 -18  157.28   12.36
  -1   8  18  139.64    8.45
  -1   8  18  144.23    8.96
  -1   8  17  184.99   10.04
  -1   8  17  177.22    9.53
   1   8 -16   34.07    5.73
  -1   8  16   24.56    3.51
   1   8 -15  306.79   16.47
  -1   8  15  275.00   11.82
  -1   8  14   65.32    4.72
   1   8 -14   65.52    7.31
  -1   8  14   65.41    5.30
  -1   8  13   86.57    5.61
   1   8 -13   82.22    7.94
  -1   8  13   84.98    6.00
  -1   8  13   85.45    6.14
  -1   8  12    2.01    1.36
  -1   8  12    5.78    1.69
   1   8 -12    5.06    2.38
  -1   8  12    3.39    1.64
  -1   8  11  495.77   15.96
   1   8 -11  476.24   19.33
  -1   8  11  476.34   15.87
  -1   8  11  451.90   15.35
   1   8 -10   39.41    3.76
  -1   8  10   53.48    4.57
   1   8 -10   47.27    5.28
  -1   8  10   42.59    4.44
   1   8 -10   53.29    5.80
  -1   8  10   45.94    4.16
   1   8  -9  208.39    9.34
  -1   8   9  241.66   10.26
   1   8  -9  219.15   11.23
  -1   8   9  215.34   10.19
   1   8  -9  225.22   12.07
  -1   8   9  223.54    9.46
   1   8  -8   42.39    3.99
  -1   8   8   47.76    4.33
   1   8  -8   48.75    5.00
   1   8  -8   52.98    5.58
  -1  -8  -8   48.62    4.69
  -1   8   8   42.79    4.20
  -1   8   8   47.90    3.95
   1   8  -7  680.06   20.14
   1   8  -7  706.76   22.03
  -1   8   7  729.01   20.56
   1  -8   7  694.17   17.04
  -1  -8  -7  743.30   21.70
  -1   8   7  689.72   19.69
  -1   8   7  717.16   19.51
   1   8  -6   31.06    3.41
   1   8  -6   33.80    3.96
  -1  -8  -6   28.58    3.43
  -1   8   6   29.43    3.14
   1  -8   6   30.79    2.25
  -1   8   6   28.04    2.95
  -1   8   6   29.40    3.15
   1   8  -5  752.83   21.46
   1  -8   5  776.70   19.85
   1   8  -5  748.60   22.29
  -1  -8  -5  769.51   21.75
  -1   8   5  760.93   20.27
   1  -8   5  764.69   17.62
  -1   8   5  759.87   20.50
  -1   8   5  747.87   19.77
   1   8  -4   29.97    3.41
   1  -8   4   25.44    2.44
   1   8  -4   25.23    3.33
   1  -8   4   31.53    2.20
  -1  -8  -4   29.55    3.28
  -1   8   4   26.81    2.89
  -1   8   4   23.80    2.52
   1   8  -3  785.64   21.89
   1  -8   3  725.71   18.43
   1  -8   3  801.62   17.95
  -1  -8  -3  772.35   21.33
  -1   8   3  770.03   20.21
  -1   8   3  756.24   19.20
   1   8  -2  182.71    8.65
  -1  -8  -2  183.60    8.33
   1  -8   2  193.80    6.47
  -1   8   2  169.31    7.35
  -1   8   2  168.97    6.71
   1   8  -1 1500.35   35.05
   1   8  -1 1363.26   31.31
   1  -8   1 1488.54   30.96
  -1  -8  -1 1403.01   33.77
  -1   8   1 1389.26   30.98
  -1   8   1 1422.83   32.37
   1   8   0    4.81    1.71
  -1   8   0    3.75    1.20
  -1  -8   0    2.93    1.32
   1  -8   0    4.07    1.06
   1   8   0    2.23    0.99
  -1   8   0    1.78    0.79
   1  -8  -1 1494.01   31.78
   1   8   1 1350.64   31.84
  -1  -8   1 1488.50   34.12
  -1   8  -1 1410.06   31.69
   1   8   1 1363.21   32.81
   1  -8  -2  190.63    7.36
   1   8   2  172.30    7.30
  -1  -8   2  184.31    8.34
   1   8   2  172.78    7.82
  -1   8  -2  174.42    6.76
   1   8   3  828.41   22.50
   1  -8  -3  811.04   20.22
  -1  -8   3  795.03   21.76
   1   8   3  724.64   20.65
   1   8   3  745.64   20.03
  -1   8  -3  760.53   18.70
   1   8   4   32.70    3.62
  -1  -8   4   33.33    3.60
   1   8   4   23.04    2.70
  -1   8  -4   26.33    2.24
   1   8   4   26.08    2.99
   1   8   5  861.67   22.92
   1  -8  -5  814.13   21.28
  -1  -8   5  781.88   22.63
   1   8   5  734.39   21.23
   1   8   5  729.03   20.61
   1   8   6   35.32    3.77
   1  -8  -6   30.79    3.33
   1   8   6   28.04    3.15
   1   8   6   25.34    3.17
   1   8   7  797.84   21.97
  -1   8  -7  713.52   22.25
   1  -8  -7  765.09   21.52
   1   8   7  698.73   20.52
  -1   8  -8   39.19    3.88
   1   8   8   42.13    4.12
  -1   8  -8   44.10    4.57
   1   8   8   38.24    4.28
   1   8   8   39.70    3.94
  -1   8  -9  193.20    9.18
  -1   8  -9  210.52   10.77
   1   8   9  227.79   11.25
   1   8   9  217.68    9.91
   1   8   9  220.15    9.92
  -1   8 -10   38.94    4.64
   1   8  10   42.00    3.99
  -1   8 -10   30.79    3.37
   1   8  10   30.11    3.60
   1   8  10   32.28    3.71
  -1   8 -11  435.42   16.98
   1   8  11  456.56   15.64
   1   8  11  443.22   15.49
  -1   8 -12    5.25    2.59
   1   8  12    4.61    1.77
  -1   8 -12    2.89    1.31
  -1   8 -13   71.62    4.99
   1   8  13   89.77    6.48
   1   8  14   84.71    6.44
   1   8  15  296.17   12.76
   1   8  15  267.64   12.49
   1   8  16   35.37    4.28
   1   8  16   35.02    4.48
   1   8  17  191.43   10.22
   1   8  17  182.67   10.50
   1   8  18  115.89    7.95
   1   8  18  111.37    8.24
   1   8  19  587.85   21.38
   1   8  19  594.71   20.63
   1   8  20   26.99    4.46
   1   8  20   27.87    4.06
   1   8  21   60.06    5.99
   1   8  21   59.91    6.36
   1   8  22   48.43    5.82
   1   8  22   61.89    6.05
   1   8  23  352.33   16.11
   1   8  23  375.15   15.89
   1   8  24   18.56    3.73
   1   8  24   17.61    3.84
   1   8  25   51.21    5.61
   1   8  25   51.35    6.02
   1   8  26   27.61    4.33
   1   8  26   23.28    4.23
   1   8  27  225.90   12.46
   1  -8 -30   34.28    5.98
   1  -8 -31  154.04   11.73
   1   9 -30  233.13   14.74
   1   9 -29  295.07   17.63
   1   9 -28  281.73   17.88
   1   9 -27  415.25   22.49
   1   9 -26  404.18   22.36
  -1   9  25  115.99    8.27
   1   9 -25  146.84   13.12
  -1   9  24   91.66    7.54
   1   9 -24  102.26   10.83
  -1   9  24   84.94    7.42
  -1   9  23  113.88    8.23
  -1   9  23  110.97    8.49
  -1   9  22  581.96   21.72
  -1   9  22  581.84   20.92
  -1   9  21  786.04   26.23
  -1   9  21  774.26   25.32
  -1   9  20  232.56   11.94
  -1   9  20  242.24   12.82
  -1   9  19  623.19   21.54
  -1   9  19  641.76   22.46
   1   9 -18  758.71   29.47
  -1   9  18  604.92   21.00
   1   9 -17  256.21   16.04
  -1   9  17  204.38   10.70
   1   9 -16  111.46   10.30
  -1   9  16   92.64    6.93
   1   9 -15  170.20   12.48
  -1   9  15  153.58    8.78
  -1   9  15  156.05    9.07
  -1   9  14  912.28   25.11
  -1   9  14  896.63   26.28
  -1   9  14  949.17   26.94
  -1   9  13  779.35   22.64
  -1   9  13  800.30   23.62
  -1   9  13  749.24   23.10
  -1   9  12   69.73    5.50
  -1   9  12   60.64    5.28
  -1   9  12   68.80    5.55
  -1   9  11  568.19   18.41
   1   9 -11  538.52   21.11
   1   9 -11  553.71   22.22
  -1   9  11  547.64   17.88
   1   9 -10  679.12   21.25
  -1   9  10  827.98   23.41
   1   9 -10  710.78   24.82
   1   9 -10  809.89   26.92
  -1   9  10  795.50   22.22
   1   9  -9   51.77    4.63
  -1   9   9   62.42    5.31
   1   9  -9   59.51    5.99
  -1   9   9   59.22    5.29
  -1   9   9   59.89    4.86
   1   9  -8   54.29    4.83
  -1   9   8   62.46    5.28
   1   9  -8   60.61    5.84
  -1   9   8   62.00    5.27
  -1   9   8   56.86    4.60
  -1   9   8   62.67    4.88
  -1   9   7  895.69   24.95
   1   9  -7  809.50   23.94
   1   9  -7  833.33   25.64
  -1   9   7  893.01   24.02
  -1   9   7  831.58   23.19
  -1   9   7  840.22   22.73
   1   9  -6 1412.81   36.54
  -1   9   6 1599.40   37.78
   1   9  -6 1496.39   38.26
  -1  -9  -6 1513.23   37.60
  -1   9   6 1461.25   34.75
   1   9  -6 1477.31   33.54
  -1   9   6 1495.14   35.63
   1   9  -5 1643.10   39.96
   1   9  -5 1665.20   41.07
  -1  -9  -5 1698.84   40.31
  -1   9   5 1607.16   37.20
  -1   9   5 1630.90   38.21
   1   9  -5 1627.69   36.71
   1   9  -4   13.46    2.64
   1   9  -4    2.69    1.83
  -1  -9  -4    1.82    1.35
  -1   9   4   10.26    2.02
  -1   9   4    1.59    1.16
   1   9  -4   14.99    2.16
   1   9  -3 1447.78   35.81
  -1  -9  -3 1449.92   35.19
   1   9  -3 1378.95   32.74
  -1   9   3 1416.56   33.38
  -1   9   3 1394.39   32.14
   1   9  -2 1462.00   35.14
  -1  -9  -2 1374.19   33.73
  -1   9   2 1339.84   30.68
   1   9  -2 1337.49   30.23
   1   9  -2 1346.08   32.04
  -1   9   2 1350.27   32.02
   1  -9   1   57.26    3.61
  -1  -9  -1   46.20    4.24
  -1   9   1   49.41    3.84
   1   9  -1   48.01    3.45
  -1   9   1   46.92    3.29
   1   9  -1   50.29    4.01
   1   9   0    6.39    1.72
   1   9   0   29.66    3.59
   1  -9   0    5.11    1.28
  -1  -9   0   14.25    2.33
  -1   9   0    5.89    1.22
   1   9   0    4.45    1.28
  -1   9   0   26.20    2.66
  -1  -9   1   41.01    3.97
   1  -9  -1   46.00    3.46
   1   9   1   37.64    3.62
  -1   9  -1   42.83    3.39
   1   9   1   39.77    3.35
   1  -9  -2 1459.34   32.43
  -1  -9   2 1415.56   34.38
  -1   9  -2 1350.44   31.19
   1   9   2 1362.49   33.29
   1   9   2 1341.69   32.10
   1   9   3 1564.24   36.77
   1  -9  -3 1521.24   33.72
  -1  -9   3 1402.14   35.12
  -1   9  -3 1358.14   31.41
   1   9   3 1382.78   34.20
   1   9   3 1368.34   33.17
  -1   9  -4    4.56    1.17
   1   9   4    4.83    2.05
   1   9   4    2.75    1.52
  -1  -9   4    7.28    2.03
   1  -9  -4    4.64    1.53
   1   9   5 1802.00   41.86
   1  -9  -5 1781.74   40.00
  -1  -9   5 1727.78   41.55
   1   9   5 1587.39   38.67
   1   9   5 1565.25   39.37
  -1   9  -6 1440.72   37.24
  -1  -9   6 1496.43   38.55
   1  -9  -6 1588.45   37.18
   1   9   6 1474.29   36.04
   1   9   6 1435.05   36.51
  -1   9  -7  786.00   23.58
  -1  -9   7  770.16   24.48
   1   9   7  824.24   23.04
   1   9   7  806.96   23.28
  -1   9  -8   57.61    5.63
  -1   9  -8   54.71    4.88
   1   9   8   70.63    5.66
   1   9   8   54.92    4.70
  -1   9  -9   48.28    5.34
  -1   9  -9   60.74    5.12
   1   9   9   48.89    4.76
   1   9   9   64.59    5.19
  -1   9 -10  754.49   24.75
   1   9  10  847.89   23.50
  -1   9 -10  697.83   21.90
   1   9  10  779.94   23.26
   1   9  10  782.19   22.83
  -1   9 -11  496.27   19.34
   1   9  11  533.66   17.99
   1   9  11  515.89   17.48
  -1   9 -12   73.56    7.16
  -1   9 -12   63.69    5.14
   1   9  12   77.84    6.12
   1   9  12   70.91    6.01
   1   9  13  743.18   22.87
   1   9  13  755.73   22.81
   1   9  14  879.51   26.47
   1   9  15  166.86    9.68
   1   9  16   81.99    6.69
   1   9  17  190.22   10.60
   1   9  17  190.90   10.95
   1   9  18  672.06   22.88
   1   9  18  702.99   23.90
   1   9  19  674.50   23.55
   1   9  19  667.13   22.67
   1   9  20  242.06   13.07
   1   9  20  240.94   12.31
   1   9  21  738.63   25.44
   1   9  21  764.79   24.89
   1   9  22  592.15   21.15
   1   9  22  572.72   21.69
   1   9  23  122.72    9.02
   1   9  23  126.01    8.77
   1   9  24   86.35    7.78
   1   9  24   94.57    7.60
   1   9  25  107.99    8.52
   1   9  25  115.09    8.30
   1   9  26  283.03   14.17
   1   9  26  314.23   14.07
   1   9  27  297.54   14.22
   1  -9 -30  266.05   15.45
   1  10 -26   68.11    8.77
  -1  10  25   11.75    3.06
   1  10 -25   18.74    5.35
  -1  10  24   10.61    2.98
   1  10 -24    6.54    3.89
  -1  10  23  260.23   13.46
  -1  10  23  270.28   13.19
   1  10 -22   80.16    9.66
  -1  10  22   71.19    6.78
  -1  10  22   74.53    6.71
  -1  10  21   13.39    3.33
   1  10 -21   16.12    5.57
  -1  10  21   10.88    3.19
   1  10 -20   39.63    7.14
  -1  10  20   27.12    4.26
   1  10 -19  499.66   24.16
  -1  10  19  398.90   16.62
   1  10 -18   60.90    8.44
  -1  10  18   51.56    5.51
   1  10 -17   91.76    9.98
  -1  10  17   76.89    6.73
  -1  10  17   80.18    6.73
   1  10 -16   63.66    8.24
  -1  10  16   54.94    5.59
  -1  10  16   49.53    5.29
   1  10 -15   65.11    8.02
  -1  10  15   62.34    5.80
  -1  10  15   59.75    5.64
  -1  10  14  216.43   10.19
   1  10 -14  238.25   14.96
  -1  10  14  221.40   11.03
  -1  10  14  215.61   10.99
  -1  10  13   16.43    2.96
  -1  10  13   13.60    2.87
  -1  10  13   13.08    2.85
  -1  10  12   38.11    4.33
  -1  10  12   36.33    4.21
   1  10 -11  237.03   13.68
  -1  10  11  258.85   12.06
  -1  10  11  253.25   11.33
   1  10 -10  121.62    9.29
   1  10 -10  118.50    7.44
  -1  10  10  134.22    8.35
  -1  10  10  121.51    7.36
   1  10  -9   83.77    7.48
   1  10  -9   71.08    5.78
  -1  10   9   84.02    6.55
  -1  10   9   78.26    5.73
  -1  10   9   85.93    6.09
   1  10  -8   24.80    4.39
  -1  10   8   26.32    3.72
   1  10  -8   24.11    3.48
  -1  10   8   25.07    3.35
  -1  10   8   24.56    3.15
   1  10  -7  434.10   17.54
  -1  10   7  488.92   17.31
   1  10  -7  426.13   16.27
  -1  10   7  461.30   15.09
  -1  10   7  444.42   15.33
   1  10  -6  342.74   14.97
  -1  10   6  363.99   14.59
   1  10  -6  338.26   14.07
  -1  10   6  340.98   12.32
  -1  10   6  343.99   12.93
   1  10  -6  356.16   11.67
   1  10  -5  165.06    9.78
   1  10  -5  178.91    9.63
  -1  10   5  170.25    9.48
  -1  10   5  190.29    8.28
   1  10  -5  168.74    7.61
  -1  10   5  170.56    8.42
  -1  10   4   20.58    3.35
   1  10  -4   19.39    3.31
   1  10  -4   20.16    3.54
  -1 -10  -4   20.25    3.18
  -1  10   4   21.99    2.69
   1  10  -4   19.89    2.60
  -1  10   4   19.29    2.74
  -1  10   3  395.57   15.30
   1  10  -3  412.17   15.58
  -1 -10  -3  393.64   14.84
   1  10  -3  387.91   13.18
  -1  10   3  385.62   13.36
  -1  10   3  384.40   12.49
   1  10  -2  159.30    9.14
  -1 -10  -2  158.14    8.63
  -1  10   2  151.66    6.71
   1  10  -2  152.12    7.58
  -1  10   2  155.54    7.55
   1  10  -1  442.70   16.21
  -1 -10  -1  421.61   15.10
  -1  10   1  398.34   12.03
  -1  10   1  414.02   13.49
   1  10  -1  391.23   12.27
   1  10  -1  416.96   13.93
  -1  10   0    1.13    1.08
   1  10   0    1.66    1.22
  -1  10   0    2.77    1.67
   1  10   0    3.98    1.95
  -1 -10   0    1.90    1.26
   1  10   0    2.39    1.11
  -1  10  -1  422.09   15.76
  -1 -10   1  409.07   14.91
   1  10   1  400.52   12.97
   1  10   1  398.44   14.01
  -1  10  -1  408.85   12.88
  -1  10  -2  154.27    8.96
  -1  10  -2  150.04    6.75
   1  10   2  152.56    7.28
   1  10   2  153.97    8.03
  -1  10  -3  405.33   15.53
  -1  10  -3  385.03   11.96
   1  10   3  380.87   14.03
   1  10   3  389.55   13.32
  -1  10  -4   24.33    3.65
   1  10   4   22.03    3.58
   1  10   4   20.17    2.74
  -1  10  -4   19.86    2.16
   1  10   4   22.99    3.16
  -1  10  -5  169.80    9.50
   1  10   5  169.28    8.84
   1  10   5  177.56    8.50
  -1  10  -6  345.23   14.34
   1  10   6  343.12   13.58
   1  10   6  359.61   13.18
  -1  10  -7  430.95   16.56
   1  10   7  447.00   16.17
   1  10   7  450.74   15.56
   1  10   8   21.39    3.42
  -1  10  -8   21.84    3.40
   1  10   8   19.37    3.17
   1  10   8   27.78    3.47
  -1  10  -9   75.47    7.00
  -1  10  -9   73.11    6.02
   1  10   9   89.44    6.72
   1  10   9   71.80    5.77
  -1  10 -10  124.98    9.10
  -1  10 -10  114.11    7.57
   1  10  10  124.26    7.70
  -1  10 -11  260.97   13.74
   1  10  11  249.02   11.98
   1  10  11  245.82   11.48
  -1  10 -12   41.77    5.81
  -1  10 -12   38.27    4.28
   1  10  12   46.21    4.90
   1  10  12   42.11    4.89
  -1  10 -13   18.47    3.04
   1  10  13   28.86    4.13
   1  10  13   25.73    3.81
   1  10  14  230.74   11.72
   1  10  14  221.47   11.36
   1  10  15   44.04    5.21
   1  10  15   51.91    5.57
   1  10  16   56.34    5.83
   1  10  17   80.20    6.98
   1  10  18   35.39    4.87
   1  10  19  399.65   16.69
   1  10  19  392.48   17.15
   1  10  20   33.40    4.73
   1  10  20   32.16    4.98
   1  10  21   23.95    4.35
   1  10  21   22.28    4.01
   1  10  22   65.28    6.64
   1  10  22   71.55    6.61
   1  10  23  289.88   14.33
   1  10  23  268.07   13.28
   1  10  24    5.82    2.55
   1  10  24    5.06    2.67
   1  10  25   13.26    3.13
   1  10  25   10.78    3.18
   1  10  26   46.62    5.22
   1  10  26   43.35    5.34
   1  10  27  189.36   10.05
  -1  11  25   34.85    4.44
  -1  11  24   45.79    5.17
  -1  11  23    9.18    2.70
  -1  11  22  273.67   13.20
  -1  11  21  423.42   17.21
  -1  11  20  190.36   10.97
  -1  11  19  930.35   28.34
  -1  11  19  917.81   28.79
  -1  11  18  431.25   17.30
  -1  11  18  439.20   17.70
  -1  11  17  125.42    8.74
  -1  11  17  117.95    8.34
  -1  11  16   24.60    3.91
  -1  11  16   22.86    3.92
  -1  11  15   51.15    5.46
  -1  11  15   50.28    5.43
  -1  11  14  390.76   15.11
  -1  11  14  442.51   16.62
  -1  11  14  415.64   16.46
  -1  11  13 1041.33   29.36
  -1  11  13 1020.10   29.14
  -1  11  12  112.14    7.82
  -1  11  12   98.72    7.11
  -1  11  11 1125.80   30.97
  -1  11  11 1023.11   29.16
  -1  11  11 1056.91   28.85
   1  11 -10  365.95   17.72
  -1  11  10  399.36   14.88
  -1  11  10  391.42   15.27
   1  11  -9   31.27    5.28
   1  11  -9   35.13    4.30
  -1  11   9   36.28    4.65
  -1  11   9   35.71    3.96
  -1  11   9   37.86    4.26
   1  11  -8    3.10    2.61
  -1  11   8    7.07    2.52
  -1  11   8    6.83    2.07
   1  11  -8    6.97    2.35
  -1  11   8    4.24    1.74
  -1  11   7    1.15    1.90
   1  11  -7    4.56    2.26
  -1  11   7    4.35    1.94
  -1  11   7    2.35    1.57
   1  11  -6  819.12   27.26
   1  11  -6  850.36   26.31
  -1  11   6  919.10   27.16
  -1  11   6  850.22   24.24
  -1  11   6  860.78   23.48
   1  11  -5 1246.41   36.42
  -1  11   5 1351.11   36.12
   1  11  -5 1312.73   35.80
  -1  11   5 1318.91   31.94
  -1  11   5 1319.37   33.11
   1  11  -5 1310.50   31.65
   1  11  -4   39.87    5.22
  -1  11   4   38.94    4.82
   1  11  -4   34.81    4.67
  -1  11   4   42.37    4.14
   1  11  -4   38.59    3.72
  -1  11   4   44.75    3.85
   1  11  -3  961.97   29.80
  -1  11   3 1048.19   29.77
   1  11  -3 1021.88   29.72
  -1  11   3  991.65   26.35
  -1  11   3  989.94   24.96
   1  11  -3  988.25   25.97
   1  11  -2  592.52   20.49
  -1  11   2  567.75   17.37
   1  11  -2  566.21   17.43
  -1  11   2  549.11   15.85
   1  11  -1   75.82    6.50
   1  11  -1   58.99    4.81
  -1  11   1   64.07    4.77
   1  11   0    1.69    1.24
   1  11   0    6.88    2.45
  -1  11   0    2.83    1.31
  -1  11   0    6.63    2.30
   1  11   0    3.52    1.25
  -1  11  -1   65.51    6.04
   1  11   1   60.41    5.01
   1  11   1   62.73    4.49
  -1  11  -1   58.71    4.33
  -1  11  -2  577.44   20.36
  -1  11  -2  566.11   16.32
   1  11   2  572.79   17.10
   1  11   2  571.07   18.31
  -1  11  -3 1023.64   29.96
   1  11   3 1010.72   27.74
   1  11   3  999.94   26.33
  -1  11  -3  996.97   24.87
  -1  11  -4   39.34    4.84
   1  11   4   38.08    4.88
   1  11   4   44.20    4.55
   1  11   4   38.24    3.81
  -1  11  -5 1271.84   35.58
   1  11   5 1287.77   33.79
   1  11   5 1264.69   32.51
  -1  11  -6  813.28   26.02
   1  11   6  833.52   24.79
   1  11   6  791.32   23.36
   1  11   7    2.97    2.07
  -1  11  -7    3.30    1.98
   1  11   7    3.79    1.94
   1  11   7    2.57    1.62
   1  11   8    1.74    1.71
  -1  11  -8    1.97    1.89
   1  11   8    3.86    1.64
   1  11   9   30.46    4.29
  -1  11  -9   30.66    4.25
   1  11   9   30.91    4.15
   1  11   9   32.58    3.97
  -1  11 -10  397.27   17.90
  -1  11 -10  381.29   15.78
   1  11  10  405.51   15.37
  -1  11 -11  997.82   32.37
  -1  11 -11  955.92   28.66
   1  11  11 1027.21   28.73
  -1  11 -12  105.26    9.47
  -1  11 -12   93.33    7.10
   1  11  12  111.06    7.71
   1  11  13 1003.03   28.97
   1  11  13 1014.82   28.63
   1  11  14  393.88   15.88
   1  11  14  415.12   16.58
   1  11  15   62.37    6.11
   1  11  15   60.50    6.08
   1  11  16   14.61    3.31
   1  11  16   16.90    3.65
   1  11  17  113.53    8.57
   1  11  17  120.64    8.80
   1  11  18  448.00   18.12
   1  11  19  954.90   29.38
   1  11  20  197.59   11.37
   1  11  21  414.25   16.95
   1  11  21  380.95   16.87
   1  11  22  289.94   14.30
   1  11  22  279.15   13.48
   1  11  23   12.92    3.16
   1  11  23   12.22    3.21
   1  11  24   60.12    5.91
   1  11  24   51.91    5.82
   1  11  25   30.78    4.39
   1  11  25   34.00    4.65
   1  11  26  153.43    9.01
   1  11  26  147.56    9.32
   1  11  27  514.98   17.57
  -1  12  24    5.32    2.28
  -1  12  23   84.30    6.87
  -1  12  22   70.09    6.33
  -1  12  21   14.32    3.36
  -1  12  21   12.69    3.22
  -1  12  20   64.53    6.38
  -1  12  20   59.84    6.13
  -1  12  19  144.22    9.41
  -1  12  19  141.83    9.34
  -1  12  18  154.62    9.86
  -1  12  18  156.91    9.86
  -1  12  17   32.80    4.65
  -1  12  17   30.35    4.49
  -1  12  16   30.76    4.43
  -1  12  16   25.69    4.09
  -1  12  15   95.69    7.43
  -1  12  14  236.97   11.92
  -1  12  13   17.44    3.41
  -1  12  13   16.52    3.20
  -1  12  12  155.26    9.65
  -1  12  12  145.12    8.76
  -1  12  12  140.53    8.97
  -1  12  11  332.77   15.02
  -1  12  11  312.53   13.30
  -1  12  11  310.94   13.71
   1  12 -10   97.91    9.14
  -1  12  10  107.45    8.24
  -1  12  10   99.23    6.88
  -1  12  10   92.45    7.08
   1  12  -9   68.10    7.57
  -1  12   9   88.99    7.47
  -1  12   9   74.41    6.24
  -1  12   9   68.31    5.58
   1  12  -8    3.42    2.93
  -1  12   8    4.37    2.09
  -1  12   8    2.93    2.08
  -1  12   8    3.79    1.77
   1  12  -7  122.99    9.66
  -1  12   7  153.16    9.84
   1  12  -7  128.82    8.96
  -1  12   7  130.80    7.50
  -1  12   7  135.00    8.15
   1  12  -6  260.00   14.28
  -1  12   6  299.95   14.26
   1  12  -6  273.68   13.60
  -1  12   6  284.47   11.35
  -1  12   6  288.30   12.26
   1  12  -5  103.88    8.63
  -1  12   5   94.01    7.83
   1  12  -5   92.17    7.62
  -1  12   5   93.28    6.48
  -1  12   5   89.63    5.87
   1  12  -4   22.53    4.34
   1  12  -4   28.22    4.37
  -1  12   4   23.14    4.02
  -1  12   4   17.20    2.64
   1  12  -4   18.21    2.78
  -1  12   4   21.12    3.18
   1  12  -3  101.87    8.46
  -1  12   3   99.59    7.93
   1  12  -3  100.93    8.05
   1  12  -3   97.56    6.29
  -1  12   3   95.86    5.75
  -1  12   3  106.49    6.69
   1  12  -2  282.68   14.63
   1  12  -2  301.34   14.44
  -1  12   2  305.41   11.97
   1  12  -2  305.53   12.13
   1  12  -1  311.58   14.77
   1  12  -1  309.34   12.43
  -1  12   1  317.51   12.03
   1  12   0    3.57    2.15
  -1  12   0    3.58    2.01
   1  12   0    1.62    1.33
  -1  12   0    0.42    1.09
  -1  12  -1  309.10   14.74
   1  12   1  325.39   13.00
  -1  12  -1  310.15   11.56
   1  12   1  316.09   11.40
  -1  12  -2  276.20   13.89
  -1  12  -2  283.36   10.73
   1  12   2  294.17   12.35
   1  12   2  279.74   10.89
   1  12   3  104.27    8.13
  -1  12  -3   95.59    7.85
  -1  12  -3   99.45    5.64
   1  12   3   98.15    6.15
   1  12   3  100.01    6.90
  -1  12  -4   18.64    3.99
   1  12   4   21.14    3.95
  -1  12  -4   20.12    3.79
   1  12   4   18.77    3.17
   1  12   4   19.52    2.94
  -1  12  -5   97.46    7.95
   1  12   5  104.42    8.09
   1  12   5   88.79    6.75
   1  12   5   95.11    6.27
  -1  12  -6  267.84   13.72
   1  12   6  278.35   12.63
   1  12   6  263.54   11.43
   1  12   7  148.07    9.66
  -1  12  -7  130.25    9.26
   1  12   7  130.89    7.80
   1  12   7  133.27    8.49
   1  12   8    2.31    1.77
  -1  12  -8    3.13    2.04
   1  12   8    1.99    1.66
  -1  12  -9   62.13    6.38
   1  12   9   77.45    6.56
   1  12   9   65.90    5.71
  -1  12 -10   88.37    8.73
  -1  12 -10   87.30    7.45
   1  12  10   98.22    7.07
   1  12  10   94.39    7.55
  -1  12 -11  301.36   16.31
  -1  12 -11  261.78   13.19
   1  12  11  278.53   12.73
  -1  12 -12  135.78   11.08
  -1  12 -12  125.53    8.71
   1  12  12  147.02    9.00
  -1  12 -13   17.48    3.35
   1  12  13   21.12    3.70
   1  12  14  244.01   12.35
   1  12  14  247.04   12.70
   1  12  15   91.80    7.40
   1  12  15   83.96    7.32
   1  12  16   31.07    4.50
   1  12  16   29.58    4.55
   1  12  17   35.19    4.92
   1  12  17   39.32    5.07
   1  12  18  144.59    9.63
   1  12  18  150.96    9.78
   1  12  19  150.13    9.74
   1  12  19  145.54    9.65
   1  12  20   66.68    6.43
   1  12  21   11.77    3.16
   1  12  22   69.32    6.38
   1  12  23   74.47    6.52
   1  12  24    4.78    2.27
   1  12  24    5.31    2.46
   1  12  25    1.40    1.75
   1  12  25    4.08    1.89
   1  12  26  103.78    6.97
  -1  13  23    9.55    2.57
  -1  13  22   70.06    6.17
  -1  13  21  299.99   13.58
  -1  13  20   25.69    4.10
  -1  13  19  928.67   28.27
  -1  13  19  991.44   29.24
  -1  13  18   87.22    7.09
  -1  13  18   82.07    7.09
  -1  13  17    8.50    2.81
  -1  13  17    9.70    3.00
  -1  13  16   16.04    3.34
  -1  13  15    4.45    2.18
  -1  13  14  115.73    8.06
  -1  13  13  471.00   17.58
  -1  13  13  471.36   18.07
  -1  13  12   19.13    3.79
  -1  13  12   16.55    3.50
  -1  13  12   15.61    3.17
  -1  13  11 1165.82   33.74
  -1  13  11 1117.30   31.53
  -1  13  11 1078.71   30.54
   1  13 -10   25.67    5.65
  -1  13  10   37.31    5.16
  -1  13  10   28.56    4.11
  -1  13  10   31.15    4.06
   1  13  -9   41.85    6.66
  -1  13   9   50.21    5.99
  -1  13   9   46.37    5.08
  -1  13   9   40.99    4.44
   1  13  -8  121.36   10.41
  -1  13   8  136.42    9.92
  -1  13   8  134.40    7.93
  -1  13   8  127.00    8.18
   1  13  -7    5.29    3.54
  -1  13   7   10.97    2.76
  -1  13   7    5.65    2.79
  -1  13   7    3.47    1.75
   1  13  -6  412.77   19.45
  -1  13   6  465.86   19.31
  -1  13   6  436.53   16.28
  -1  13   6  457.20   15.50
   1  13  -5  918.53   31.96
  -1  13   5 1060.06   32.06
   1  13  -5  953.29   30.69
  -1  13   5 1013.79   28.03
  -1  13   5 1001.65   26.45
   1  13  -4   30.54    5.34
   1  13  -4   31.84    5.02
  -1  13   4   37.64    5.40
  -1  13   4   32.42    3.59
   1  13  -4   29.59    3.56
  -1  13   4   39.00    4.36
   1  13  -3 1037.80   34.36
  -1  13   3 1133.81   34.00
   1  13  -3 1089.36   33.44
  -1  13   3 1146.20   30.06
   1  13  -3 1135.64   29.31
   1  13  -2  362.57   17.89
   1  13  -2  383.69   17.32
  -1  13   2  405.33   14.59
   1  13  -2  396.38   14.49
   1  13  -1    6.67    3.22
   1  13  -1   14.98    3.67
  -1  13   1   10.42    2.31
   1  13  -1   14.55    2.74
  -1  13   0    6.57    1.85
   1  13   0    3.70    1.83
   1  13   0    3.49    2.38
  -1  13   0    4.40    2.48
   1  13   1   12.37    2.79
  -1  13  -1   10.98    2.29
  -1  13  -1   15.04    3.68
  -1  13  -2  396.40   17.66
  -1  13  -2  372.96   12.98
   1  13   2  397.89   15.19
  -1  13  -3 1130.14   33.92
   1  13   3 1152.22   33.78
   1  13   3 1096.45   28.24
   1  13   3 1117.56   30.58
  -1  13  -4   33.98    5.73
   1  13   4   41.77    5.68
  -1  13  -4   41.16    5.67
   1  13   4   41.03    4.68
   1  13   4   36.52    3.89
  -1  13  -5  878.40   31.21
  -1  13  -5  969.50   31.07
   1  13   5  935.64   26.04
   1  13   5  986.48   28.27
  -1  13  -6  444.17   18.96
   1  13   6  409.45   15.00
   1  13   6  441.21   16.82
  -1  13  -7    4.51    2.76
   1  13   7    4.70    2.09
   1  13   7    1.93    1.61
  -1  13  -8  115.21    9.10
   1  13   8  113.70    7.42
   1  13   8  136.66    8.75
  -1  13  -9   36.18    5.21
   1  13   9   41.96    5.00
   1  13   9   37.79    4.35
  -1  13 -10   22.15    4.13
   1  13  10   20.93    3.49
   1  13  10   21.73    3.95
  -1  13 -11 1046.70   35.20
  -1  13 -11  979.35   31.19
   1  13  11 1070.36   29.95
   1  13  11 1081.14   31.01
  -1  13 -12   18.46    3.82
   1  13  12   17.70    3.44
   1  13  13  435.01   17.01
   1  13  14  112.21    8.05
   1  13  15    6.18    2.63
   1  13  15    6.69    2.50
   1  13  16   15.78    3.39
   1  13  16   19.27    3.71
   1  13  17    6.56    2.71
   1  13  17    8.77    2.80
   1  13  18   80.64    6.94
   1  13  18   87.20    7.37
   1  13  19  952.90   28.78
   1  13  19  922.36   28.34
   1  13  20   21.02    3.80
   1  13  20   21.57    3.89
   1  13  21  293.31   13.56
   1  13  21  293.96   13.47
   1  13  22   76.59    6.49
   1  13  22   77.50    6.48
   1  13  23   11.96    2.82
   1  13  24    3.21    1.83
   1  13  25   54.98    5.00
  -1  14  23   10.65    2.48
  -1  14  22   73.80    6.00
  -1  14  21    7.99    2.63
  -1  14  20   81.64    6.62
  -1  14  19   30.87    4.31
  -1  14  18  104.84    7.72
  -1  14  17   20.33    3.51
  -1  14  16   18.96    3.34
  -1  14  15    6.57    2.56
  -1  14  15    4.90    2.09
  -1  14  14  121.28    8.30
  -1  14  14  117.10    7.87
  -1  14  13    3.01    2.17
  -1  14  13    3.50    2.10
  -1  14  12   19.07    3.32
  -1  14  12   17.32    3.45
  -1  14  11  132.92    9.40
  -1  14  11  118.94    7.77
  -1  14  11  122.30    8.33
  -1  14  10  298.69   14.99
  -1  14  10  291.36   12.56
  -1  14  10  282.48   13.08
   1  14  -9   23.74    5.51
  -1  14   9   24.04    4.40
  -1  14   9   20.62    3.63
  -1  14   9   22.47    3.42
   1  14  -8    7.70    3.95
  -1  14   8    9.86    3.30
  -1  14   8    6.99    2.35
  -1  14   8    6.91    2.22
   1  14  -7   11.21    4.39
  -1  14   7    9.76    3.23
  -1  14   7    7.12    2.40
  -1  14   7    5.63    2.07
  -1  14   6  438.41   16.31
  -1  14   6  428.13   15.07
   1  14  -5   40.58    6.39
  -1  14   5   41.40    5.90
  -1  14   5   35.35    4.22
   1  14  -4   17.93    4.62
  -1  14   4   25.54    4.77
  -1  14   4   28.99    3.92
   1  14  -3    4.64    3.15
  -1  14   3    6.76    3.20
  -1  14   3    3.25    1.86
   1  14  -2  139.38   11.06
   1  14  -2  158.96    8.46
  -1  14   2  154.32    8.44
   1  14  -1    0.25    3.26
  -1  14   1    0.24    1.32
   1  14  -1    2.71    1.53
   1  14   0    0.98    3.19
  -1  14   0    1.62    1.36
  -1  14   0    2.84    2.37
   1  14   0    3.49    1.76
   1  14   1    0.25    3.41
  -1  14  -1    2.85    2.49
  -1  14  -1    2.27    1.38
   1  14   1    5.42    2.01
  -1  14  -2  146.74   11.48
  -1  14  -2  155.49   11.10
   1  14   2  151.68    8.82
  -1  14  -3    7.82    3.62
  -1  14  -3   15.87    3.99
   1  14   3   13.56    2.74
  -1  14  -4   23.95    5.00
  -1  14  -4   35.43    5.46
   1  14   4   21.26    3.60
  -1  14  -5   34.64    5.88
  -1  14  -5   45.54    6.13
   1  14   5   39.04    4.09
   1  14   5   44.64    4.94
  -1  14  -6  398.02   19.66
  -1  14  -6  442.12   19.50
   1  14   6  405.48   14.81
   1  14   6  424.41   16.48
   1  14   7    3.59    2.05
  -1  14  -7    3.30    2.56
   1  14   7    3.08    1.72
   1  14   8    9.05    2.72
  -1  14  -8   10.00    3.39
   1  14   8    8.93    2.39
  -1  14  -9   17.92    3.96
   1  14   9   17.65    3.22
   1  14   9   17.19    3.35
  -1  14 -10  244.28   13.67
   1  14  10  265.35   12.06
   1  14  10  287.40   13.27
   1  14  11  110.27    7.52
   1  14  11  119.26    8.35
   1  14  12   14.49    3.36
   1  14  12   15.92    3.16
   1  14  13    8.06    2.79
   1  14  13    3.41    2.07
   1  14  14  128.18    8.30
   1  14  15    7.23    2.49
   1  14  16   28.03    4.04
   1  14  16   21.40    3.82
   1  14  17   16.36    3.23
   1  14  17   16.95    3.52
   1  14  18   86.12    6.93
   1  14  18   96.60    7.50
   1  14  19   36.40    4.55
   1  14  19   44.55    5.09
   1  14  20   90.89    7.01
   1  14  20   80.91    6.53
   1  14  21    9.51    2.81
   1  14  21   10.15    2.77
   1  14  22   77.88    6.16
   1  14  22   70.66    5.86
   1  14  23   11.05    2.52
  -1  15  21  230.84   10.58
  -1  15  20   13.93    2.98
  -1  15  19  577.11   19.20
  -1  15  16    0.60    1.69
  -1  15  15   46.93    5.09
  -1  15  14   10.09    2.75
  -1  15  13  469.44   17.56
  -1  15  12    3.00    2.21
  -1  15  11  753.83   23.68
  -1  15  10    9.08    2.64
  -1  15   9    6.46    3.25
  -1  15   9    5.89    2.33
   1  15  -8    4.36    3.97
  -1  15   8    3.45    2.65
  -1  15   8    3.93    2.14
   1  15  -7   53.15    7.37
  -1  15   7   62.18    7.10
  -1  15   7   47.84    4.98
   1  15  -6    6.30    4.47
  -1  15   6    3.95    2.13
  -1  15   6    3.83    3.04
  -1  15   5  966.48   31.55
  -1  15   5  915.83   26.26
   1  15  -4    7.03    4.41
  -1  15   4   11.08    3.82
  -1  15   4    7.85    2.45
   1  15  -3  902.48   33.18
  -1  15   3  978.37   27.25
   1  15  -2    2.09    3.07
  -1  15   2    8.67    2.36
   1  15  -1    9.42    3.87
   1  15  -1   10.37    2.38
  -1  15   1   14.29    2.69
   1  15   0   -0.79    3.54
  -1  15   0    2.67    3.11
  -1  15   0    3.95    2.94
   1  15   0    5.02    1.98
  -1  15  -1    8.15    3.78
   1  15   1   10.52    4.18
  -1  15  -1    9.76    3.65
   1  15   1   10.53    2.50
  -1  15  -2    1.31    3.29
   1  15   2    1.57    3.38
  -1  15  -2    7.21    3.29
   1  15   2    5.62    2.18
   1  15   3  887.53   32.65
  -1  15  -3  918.26   32.93
  -1  15  -3 1007.20   32.80
   1  15   3  937.80   26.98
  -1  15  -4    4.91    4.13
  -1  15  -4    9.77    4.02
   1  15   4    9.37    2.56
  -1  15  -5  898.41   30.30
   1  15   5  850.35   25.47
  -1  15  -6    4.37    3.72
   1  15   6    5.53    2.07
  -1  15  -6    6.84    3.32
  -1  15  -7   58.80    6.91
   1  15   7   45.84    4.98
   1  15   7   44.97    4.40
   1  15   8    2.01    1.71
  -1  15  -8    6.35    3.10
   1  15   8    1.81    1.53
   1  15   9    5.20    2.25
  -1  15  -9    5.66    3.01
   1  15   9    5.36    1.94
   1  15  10   10.07    2.79
   1  15  10    6.15    2.17
   1  15  11  779.58   24.38
   1  15  11  725.76   22.34
   1  15  12    3.48    2.10
   1  15  12    3.22    1.97
   1  15  13  471.65   17.65
   1  15  13  439.67   16.31
   1  15  14    9.37    2.78
   1  15  14    9.70    2.54
   1  15  15   48.69    4.94
   1  15  16    0.69    1.66
   1  15  17    3.14    1.91
   1  15  18   17.53    3.35
   1  15  18   16.32    3.13
   1  15  19  584.85   19.30
   1  15  19  539.91   18.27
   1  15  20   12.58    2.84
   1  15  20   13.26    2.76
   1  15  21  246.21   10.99
  -1  16  18  110.98    6.98
  -1  16  17   13.22    2.80
  -1  16  16    1.28    1.70
  -1  16  15    1.58    1.68
  -1  16  14  179.24    9.56
  -1  16  13   20.54    3.42
  -1  16  12   23.57    3.67
  -1  16  11   24.55    3.69
  -1  16  10  144.61    8.52
  -1  16   9    1.10    1.71
  -1  16   8    2.32    1.79
   1  16  -7   17.06    5.22
  -1  16   7    9.86    2.54
   1  16  -6  185.31   13.58
  -1  16   6  214.25   13.05
  -1  16   6  205.81   10.11
   1  16  -5   40.11    6.87
  -1  16   5   46.19    6.15
  -1  16   5   36.39    4.17
   1  16  -4   19.72    5.67
  -1  16   4   19.36    4.48
  -1  16   4   13.50    2.79
   1  16  -3    8.00    4.41
  -1  16   3    7.28    2.19
  -1  16   3    8.33    3.68
   1  16  -2  561.64   24.54
  -1  16   2  536.34   24.40
  -1  16   2  570.69   18.11
   1  16  -1    0.81    3.30
  -1  16   1    3.27    3.48
   1  16   0    1.07    3.76
  -1  16   0    2.18    3.82
   1  16   0    3.47    1.72
  -1  16   0    3.51    2.93
   1  16   1    0.53    3.60
  -1  16  -1    4.06    3.52
  -1  16  -1    6.29    3.45
   1  16   1    4.87    1.94
  -1  16  -2  556.33   24.68
   1  16   2  547.20   24.40
  -1  16  -2  624.00   24.38
   1  16   2  608.00   19.29
  -1  16  -3    3.46    3.40
   1  16   3    5.56    3.69
   1  16   3    8.67    2.50
  -1  16  -3    6.24    3.42
   1  16   4   13.57    4.45
  -1  16  -4   12.97    4.53
  -1  16  -4   18.66    4.53
   1  16   4   18.29    3.23
  -1  16  -5   46.18    6.98
   1  16   5   33.07    6.06
  -1  16  -5   44.15    6.19
   1  16   5   44.06    4.73
  -1  16  -6  184.24   13.32
   1  16   6  172.50   12.59
  -1  16  -6  191.20   12.35
   1  16   6  183.04    9.74
  -1  16  -7   11.15    4.93
   1  16   7   13.22    2.84
   1  16   8    1.00    1.67
   1  16   9    4.02    2.08
   1  16  10  139.20    8.51
   1  16  11   16.40    3.20
   1  16  12   24.13    3.34
   1  16  12   26.83    3.97
   1  16  13   20.89    3.16
   1  16  13   21.17    3.51
   1  16  14  169.11    8.68
   1  16  14  188.65    9.82
   1  16  15    0.54    1.61
   1  16  15    1.75    1.55
   1  16  16    2.24    1.73
   1  16  16    1.49    1.45
   1  16  17   11.60    2.49
   1  16  19   11.41    2.58
  -1  17  16    1.94    1.40
  -1  17  15    8.15    2.19
  -1  17  14   18.81    2.95
  -1  17  13  277.58   11.42
  -1  17  12    5.91    2.11
  -1  17  11  528.52   17.35
  -1  17  10   48.90    4.65
  -1  17   9    2.69    1.63
  -1  17   8    2.80    1.67
  -1  17   7   32.04    3.82
   1  17  -6   76.42    8.95
  -1  17   6   62.39    5.20
   1  17  -5  274.86   16.35
  -1  17   5  235.48   14.95
  -1  17   4   -0.52    3.83
   1  17  -4    8.52    4.67
  -1  17   3  536.00   23.58
   1  17  -3  546.77   23.84
  -1  17   2   49.40    6.99
   1  17  -2   44.28    7.07
  -1  17   1    7.41    3.72
   1  17  -1   13.49    4.62
  -1  17   0    1.85    3.40
   1  17   0   -0.26    3.12
   1  17   1    9.04    3.90
  -1  17  -1    6.84    3.84
  -1  17  -2   39.42    6.54
   1  17   2   38.52    6.24
   1  17   3  529.40   23.18
  -1  17  -3  562.60   24.14
   1  17   4    3.72    2.85
  -1  17  -4    8.74    3.74
   1  17   4    3.10    1.84
   1  17   5  224.77   14.16
  -1  17  -5  243.08   15.07
   1  17   5  237.57   10.61
  -1  17  -6   76.86    8.82
   1  17   6   59.88    7.35
   1  17   6   69.12    5.51
   1  17   7   21.87    4.89
  -1  17  -7   34.50    6.61
   1  17   7   32.62    3.88
   1  17   8   -1.35    2.98
   1  17   8    0.76    1.31
   1  17   9    1.09    2.76
   1  17   9    2.90    1.78
   1  17  10   42.76    6.08
   1  17  10   49.25    4.72
   1  17  11  463.67   19.74
   1  17  11  536.47   17.43
   1  17  12    3.26    2.63
   1  17  12    5.77    2.22
   1  17  13  286.62   11.85
   1  17  14   14.53    2.75
   1  17  15    6.92    2.02
   1  17  16    3.13    1.72
  -1  18  12    0.89    2.55
  -1  18  11   11.56    3.36
  -1  18  11   14.74    2.52
  -1  18  10   69.27    7.16
  -1  18  10   77.00    5.21
  -1  18   9   -0.20    3.05
  -1  18   8   -0.42    2.86
  -1  18   7   13.18    3.89
  -1  18   6   92.33    8.59
  -1  18   5    7.08    3.52
   1  18  -4   26.23    5.68
  -1  18   4   18.82    4.65
  -1  18   3    7.09    3.42
   1  18  -3   14.12    4.94
  -1  18   2   92.24    8.92
   1  18  -2  112.61   10.03
   1  18  -1    8.90    4.09
  -1  18   1    2.65    2.84
  -1  18   0    2.43    3.10
   1  18   0    8.00    4.11
  -1  18  -1    9.44    3.94
   1  18   1    6.76    3.77
   1  18   2   81.49    8.28
  -1  18  -2   91.05    9.01
   1  18   3   13.07    4.08
  -1  18  -3   18.44    5.10
   1  18   4   14.59    4.08
  -1  18  -4   25.57    5.61
   1  18   5    6.25    3.24
  -1  18  -5   16.40    5.13
  -1  18  -6  120.19   10.25
   1  18   6   97.91    8.67
   1  18   7   13.30    3.85
   1  18   8    0.58    2.66
   1  18   8    1.03    1.32
   1  18   9    0.93    2.23
   1  18   9    3.00    1.63
   1  18  10   62.63    6.52
   1  18  10   83.78    5.56
   1  18  11   14.38    2.57
   1  18  12    2.03    1.53
  -1  19   6   51.97    5.94
  -1  19   5  140.52    9.84
  -1  19   4    1.36    2.67
  -1  19   3  184.74   11.61
  -1  19   2  100.88    8.63
  -1  19   1    1.44    2.77
   1  19  -1    6.56    3.68
   1  19   0    5.80    3.65
  -1  19   0    1.86    3.10
   1  19   1    4.43    3.16
  -1  19  -1    6.09    3.72
  -1  19  -2  105.36    9.09
   1  19   2   92.52    8.26
   1  19   3  187.37   11.54
  -1  19  -3  217.24   12.97
  -1  19  -4    7.75    3.78
   1  19   4    5.31    3.10
  -2   0   0 1205.50   25.22
  -2   0  -1    5.55    0.85
  -2   0  -2 1806.46   35.93
  -2   0  -3   34.15    1.87
   2   0   3   35.99    1.96
   2   0   4  275.61    7.32
  -2   0  -4  261.08    7.23
  -2   0  -5    7.53    1.04
   2   0   5   12.47    1.31
  -2   0  -6 1521.22   32.06
   2   0   6 1517.12   31.96
   2   0   7   68.54    3.62
  -2   0  -7   74.73    3.82
  -2   0  -8 3746.25   74.58
   2   0   8 3684.55   74.35
  -2   0  -9    0.92    0.76
   2   0   9    3.01    1.00
  -2   0 -10  509.42   14.61
   2   0  10  448.94   13.70
   2   0  11    6.65    1.54
   2   0  12  277.31   10.45
   2   0  12  284.22    9.28
   2   0  13   68.27    4.97
  -2   0  13   68.86    5.55
   2   0  13   80.91    4.54
  -2   0  14  260.73   12.06
   2   0  14  281.32   11.51
   2   0  15   12.14    2.40
  -2   0  15    7.98    2.25
   2   0  15   10.53    1.80
   2   0  16 1430.34   38.47
   2   0  16 1660.84   36.40
   2   0  17    5.94    1.62
   2   0  18   80.26    5.28
   2   0 -19   24.06    4.67
   2   0  19   23.87    3.02
   2   0 -20  129.64   10.81
  -2   0 -20  153.41   10.81
  -2   0 -21  101.12    9.38
   2   0 -21  110.50   10.59
   2   0 -22  595.47   26.85
  -2   0 -22  599.86   25.26
   2   0 -23   34.22    6.54
  -2   0 -23   38.45    6.53
  -2   0 -24 1170.88   39.45
   2   0 -24 1162.39   41.42
   2   0 -25  104.08   11.53
  -2   0 -25  101.18   10.58
  -2   0 -26  609.52   27.32
   2   0 -26  616.58   29.14
  -2   0 -27   16.86    5.21
   2   0 -27   16.27    5.55
   2   0 -28  315.47   20.38
  -2   0 -28  299.86   18.73
   2   0 -29  125.58   12.42
  -2   0 -29  107.26   10.97
  -2   0 -30  473.76   23.07
   2   0 -30  498.59   25.07
   2   0 -31    4.68    3.99
  -2   0 -31    5.19    3.55
  -2   0 -32  273.09   16.24
   2   0 -32  302.22   17.93
  -2   0 -33   45.19    6.31
   2   0 -33   41.88    6.53
  -2   0 -34   75.32    7.66
   2   1 -33  674.27   27.39
  -2  -1 -33  671.94   25.93
  -2  -1 -32   52.79    7.01
   2   1 -32   59.14    7.94
  -2  -1 -31   10.75    4.38
   2   1 -31    7.76    4.28
  -2  -1 -30  126.47   11.53
   2   1 -30  148.97   13.38
  -2  -1 -29 1068.71   38.54
   2   1 -29 1126.51   41.32
   2   1 -28   28.47    6.79
  -2  -1 -28   27.71    6.09
   2   1 -27   40.91    7.94
  -2  -1 -27   34.59    6.60
  -2  -1 -26  196.53   14.50
   2   1 -26  216.48   16.90
   2   1 -25 2568.36   72.29
  -2  -1 -25 2408.93   66.78
   2   1 -24   74.38    9.72
  -2  -1 -24   64.68    8.45
   2   1 -23  420.27   22.36
  -2  -1 -23  396.32   20.18
   2   1 -22  128.27   11.62
  -2  -1 -22  115.31   10.10
   2   1 -21 2110.71   59.00
   2   1 -20   12.51    3.66
   2   1 -19  832.43   30.07
   2   1 -18   43.37    5.94
   2   1 -17 1953.50   51.17
   2   1 -16  193.44   11.21
   2  -1  16  151.82    8.69
  -2   1  15  545.75   19.77
   2  -1  15  554.52   18.45
   2   1 -15  605.43   21.08
  -2   1  14   31.24    3.88
   2  -1  14   36.12    3.75
   2   1 -14   38.75    4.44
  -2   1  14   36.89    3.20
   2  -1  14   38.32    2.99
  -2   1  13 2160.57   44.94
  -2   1  13 1856.33   48.10
   2  -1  13 1977.91   46.85
   2  -1  13 2215.38   44.54
  -2   1  13 2194.97   45.53
  -2   1  12  176.30    6.90
   2  -1  12  187.48    8.04
  -2   1  12  183.73    7.22
  -2   1  11 1387.64   31.48
   2  -1  11 1429.57   33.10
  -2   1  11 1439.40   32.10
  -2   1  10   19.24    1.95
   2  -1  10   23.46    2.41
  -2   1  10   26.30    2.38
  -2  -1  -9 2584.72   52.32
   2  -1   9 2511.69   51.21
  -2   1   9 2512.02   50.83
  -2  -1  -8  334.96   10.26
   2  -1   8  301.69    9.29
   2  -1   7 1429.16   30.41
  -2  -1  -7 1437.57   31.34
  -2  -1  -6  166.57    6.03
   2  -1   6  165.35    5.42
   2  -1   5 2692.06   52.71
  -2  -1  -5 2664.65   53.70
   2  -1   4   45.52    2.09
   2  -1   3  418.86    9.45
   2  -1   2  877.25   19.28
  -2  -1  -1 3456.95   64.86
   2  -1   1 3183.95   65.16
  -2  -1   0 1141.70   23.89
   2   1   2  868.62   19.24
  -2   1  -2  910.52   18.13
   2   1   3  353.73    9.12
  -2   1  -3  374.76    8.34
   2   1   3  345.07    9.30
  -2   1  -4   40.61    2.01
   2   1   4   41.37    2.53
   2   1   5 2697.36   55.16
  -2   1  -5 2796.32   54.32
   2   1   6  183.53    6.53
  -2   1  -6  189.53    6.05
   2   1   7 1412.53   31.87
  -2   1  -7 1506.38   31.43
   2   1   8  332.42   10.41
   2   1   9 2453.49   51.84
   2   1  10   19.15    2.33
   2   1  10   19.24    2.10
   2   1  11 1386.64   33.48
   2   1  11 1466.89   32.29
   2   1  12  187.01    8.50
   2   1  12  187.24    7.54
   2   1  13 2222.09   45.02
   2   1  13 2192.64   46.57
   2   1  14   19.35    2.88
  -2  -1  14   20.26    3.19
   2   1  14   24.72    2.38
   2   1  14   25.06    2.77
  -2   1 -15  691.40   20.59
  -2  -1  15  545.95   19.89
   2   1  15  590.03   19.61
   2   1  15  680.19   18.34
  -2   1 -16  170.17    9.52
   2   1  16  161.73    7.77
  -2   1 -17 2135.20   49.62
   2   1  17 1853.75   44.16
  -2   1 -18   38.41    5.04
   2   1  18   33.71    3.65
  -2   1 -19  892.60   28.04
   2   1  19  687.17   21.19
  -2   1 -20   40.94    5.64
   2   1  20   25.85    3.45
  -2   1 -21 2163.61   52.58
   2   1  21 1632.94   42.30
  -2   1 -22  104.91    9.80
   2  -1 -22   98.09    9.97
   2   1  22   82.23    6.23
   2  -1 -23  378.33   20.91
  -2   1 -23  396.49   20.29
  -2   1 -24   55.69    7.89
   2  -1 -24   61.25    8.87
   2  -1 -25 2377.14   68.13
  -2   1 -25 2469.89   67.49
  -2   1 -26  223.79   16.07
   2  -1 -26  206.25   15.84
  -2   1 -27   33.00    6.73
   2  -1 -27   23.47    6.01
   2  -1 -28   36.29    7.04
  -2   1 -28   34.48    6.76
   2  -1 -29 1090.15   40.77
  -2   1 -29 1075.30   38.51
   2  -1 -30  157.53   13.53
  -2   1 -30  159.04   12.89
   2  -1 -31    9.20    4.27
  -2   1 -31    6.49    3.96
  -2   1 -32   62.34    7.66
   2  -1 -32   66.34    8.16
   2  -1 -33  685.91   27.34
  -2   1 -33  679.66   26.24
   2   2 -33   73.70    8.58
  -2  -2 -33   82.15    8.29
   2   2 -32  510.70   24.47
  -2  -2 -32  510.64   22.77
  -2  -2 -31   14.54    4.86
   2   2 -31    9.46    4.58
   2   2 -30  324.78   20.25
  -2  -2 -30  347.46   19.22
   2   2 -29  203.26   16.19
  -2  -2 -29  195.71   14.37
   2   2 -28   20.19    6.14
  -2  -2 -28   36.31    6.52
   2   2 -27   33.34    7.53
  -2  -2 -27   41.44    7.02
  -2  -2 -26  161.46   13.15
   2   2 -26  159.12   14.48
  -2  -2 -25   34.77    6.80
   2   2 -25   49.19    8.66
   2   2 -24 1409.41   46.59
  -2  -2 -24 1174.28   39.85
   2   2 -23   71.70    9.47
   2   2 -22  824.32   33.16
   2   2 -21  127.44   11.48
   2   2 -20  430.45   21.01
   2   2 -19   48.75    6.45
   2   2 -18  198.73   12.58
  -2   2  17   13.05    2.26
   2  -2  17   11.06    2.33
   2   2 -17    9.98    2.95
  -2   2  17   11.31    2.19
  -2   2  16 2876.64   57.86
   2   2 -16 2857.51   65.06
  -2   2  16 2676.44   57.69
  -2   2  15  609.07   16.79
   2   2 -15  587.91   21.02
  -2   2  15  591.68   16.94
   2   2 -14 1012.20   30.37
   2  -2  14 1001.47   27.31
  -2   2  14 1130.12   26.76
  -2   2  14 1152.05   26.50
   2  -2  13   73.90    4.98
   2   2 -13   73.55    6.11
  -2  -2 -13   89.80    6.07
  -2   2  13   78.01    4.74
  -2   2  13   78.10    4.52
  -2  -2 -12   29.08    3.31
   2  -2  12   23.81    2.64
   2   2 -12   17.59    2.99
  -2   2  12   23.71    2.52
  -2   2  12   27.94    2.55
   2  -2  11   57.64    3.87
  -2   2  11   62.51    4.74
  -2  -2 -11   57.19    4.36
   2   2 -11   49.14    4.54
  -2   2  11   56.19    3.73
  -2   2  11   53.99    3.45
  -2   2  10  126.66    6.82
   2  -2  10  144.38    6.05
  -2  -2 -10  145.61    6.81
  -2   2  10  136.45    5.93
  -2   2  10  132.16    5.54
   2  -2   9  543.56   13.64
  -2  -2  -9  559.28   15.15
  -2   2   9  505.57   15.24
  -2   2   9  497.55   13.20
  -2   2   9  536.01   13.96
   2  -2   8 2103.18   41.04
  -2   2   8 1891.77   43.06
  -2   2   8 1861.09   40.78
  -2   2   8 2034.56   41.66
   2  -2   7  115.63    4.32
  -2   2   7   96.32    5.11
   2  -2   6 1104.97   22.72
  -2   2   6 1027.48   24.81
   2  -2   5   49.36    2.14
   2  -2   4  259.83    6.13
  -2  -2  -2 5827.87  112.74
  -2  -2  -1 1679.88   33.95
   2  -2   1 1666.82   34.81
  -2   2   1 1683.45   34.47
  -2  -2  -1 1751.59   35.25
  -2   2   0  856.50   19.03
  -2  -2   0  891.70   18.87
   2   2   2 6049.31  115.73
   2   2   3  731.96   16.15
  -2   2  -3  734.48   14.74
   2   2   4  254.41    7.29
  -2   2  -4  267.33    6.44
   2   2   5   31.69    2.44
   2   2   6 1121.71   25.60
   2   2   7  114.85    5.43
   2   2   8 1881.51   41.12
   2   2   9  539.35   14.82
  -2   2  -9  431.92   13.14
   2   2  10  134.73    6.13
   2   2  10  131.84    6.61
   2   2  10  134.32    5.63
   2   2  11   54.30    4.27
   2   2  11   61.07    4.09
  -2   2 -11   55.91    4.10
   2   2  11   56.90    3.60
   2   2  12   29.30    3.28
  -2   2 -12   25.80    2.96
   2   2  12   32.58    2.77
   2   2  13  100.46    6.49
  -2   2 -13  111.78    6.55
   2   2  13  120.28    5.66
   2   2  13  120.76    6.27
  -2   2 -14 1138.53   29.08
   2   2  14 1126.11   26.32
   2   2  14 1160.96   27.89
   2   2  15  455.45   16.93
  -2   2 -15  548.51   17.82
  -2  -2  15  417.81   16.76
   2   2  15  540.19   14.95
   2   2  15  531.77   16.13
   2   2  16 2708.86   58.50
   2   2  16 2781.22   60.51
  -2   2 -17   19.03    3.40
   2   2  17   15.23    2.62
   2   2  17   15.10    2.20
  -2   2 -18  187.87   10.89
   2   2  18  164.63    8.57
  -2   2 -19   50.96    5.82
   2   2  19   42.66    4.35
  -2   2 -20  409.68   18.10
   2   2  20  328.79   13.58
  -2   2 -21  163.12   11.79
   2   2  21  134.92    8.30
  -2   2 -22  876.63   30.06
   2   2  22  620.25   21.33
  -2   2 -23   73.22    8.79
   2   2  23   44.21    4.91
  -2   2 -24 1338.43   41.51
   2  -2 -24 1201.79   40.15
   2  -2 -25   42.52    7.76
  -2   2 -25   50.40    7.94
   2   2  25   40.26    4.94
   2  -2 -26  162.38   14.18
  -2   2 -26  187.60   14.52
   2  -2 -27   32.24    6.98
  -2   2 -27   45.06    7.47
  -2   2 -28   26.45    6.27
   2  -2 -28   28.25    6.46
  -2   2 -29  154.60   13.29
   2  -2 -29  151.62   13.45
  -2   2 -30  352.82   19.75
   2  -2 -30  343.85   20.42
   2  -2 -31   14.64    4.88
  -2   2 -31   13.85    4.69
  -2   2 -32  510.95   23.01
   2  -2 -32  523.50   23.85
  -2   2 -33   61.49    7.38
   2  -2 -33   57.64    7.18
   2   3 -33  682.19   27.47
  -2  -3 -33  705.68   26.47
   2   3 -32  131.34   11.86
  -2  -3 -32  147.31   11.70
   2   3 -31    5.24    4.30
  -2  -3 -31    7.09    3.89
   2   3 -30  106.33   11.57
  -2  -3 -30   96.54    9.88
  -2  -3 -29  981.94   35.25
   2   3 -29  998.21   39.27
   2   3 -28  164.21   14.85
  -2  -3 -28  152.21   12.60
   2   3 -27   31.42    7.10
  -2  -3 -27   26.61    6.14
  -2  -3 -26   94.17    9.84
   2   3 -26  114.65   12.31
   2   3 -25  966.18   38.33
   2   3 -24  581.84   28.04
   2   3 -23   38.66    6.93
   2   3 -22   77.95    9.43
   2   3 -21 1489.99   47.01
   2   3 -20  367.12   19.45
  -2   3  19  192.39    9.20
  -2   3  19  180.74    9.16
  -2   3  18  130.46    7.19
   2   3 -18  143.46   11.05
  -2   3  18  123.25    7.19
  -2   3  17 1396.72   34.14
  -2   3  17 1365.88   34.28
   2   3 -16  391.99   17.47
  -2   3  16  359.68   12.59
  -2   3  16  352.04   12.19
   2   3 -15  203.49   11.86
  -2   3  15  193.96    8.51
  -2   3  15  188.88    8.11
   2   3 -14  532.85   19.81
   2  -3  14  452.46   15.20
  -2   3  14  442.12   17.05
  -2  -3 -14  555.52   18.13
  -2   3  14  494.06   14.70
  -2   3  14  515.16   15.36
  -2   3  13 1431.32   38.85
   2  -3  13 1524.42   36.58
  -2  -3 -13 1768.76   39.95
   2   3 -13 1595.03   41.68
  -2   3  13 1699.61   36.97
  -2   3  13 1609.62   35.96
  -2   3  12 1098.97   29.84
   2  -3  12 1136.29   27.49
   2   3 -12 1060.54   31.30
  -2   3  12 1226.82   27.87
  -2   3  12 1168.43   26.95
  -2   3  11  534.63   17.45
   2  -3  11  589.33   15.68
   2   3 -11  524.82   18.67
  -2   3  11  566.31   15.24
  -2   3  11  601.96   16.09
   2  -3  10  110.37    5.09
   2   3 -10   92.59    6.47
  -2   3  10   99.28    6.03
  -2   3  10  117.30    5.21
  -2   3  10  113.74    5.50
  -2   3   9 1280.91   31.07
   2  -3   9 1392.93   28.85
  -2   3   9 1420.25   30.00
  -2   3   9 1285.18   28.93
  -2   3   8 1260.81   29.61
   2  -3   8 1304.43   27.13
  -2   3   8 1356.12   28.70
  -2   3   8 1253.84   27.79
  -2   3   7  489.77   14.19
  -2   3   7  484.74   13.01
  -2  -3  -6  853.62   20.61
  -2   3   6  825.09   20.24
   2  -3   6  873.40   17.81
   2  -3   5   74.54    2.41
  -2   3   5   70.43    3.73
  -2  -3  -5   76.53    4.12
  -2   3   4  711.59   17.02
  -2  -3  -4  761.96   18.10
   2  -3   3 1489.04   30.80
  -2  -3  -3 1485.42   31.33
  -2   3   2  482.73   11.49
   2  -3   2  481.90   12.12
  -2   3   2  444.57   10.85
  -2  -3  -2  485.46   12.63
  -2  -3  -1  195.52    5.55
   2  -3   1  206.60    6.61
  -2   3   1  204.21    6.08
  -2   3   1  196.34    5.23
  -2  -3  -1  218.63    7.20
  -2   3   0 6248.17  117.93
   2   3   3 1423.55   29.04
   2   3   4  648.51   14.52
   2   3   4  636.01   16.26
   2   3   5  160.51    5.29
   2   3   5  164.97    6.56
   2   3   6  764.36   19.40
   2   3   7  503.09   14.57
  -2   3  -8 1217.69   29.03
   2   3   8 1385.54   30.87
   2   3   9 1372.02   31.62
  -2   3  -9 1261.30   30.11
   2   3  10   94.73    5.84
  -2   3 -10   95.93    5.51
   2   3  10  102.24    5.54
   2   3  10  103.27    5.24
   2   3  11  612.77   17.03
  -2   3 -11  552.89   16.97
   2   3  11  584.62   17.89
   2   3  11  578.79   16.13
   2   3  12 1123.23   29.78
  -2   3 -12 1121.73   28.96
   2   3  12 1188.78   27.72
   2   3  12 1178.96   28.55
  -2   3 -13 1556.24   37.45
   2   3  13 1574.71   35.39
   2   3  13 1600.28   36.57
  -2   3 -14  556.41   17.79
   2   3  14  558.32   15.95
   2   3  14  547.32   16.83
  -2   3 -15  199.68   10.11
   2   3  15  210.76    8.81
   2   3  15  204.00    9.39
  -2   3 -16  333.14   14.01
   2   3  16  315.94   11.46
   2   3  16  308.06   12.27
   2   3  17 1318.77   32.60
   2   3  17 1315.57   34.05
   2   3  18  118.11    6.62
   2   3  18  112.17    7.27
   2   3  19  167.30    8.27
   2   3  19  170.97    9.31
  -2   3 -20  419.66   18.39
   2   3  20  325.11   13.94
  -2   3 -21 1445.76   40.41
   2   3  21 1147.21   33.21
  -2   3 -22   58.07    7.30
   2   3  22   40.59    4.85
  -2   3 -23   46.70    6.85
   2   3  23   34.03    4.57
  -2   3 -24  624.91   26.04
   2   3  24  475.26   18.66
  -2   3 -25  944.29   33.46
   2   3  25  654.71   23.57
   2  -3 -26   84.58    9.98
   2   3  26   70.14    6.60
   2  -3 -27   20.10    5.74
  -2   3 -27   24.13    6.12
  -2   3 -28  181.34   14.41
   2  -3 -28  157.94   13.63
  -2   3 -29 1018.09   37.00
   2  -3 -29  958.83   36.49
  -2   3 -30   82.54    9.70
   2  -3 -30   88.03    9.99
   2  -3 -31    9.01    4.22
  -2   3 -31   10.89    4.44
  -2   3 -32  107.37   10.17
   2  -3 -32  118.82   10.92
  -2   3 -33  691.77   26.24
   2  -3 -33  668.31   26.44
  -2  -4 -33   66.86    7.57
   2   4 -33   73.99    8.20
   2   4 -32  489.35   23.29
  -2  -4 -32  509.02   22.65
   2   4 -31   18.91    5.22
  -2  -4 -31   11.29    4.43
   2   4 -30  443.40   23.97
  -2  -4 -30  443.48   21.50
   2   4 -29  226.97   17.19
  -2  -4 -29  204.07   14.58
   2   4 -28  179.80   15.65
  -2  -4 -28  202.06   14.53
   2   4 -27   13.84    5.35
  -2  -4 -27    7.09    3.76
   2   4 -26   68.45    9.72
   2   4 -25  177.91   15.28
   2   4 -24  774.86   33.29
   2   4 -23   18.12    5.34
   2   4 -22  780.41   32.07
   2   4 -21   84.05    9.46
  -2   4  20  176.91    9.18
  -2   4  20  168.99    9.26
  -2   4  19    2.30    1.58
   2   4 -19    3.36    2.36
  -2   4  19    3.42    1.68
  -2   4  18  539.66   17.33
  -2   4  18  532.24   17.63
   2   4 -17   42.92    5.87
  -2   4  17   37.36    3.91
  -2   4  17   35.02    3.61
   2   4 -16 1141.49   34.60
  -2   4  16 1070.31   27.57
  -2   4  16 1095.06   28.32
   2   4 -15  343.99   15.99
  -2   4  15  351.85   12.44
  -2   4  15  325.87   11.64
   2   4 -14  987.99   30.04
  -2   4  14 1005.16   25.09
  -2   4  14  956.67   24.11
   2  -4  13  215.35    8.68
  -2   4  13  206.13   10.33
   2   4 -13  219.53   11.79
  -2   4  13  226.73    8.72
  -2   4  13  225.01    9.13
   2  -4  12  472.00   13.65
  -2   4  12  418.95   15.48
   2   4 -12  431.68   17.10
  -2   4  12  477.53   14.25
  -2   4  12  449.70   13.48
   2   4 -11  130.95    8.40
   2  -4  11  151.93    6.29
  -2   4  11  147.80    7.85
  -2   4  11  157.37    6.98
  -2   4  11  145.95    6.44
   2   4 -10  931.72   27.95
   2  -4  10  991.92   23.44
  -2   4  10 1005.85   26.54
  -2  -4 -10 1124.39   27.32
  -2   4  10 1097.10   25.35
  -2   4  10 1036.08   24.41
  -2   4   9  748.12   20.25
   2  -4   9  732.66   17.30
  -2   4   9  722.02   18.43
  -2   4   8 1653.96   38.08
  -2  -4  -8 1793.98   38.87
   2  -4   8 1775.00   34.98
  -2   4   8 1682.00   36.57
  -2   4   7  414.72   12.69
  -2  -4  -7  444.30   13.45
   2  -4   7  452.42   10.27
  -2   4   7  414.59   11.86
   2   4  -6 2573.54   56.12
  -2  -4  -6 2643.56   55.18
   2  -4   6 2688.12   50.65
  -2   4   6 2544.75   54.16
  -2   4   6 2719.22   54.02
   2   4  -5 1884.40   42.15
  -2  -4  -5 1963.23   41.88
  -2   4   5 1862.03   40.38
  -2   4   5 2006.60   40.62
  -2   4   4   32.24    2.35
  -2  -4  -4   56.50    3.61
   2  -4   3  250.15    7.96
  -2   4   3  253.29    7.27
  -2  -4  -3  249.06    8.66
  -2   4   3  242.78    7.27
   2  -4   2   20.22    1.88
  -2   4   2   19.17    1.58
  -2  -4  -2   21.38    2.21
  -2   4   2   22.06    1.56
   2  -4   1  646.02   16.14
  -2  -4  -1  652.06   14.38
  -2   4   1  658.96   15.33
  -2   4   1  695.91   14.40
  -2  -4   0  991.25   20.76
  -2   4   0  987.51   19.58
  -2  -4   0 1014.66   23.49
   2   4   4   76.63    3.04
   2   4   5 1955.41   39.32
   2   4   6 2702.65   51.85
  -2   4  -6 2427.62   53.73
  -2   4  -7  521.36   14.50
   2   4   7  509.88   15.25
  -2   4  -7  473.73   14.07
  -2   4  -8 1795.69   38.12
   2   4   8 1712.37   38.96
  -2   4  -9  754.52   20.17
   2   4   9  761.11   21.13
   2   4   9  750.97   20.13
  -2   4  -9  735.50   19.94
   2   4  10 1004.56   26.70
   2   4  10 1042.56   25.82
  -2   4 -10  980.23   25.52
   2   4  10 1017.60   25.05
   2   4  11  146.83    7.24
   2   4  11  139.43    7.69
  -2   4 -11  127.66    6.88
   2   4  11  141.51    6.83
   2   4  12  444.40   15.81
  -2   4 -12  443.90   14.99
   2   4  12  451.80   14.24
   2   4  12  462.59   14.91
   2   4  13  203.16   10.23
  -2   4 -13  220.78   10.01
   2   4  13  224.54    9.23
   2   4  13  227.05    9.77
  -2   4 -14  913.60   26.03
   2   4  14  954.38   25.57
   2   4  14  929.08   24.51
  -2   4 -15  321.45   13.34
   2   4  15  312.62   11.78
   2   4  15  315.10   12.55
  -2   4 -16 1132.47   31.55
   2   4  16 1148.90   29.07
   2   4  16 1113.22   30.01
  -2   4 -17   43.07    4.98
   2   4  17   44.07    4.17
   2   4  17   40.97    4.33
  -2   4 -18  600.99   21.22
   2   4  18  550.86   18.96
   2   4  18  551.29   17.66
   2   4  19    6.66    2.05
  -2   4 -19    0.95    2.05
   2   4  19    7.13    2.17
  -2   4 -20  201.76   12.21
   2   4  20  172.01    8.96
   2   4  20  196.10   10.52
  -2   4 -21   95.55    8.87
   2   4  21   86.14    6.95
   2   4  21   79.02    5.97
  -2   4 -22  777.11   27.93
   2   4  22  609.13   22.10
  -2   4 -23   24.18    5.42
   2   4  23   13.60    3.39
  -2   4 -24  748.57   28.91
   2   4  24  551.13   21.16
  -2   4 -25  152.37   12.82
   2   4  25  137.22    9.53
  -2   4 -26   79.70    9.48
   2   4  26   54.04    6.11
   2  -4 -27    6.93    4.14
  -2   4 -27   10.67    4.47
   2   4  27    7.88    2.98
  -2   4 -28  188.96   14.56
   2  -4 -28  172.68   14.14
   2   4  28  140.46    9.53
  -2   4 -29  222.04   15.73
   2  -4 -29  210.78   15.37
  -2   4 -30  451.13   22.59
   2  -4 -30  428.58   21.96
   2  -4 -31   10.51    4.60
  -2   4 -31   12.75    4.34
  -2   4 -32  486.36   22.06
   2  -4 -32  517.12   23.40
  -2   4 -33   75.17    7.79
   2  -4 -33   71.54    7.94
  -2  -5 -32  355.41   18.09
   2   5 -32  336.86   18.54
   2   5 -31   20.60    5.38
  -2  -5 -31   25.71    5.35
   2   5 -30  253.80   17.47
  -2  -5 -30  255.21   15.98
  -2  -5 -29  298.10   17.84
   2   5 -29  294.45   19.60
  -2  -5 -28  341.55   19.06
   2   5 -28  376.00   22.60
   2   5 -27   49.82    8.58
   2   5 -26  150.13   14.13
   2   5 -25  294.02   19.81
   2   5 -24  753.08   33.03
   2   5 -23    6.25    4.26
   2   5 -22  131.60   12.38
  -2   5  21  530.90   18.44
  -2   5  21  495.75   18.32
  -2   5  20  906.40   26.30
  -2   5  20  886.33   26.44
   2   5 -19  107.85   10.17
  -2   5  19   99.95    6.66
  -2   5  19   93.75    6.70
  -2   5  18  168.75    9.04
  -2   5  18  174.93    8.82
  -2   5  17  247.59   10.66
  -2   5  17  261.84   11.33
  -2   5  16 1251.00   32.13
  -2   5  16 1246.93   31.39
   2   5 -15  295.06   15.33
  -2   5  15  292.86   11.54
  -2   5  15  272.14   10.70
   2   5 -14  211.22   12.33
  -2   5  14  187.20    8.36
  -2   5  14  210.76    9.25
   2   5 -13   70.64    6.77
  -2   5  13   59.25    5.43
   2  -5  13   52.73    3.86
  -2   5  13   67.21    4.83
  -2   5  13   61.67    4.36
   2   5 -12 3415.51   79.20
   2  -5  12 3248.54   71.06
  -2  -5 -12 3840.23   76.88
  -2   5  12 3451.32   75.63
  -2   5  12 3789.86   73.83
  -2   5  12 3528.73   72.57
  -2   5  11  402.30   11.89
  -2  -5 -11  392.85   14.21
   2  -5  11  348.26   10.70
   2   5 -11  357.39   15.41
  -2   5  11  366.36   13.67
  -2   5  11  356.24   11.80
  -2   5  10    8.29    1.52
  -2   5  10    6.94    1.49
  -2  -5 -10   13.66    2.40
   2   5 -10    7.54    2.21
   2  -5  10   15.08    1.64
  -2   5   9  751.10   18.32
   2   5  -9  620.99   20.89
   2  -5   9  646.84   15.45
  -2  -5  -9  725.76   20.01
  -2   5   9  636.16   18.74
  -2   5   9  623.84   17.28
  -2   5   8 3361.15   64.26
   2   5  -8 2730.13   66.99
   2  -5   8 3092.38   60.43
  -2  -5  -8 3187.71   65.91
  -2   5   8 2959.89   64.53
  -2   5   8 3225.52   64.21
  -2   5   8 2968.50   63.22
  -2   5   7  861.61   20.75
   2   5  -7  805.90   22.35
  -2   5   7  751.06   20.29
   2   5  -7  706.08   22.21
   2  -5   7  805.44   16.84
  -2  -5  -7  850.74   21.97
  -2   5   7  827.04   20.32
  -2   5   6  329.94   10.44
   2   5  -6  316.13   11.25
  -2   5   6  294.99    9.76
  -2  -5  -6  324.11   11.08
   2  -5   6  287.21    6.39
   2   5  -6  278.34   11.40
  -2   5   6  319.62    9.94
  -2   5   5  542.46   14.62
  -2   5   5  480.80   12.63
   2   5  -5  519.55   15.27
  -2  -5  -5  542.10   15.37
  -2   5   5  512.66   13.75
  -2   5   5  500.82   13.70
  -2   5   5  541.49   14.01
  -2   5   4 3024.28   60.45
   2  -5   4 2841.30   59.41
  -2   5   4 3144.50   58.16
   2   5  -4 2849.23   60.75
  -2  -5  -4 3034.22   61.13
  -2   5   4 2933.53   58.76
  -2   5   4 2905.44   59.07
  -2   5   4 2834.34   59.16
   2   5  -3  834.09   21.11
  -2   5   3  859.60   21.06
   2  -5   3  839.22   20.24
   2   5  -3  834.21   21.10
  -2   5   3  865.69   18.85
  -2   5   3  834.45   19.11
  -2  -5  -3  860.95   21.53
  -2   5   3  810.59   19.78
  -2   5   2   34.09    2.93
   2   5  -2   34.41    2.98
  -2   5   2   35.40    2.10
  -2  -5  -2   39.63    3.22
   2  -5   2   37.87    2.78
   2   5  -1   70.86    4.30
  -2   5   1   61.30    2.51
  -2  -5  -1   65.43    4.18
   2  -5   1   56.80    3.37
  -2   5   0 3833.51   76.39
   2   5   0 3852.50   76.72
  -2  -5   0 3875.08   76.92
  -2  -5   0 3687.10   72.53
  -2   5  -1   87.46    4.79
   2   5   2   33.42    2.86
  -2   5  -2   32.71    2.89
   2   5   3  825.26   20.80
  -2   5  -3  851.04   21.22
  -2   5  -3  874.62   21.20
  -2   5  -4 2951.24   61.26
  -2   5  -4 2969.96   61.43
  -2   5  -5  522.70   14.83
  -2   5  -5  521.58   14.88
  -2   5  -6  318.78   10.72
  -2   5  -6  306.85   10.75
  -2   5  -7  774.27   20.27
  -2   5  -7  743.15   20.55
  -2   5  -7  797.10   21.08
  -2   5  -8 2976.44   64.32
   2   5   8 3235.47   62.56
  -2   5  -8 3210.31   66.11
  -2   5  -8 3055.77   65.74
  -2   5  -9  642.04   17.52
  -2   5  -9  689.00   19.21
  -2   5  -9  660.28   18.97
   2   5   9  692.09   19.07
   2   5   9  640.06   18.42
  -2   5 -10   12.87    1.81
   2   5  10    7.05    1.70
  -2   5 -10   10.59    2.17
  -2   5 -10    5.80    1.67
   2   5  10    2.40    1.28
  -2   5 -11  354.90   11.34
  -2   5 -11  394.42   13.89
   2   5  11  389.68   13.54
   2   5  11  383.19   13.08
  -2   5 -12 3621.62   75.27
   2   5  12 3477.27   73.62
   2   5  12 3636.22   74.73
  -2   5 -13  119.20    7.41
   2   5  13  116.34    6.72
   2   5  13  125.38    7.34
  -2   5 -14  198.77   10.19
   2   5  14  201.57    9.32
   2   5  14  209.80    9.99
  -2   5 -15  306.97   13.31
   2   5  15  286.96   11.76
   2   5  15  294.33   12.39
  -2   5 -16 1258.39   34.02
   2   5  16 1194.41   31.15
   2   5  16 1167.39   31.92
  -2   5 -17  292.38   13.76
   2   5  17  285.31   11.89
   2   5  17  269.78   12.38
  -2   5 -18  187.80   11.15
   2   5  18  170.67    9.05
   2   5  18  174.61    9.79
   2   5  19   96.49    7.28
   2   5  19   84.07    6.33
   2   5  20  912.63   28.34
   2   5  20  956.19   27.24
   2   5  21  465.77   18.56
   2   5  21  504.61   17.76
  -2   5 -22   94.28    9.19
   2   5  22   94.62    6.90
   2   5  22   88.45    7.49
  -2   5 -23    9.14    4.17
   2   5  23   11.02    3.18
  -2   5 -24  680.13   27.41
   2   5  24  531.48   21.00
  -2   5 -25  341.88   18.95
   2   5  25  240.62   13.22
  -2   5 -26  119.93   11.46
   2   5  26   99.47    8.29
  -2   5 -27   55.28    8.18
   2   5  27   39.05    5.43
  -2   5 -28  431.49   22.07
   2  -5 -28  380.62   20.71
  -2   5 -29  305.81   18.57
   2  -5 -29  287.33   18.06
  -2   5 -30  268.43   16.75
   2  -5 -30  275.94   17.12
   2  -5 -31   19.93    4.99
  -2   5 -31   15.24    4.60
  -2   5 -32  333.52   17.28
   2  -5 -32  350.85   18.37
   2   6 -32  204.81   13.88
  -2  -6 -32  238.62   14.10
  -2  -6 -31    7.79    3.61
   2   6 -31    8.39    3.76
   2   6 -30  331.97   19.72
  -2  -6 -30  353.10   19.02
   2   6 -29  149.20   13.33
  -2  -6 -29  152.53   12.28
   2   6 -28  289.32   19.23
   2   6 -27    5.15    4.23
   2   6 -26  183.47   15.52
   2   6 -25  112.54   12.34
   2   6 -24  599.62   29.02
   2   6 -23   35.31    7.01
  -2   6  22  220.02   11.33
   2   6 -22  309.79   19.13
  -2   6  21   36.34    4.48
   2   6 -21   45.63    7.20
  -2   6  21   34.68    4.41
  -2   6  20  301.17   12.84
  -2   6  20  280.17   13.01
  -2   6  19  130.18    8.29
  -2   6  19  131.09    7.91
  -2   6  18  586.29   19.04
  -2   6  18  577.63   19.59
   2   6 -17  175.52   12.69
  -2   6  17  153.75    8.66
  -2   6  17  152.69    8.22
  -2   6  16  826.01   23.42
  -2   6  16  855.15   24.52
  -2   6  15  240.03   10.24
  -2   6  15  255.85   11.08
   2   6 -14  391.59   18.18
  -2   6  14  353.42   12.68
  -2   6  14  370.14   13.45
   2   6 -13  726.69   25.50
  -2   6  13  658.81   19.11
  -2   6  12  240.20   11.16
   2   6 -12  243.55   13.25
  -2   6  12  231.48    9.44
   2   6 -11   61.22    6.17
  -2  -6 -11   56.65    5.13
  -2   6  11   45.51    4.42
  -2   6  11   45.45    3.80
  -2   6  10  593.58   16.30
  -2  -6 -10  563.90   18.23
   2   6 -10  528.06   19.53
  -2   6  10  505.23   16.78
   2  -6  10  510.68   13.10
  -2   6  10  518.07   15.51
  -2   6  10  568.76   16.44
  -2   6   9  155.08    7.15
  -2  -6  -9  157.21    8.25
   2   6  -9  130.22    8.49
  -2   6   9  137.40    7.21
   2  -6   9  143.95    4.82
  -2   6   9  158.33    7.25
  -2   6   9  142.90    6.73
   2   6  -8 1252.94   32.56
  -2  -6  -8 1314.30   32.04
   2   6  -8 1163.70   33.00
   2  -6   8 1232.54   25.44
  -2   6   8 1196.21   30.07
  -2   6   8 1287.84   29.93
  -2   6   7   39.21    3.44
   2   6  -7   20.32    2.96
   2  -6   7   16.28    0.87
  -2  -6  -7   16.64    2.55
   2   6  -7   17.59    2.93
  -2   6   7   17.74    2.28
   2  -6   7   18.27    0.89
  -2   6   7   39.50    3.20
  -2   6   6  956.82   23.68
   2   6  -6  893.66   24.38
  -2   6   6 1039.80   21.39
  -2   6   6  874.26   22.45
   2   6  -6  800.66   25.07
  -2  -6  -6  922.40   24.42
  -2   6   6  917.90   22.56
  -2   6   6  883.81   22.48
   2   6  -5  639.78   18.41
  -2   6   5  726.09   19.11
  -2   6   5  748.67   16.46
   2  -6   5  679.27   18.07
   2   6  -5  694.26   19.59
  -2   6   5  689.43   17.62
  -2  -6  -5  709.87   19.75
   2   6  -5  593.97   19.92
  -2   6   5  680.45   17.87
  -2   6   5  695.65   17.80
  -2   6   4  134.99    6.52
   2   6  -4  118.92    6.15
  -2   6   4  128.37    4.69
   2   6  -4  127.76    6.58
   2  -6   4  122.81    5.73
  -2   6   4  123.34    5.28
  -2  -6  -4  125.56    6.61
  -2   6   4  110.55    5.28
  -2   6   4  120.02    5.59
   2   6  -3   17.65    2.39
   2   6  -3   13.97    2.14
   2  -6   3   18.41    2.08
  -2   6   3   17.18    1.68
  -2  -6  -3   18.12    2.40
  -2   6   3   21.24    2.06
  -2   6   3   23.06    2.26
   2   6  -2  785.42   20.74
   2  -6   2  772.66   19.25
  -2   6   2  778.36   17.55
  -2  -6  -2  812.34   21.15
  -2   6   2  760.27   18.93
   2   6  -1   58.02    4.24
  -2  -6  -1   56.89    4.20
  -2   6   1   57.85    3.45
  -2   6   0 3778.70   76.28
   2   6   0 3763.90   76.46
  -2  -6   0 3779.82   76.77
  -2   6   0 3583.88   73.55
  -2   6  -1   43.50    3.59
  -2  -6   1   37.72    3.44
  -2  -6   1   34.89    1.88
  -2   6  -2  775.96   20.44
  -2  -6   2  759.25   20.67
   2   6   3   10.51    1.90
  -2   6  -3   25.04    2.74
   2   6   4  160.49    7.21
  -2   6  -4  180.49    7.78
  -2   6  -5  663.98   18.44
  -2   6  -5  662.29   18.62
  -2   6  -6  817.99   21.74
  -2   6  -6  840.24   22.12
  -2   6  -7   55.98    4.16
  -2   6  -7   48.14    3.99
   2   6   7   41.15    4.06
  -2   6  -7   43.95    3.91
  -2   6  -8 1283.03   32.15
  -2   6  -8 1330.59   33.52
  -2   6  -8 1303.38   33.09
   2   6   8 1333.64   34.69
  -2   6  -9  136.13    6.80
  -2   6  -9  155.15    8.00
   2   6   9  168.01    5.78
  -2   6  -9  160.46    8.05
   2   6   9  146.78    8.44
   2   6   9  146.76    7.58
  -2   6 -10  465.63   14.69
  -2   6 -10  497.82   16.64
   2   6  10  530.10   13.46
   2   6  10  491.41   16.24
   2   6  10  497.19   17.73
  -2   6 -10  549.04   17.16
   2   6  10  503.05   16.18
  -2   6 -11   43.83    4.44
   2   6  11   38.82    4.55
  -2   6 -11   43.20    4.31
   2   6  11   41.29    4.01
   2   6  11   43.83    4.21
  -2   6 -12  298.72   12.60
   2   6  12  276.36   11.77
   2   6  12  282.14   11.46
  -2   6 -13  672.00   21.47
   2   6  13  637.64   19.79
   2   6  13  660.95   20.63
  -2   6 -14  404.59   16.03
   2   6  14  393.64   14.56
   2   6  14  389.39   15.06
  -2   6 -15  265.27   12.70
   2   6  15  238.31   10.96
   2   6  15  241.20   11.42
  -2   6 -16  912.86   27.78
   2   6  16  872.83   26.16
   2   6  16  856.31   25.16
  -2   6 -17  170.21   10.61
   2   6  17  156.67    8.93
   2   6  17  153.98    9.34
   2   6  18  566.15   19.39
   2   6  18  562.85   20.31
  -2   6 -19  151.28   10.51
   2   6  19  135.86    8.39
   2   6  19  129.87    8.84
   2   6  20  293.79   13.29
   2   6  20  290.82   14.05
  -2   6 -21   49.48    6.52
   2   6  21   45.21    5.42
   2   6  21   46.24    5.08
   2   6  22  222.46   12.53
   2   6  22  248.21   12.12
  -2   6 -23   33.29    5.95
   2   6  23   29.76    4.28
   2   6  23   28.44    4.64
  -2   6 -24  559.05   24.44
   2   6  24  439.75   18.88
  -2   6 -25  108.41   10.77
   2   6  25   77.13    7.37
  -2   6 -26  181.42   13.93
   2   6  26  134.11    9.79
  -2   6 -27    4.00    3.66
   2   6  27    6.21    2.90
  -2   6 -28  282.97   17.17
   2   6  28  204.59   12.17
  -2   6 -29  149.92   12.41
   2  -6 -29  133.47   11.79
   2  -6 -30  329.30   18.54
  -2   6 -30  319.45   17.90
   2  -6 -31    7.69    3.34
  -2   6 -31    8.86    3.33
  -2   6 -32  213.51   13.36
   2  -6 -32  247.38   14.56
  -2  -7 -31   13.97    4.11
   2   7 -31   15.73    4.73
   2   7 -30  273.64   17.34
  -2  -7 -30  282.00   16.49
  -2  -7 -29   27.89    5.82
   2   7 -29   27.84    6.34
   2   7 -28  536.38   26.53
   2   7 -27   23.10    5.86
   2   7 -26  205.68   16.12
   2   7 -25   28.06    6.36
   2   7 -24  869.65   35.68
  -2   7  23    0.16    1.90
   2   7 -23    4.20    3.42
  -2   7  22  200.20   10.93
   2   7 -22  252.28   17.33
  -2   7  21   12.96    2.90
   2   7 -21   21.99    5.38
  -2   7  21   13.82    3.10
  -2   7  20 1137.26   31.66
  -2   7  20 1100.03   32.06
   2   7 -19   51.13    7.38
  -2   7  19   40.52    4.84
  -2   7  19   39.54    4.51
  -2   7  18  135.43    8.59
  -2   7  18  139.64    8.28
   2   7 -17   56.14    7.33
  -2   7  17   49.65    5.09
  -2   7  17   56.77    5.00
  -2   7  16 1110.87   29.91
  -2   7  16 1162.53   31.21
   2   7 -15   87.56    8.68
  -2   7  15   72.35    5.46
   2   7 -14  252.45   14.70
  -2   7  14  229.27   10.08
   2   7 -13   35.68    5.39
  -2   7  13   34.61    3.66
   2   7 -12 1846.87   48.78
  -2   7  12 1829.79   42.25
  -2   7  12 1788.51   41.68
  -2   7  11    5.09    1.57
  -2   7  11    5.80    1.83
   2   7 -11   10.66    3.14
  -2   7  11    6.28    1.75
  -2   7  10  170.68    8.57
   2   7 -10  162.59   10.29
  -2   7  10  171.13    8.14
  -2   7  10  158.87    7.63
  -2   7   9   52.66    3.31
   2   7  -9   45.66    4.93
  -2   7   9   44.80    4.06
   2   7  -9   40.72    4.92
  -2   7   9   39.64    3.85
  -2  -7  -9   41.10    4.43
  -2   7   9   46.26    3.92
   2   7  -8 1635.20   42.20
  -2   7   8 1792.93   40.59
  -2   7   8 1965.27   37.35
  -2   7   8 1591.97   39.51
   2   7  -8 1516.81   43.20
  -2  -7  -8 1736.80   42.17
  -2   7   8 1703.85   39.35
  -2   7   7  425.75   10.89
  -2   7   7  404.27   13.59
   2   7  -7  365.22   14.21
  -2   7   7  382.14   12.73
   2   7  -7  348.95   15.14
  -2  -7  -7  382.95   14.29
  -2   7   7  367.50   12.47
  -2   7   7  390.81   12.61
  -2   7   6  150.08    7.49
   2   7  -6  151.53    8.11
  -2   7   6  162.30    5.51
   2  -7   6  148.54    7.15
   2   7  -6  125.51    8.17
  -2   7   6  146.63    6.72
  -2  -7  -6  154.81    8.17
  -2   7   6  148.55    6.75
  -2   7   6  140.38    6.76
  -2   7   5    9.66    1.99
   2   7  -5    8.86    1.89
   2  -7   5   15.06    2.15
   2   7  -5    8.90    2.12
  -2  -7  -5    9.14    2.02
  -2   7   5   14.27    1.89
  -2   7   5    9.73    1.68
  -2   7   5    9.95    1.77
   2   7  -4 3485.58   75.81
  -2   7   4 3801.28   76.53
   2  -7   4 3577.54   74.55
   2   7  -4 3592.00   76.53
  -2   7   4 3830.49   73.61
  -2  -7  -4 3741.73   77.08
  -2   7   4 3564.69   73.62
  -2   7   4 3575.09   74.23
  -2   7   3   60.48    4.65
   2   7  -3   56.83    4.47
   2   7  -3   53.59    4.40
   2  -7   3   67.57    4.23
  -2  -7  -3   69.13    4.96
  -2   7   3   58.38    3.30
  -2   7   3   51.34    3.42
  -2   7   3   56.65    3.82
   2   7  -2   16.78    2.53
   2  -7   2   20.07    2.22
  -2  -7  -2   19.05    2.64
  -2   7   2   25.59    2.48
   2   7  -1   40.06    3.82
  -2   7   1   39.84    3.07
  -2   7   1   43.44    2.91
  -2   7   0 6011.20  117.48
   2   7   0 5978.74  117.57
  -2  -7   0 5689.05  117.28
  -2   7   0 5722.94  114.01
  -2   7  -1   50.94    4.22
  -2  -7   1   39.58    1.55
  -2  -7   1   47.04    4.11
  -2   7  -1   49.01    3.14
  -2   7  -2   23.76    2.94
  -2  -7   2   20.88    2.91
  -2   7  -2   22.15    2.04
  -2   7  -3   59.36    4.71
   2   7   3   62.71    4.65
  -2  -7   3   53.84    4.52
  -2   7  -4 3610.41   75.38
   2   7   4 3551.95   74.77
  -2   7  -5   22.04    2.91
   2   7   5   19.77    2.66
  -2   7  -6  142.43    7.39
   2   7   6  143.22    7.26
  -2   7  -6  144.76    7.59
  -2   7  -7  367.04   13.21
  -2   7  -7  419.27   14.35
  -2   7  -7  394.33   13.99
   2   7   7  380.17   13.37
  -2   7  -8 1600.28   38.03
  -2   7  -8 1646.86   39.47
  -2   7  -8 1688.10   39.25
   2   7   8 1586.40   38.39
   2   7   8 1598.19   38.55
  -2   7  -9   38.12    4.14
  -2   7  -9   37.27    3.65
   2   7   9   36.16    3.85
  -2   7  -9   44.22    4.30
   2   7   9   44.38    4.72
   2   7   9   34.70    3.76
   2   7  10  199.09    5.86
  -2   7 -10  176.26    9.41
  -2   7 -10  179.32    9.27
   2   7  10  165.86    8.74
  -2   7 -11    8.81    2.40
   2   7  11    8.68    1.26
  -2   7 -11    9.45    2.32
   2   7  11   13.63    2.49
  -2   7 -12 1767.15   43.95
  -2   7 -12 1801.91   43.40
   2   7  12 1701.98   41.67
   2   7  12 1676.33   42.07
  -2   7 -13   49.07    5.15
   2   7  13   51.62    4.89
   2   7  13   47.41    4.87
  -2   7 -14  237.46   12.05
   2   7  14  238.90   11.49
   2   7  14  224.31   10.87
   2   7  15   85.11    6.75
   2   7  15   80.64    6.38
  -2   7 -16 1242.30   34.90
   2   7  16 1164.29   32.06
   2   7  16 1154.71   32.81
  -2   7 -17   58.86    6.34
   2   7  17   57.62    5.79
   2   7  17   61.10    5.64
  -2   7 -18  185.78   11.61
   2   7  18  158.22    9.41
   2   7  18  163.14   10.12
   2   7  19   42.38    5.20
   2   7  19   45.68    4.99
   2   7  20 1110.55   33.68
   2   7  20 1157.37   32.92
   2   7  21   11.54    2.94
  -2   7 -21   14.44    3.88
   2   7  21    9.71    3.03
  -2   7 -22  256.70   15.19
   2   7  22  221.45   12.66
   2   7  22  229.24   12.00
   2   7  23    2.04    1.96
  -2   7 -23    5.81    2.89
   2   7  23    4.93    2.79
   2   7  24  718.66   23.82
   2   7  24  637.75   24.17
  -2   7 -25   36.34    6.19
   2   7  25   24.81    4.39
  -2   7 -26  193.67   13.85
   2   7  26  139.96   10.08
  -2   7 -27   24.99    5.67
   2   7  27   19.16    4.12
  -2   7 -28  575.43   24.83
   2   7  28  447.89   18.90
   2  -7 -29   20.96    5.46
  -2   7 -29   17.63    4.99
  -2   7 -30  260.74   15.66
   2  -7 -30  275.13   16.55
  -2   7 -31    8.56    3.64
   2  -7 -31   14.18    4.03
   2   8 -30  232.58   15.48
  -2  -8 -30  240.86   14.74
   2   8 -29  123.44   11.67
   2   8 -28  456.25   23.79
   2   8 -27   10.55    4.39
   2   8 -26  150.79   13.61
   2   8 -25   43.49    7.48
   2   8 -24  212.18   16.15
  -2   8  23   22.91    3.90
   2   8 -23   34.12    6.71
  -2   8  22  232.74   11.98
   2   8 -22  289.22   18.70
  -2   8  21   14.03    3.12
  -2   8  21   12.43    3.06
  -2   8  20  298.99   13.52
  -2   8  20  325.72   14.53
  -2   8  19    8.94    2.69
   2   8 -19    5.70    3.77
  -2   8  19    5.75    2.58
  -2   8  18  415.43   16.62
  -2   8  18  419.82   16.00
   2   8 -17  125.43   11.39
  -2   8  17  111.80    7.38
   2   8 -16  285.78   16.77
  -2   8  16  238.19   11.06
   2   8 -15  129.71   10.87
  -2   8  15  109.43    7.03
  -2   8  14  485.84   15.61
  -2   8  14  508.49   16.90
  -2   8  13  284.42   11.26
   2   8 -13  301.68   16.24
  -2   8  13  280.33   11.61
  -2   8  13  299.49   12.15
  -2   8  12  315.55   12.14
   2   8 -12  311.07   16.34
  -2   8  12  315.72   12.41
  -2   8  12  311.88   12.22
   2   8 -11  199.19   12.43
  -2   8  11  197.94    9.18
  -2   8  11  182.00    8.74
  -2   8  10  374.96   14.36
   2   8 -10  425.68   18.44
  -2   8  10  423.40   14.21
   2   8  -9  307.90   14.09
  -2   8   9  346.09    9.41
  -2   8   9  308.72   12.27
   2   8  -9  292.69   14.85
  -2   8   9  314.66   11.83
   2   8  -8  265.06   12.36
   2  -8   8  265.27   11.52
  -2   8   8  276.87    7.80
  -2   8   8  264.98   10.69
   2   8  -8  241.53   12.88
  -2   8   8  256.04   10.32
  -2   8   8  264.68   10.34
  -2   8   7   93.57    6.27
   2   8  -7   88.84    6.64
   2  -8   7   89.81    6.01
  -2   8   7  100.50    5.82
  -2  -8  -7   99.05    6.89
  -2   8   7   92.09    5.52
  -2   8   7   91.88    5.67
   2  -8   6 1730.91   40.30
  -2   8   6 1816.08   41.31
   2   8  -6 1680.15   41.89
  -2   8   6 1780.39   39.20
  -2  -8  -6 1773.27   42.32
  -2   8   6 1719.64   39.24
  -2   8   6 1689.89   38.56
   2   8  -5  110.27    6.71
   2   8  -5  121.44    7.49
   2  -8   5  137.10    6.99
  -2   8   5  134.57    7.49
  -2  -8  -5  125.29    7.55
  -2   8   5  126.98    6.05
  -2   8   5  118.23    5.95
  -2   8   5  121.17    6.39
   2   8  -4 1674.70   40.79
  -2   8   4 1822.05   41.47
   2   8  -4 1782.74   41.71
   2  -8   4 1736.88   39.60
  -2  -8  -4 1807.62   42.12
  -2   8   4 1667.10   38.07
  -2   8   4 1722.09   39.01
   2   8  -3  230.73   10.09
  -2   8   3  232.09   10.06
   2  -8   3  207.08    8.48
   2   8  -3  211.90    9.83
  -2  -8  -3  226.45   10.26
  -2   8   3  218.86    8.05
  -2   8   3  220.95    8.64
   2   8  -2  179.12    8.79
  -2  -8  -2  166.31    8.59
  -2   8   2  160.03    6.57
  -2   8   2  174.55    7.31
   2   8  -1   12.79    2.44
  -2  -8  -1   16.36    2.64
  -2   8   1   10.83    1.59
  -2   8   1   14.45    1.98
  -2   8   0  136.24    7.50
   2   8   0  150.39    7.95
  -2  -8   0  149.38    8.01
  -2   8   0  148.00    6.34
  -2   8   0  129.14    5.42
  -2   8  -1    6.10    1.79
  -2  -8   1    9.01    2.12
  -2   8  -1    9.23    1.51
  -2   8  -2  176.86    8.65
  -2  -8   2  176.71    9.04
  -2   8  -2  172.67    6.57
   2   8   3  240.15   10.38
  -2   8  -3  228.34   10.06
  -2  -8   3  222.95   10.50
  -2   8  -3  214.70    7.38
   2   8   4 1564.50   38.11
  -2  -8   4 1633.17   40.84
  -2   8  -4 1645.85   35.13
   2   8   5  153.55    7.95
  -2   8  -5  142.32    7.86
   2   8   5  125.67    6.90
  -2  -8   5  133.17    7.94
  -2   8  -6 1679.58   39.15
   2   8   6 1537.52   37.75
  -2   8  -7   97.80    6.74
  -2   8  -7   92.08    6.25
   2   8   7   90.39    6.03
  -2   8  -8  266.75   11.74
   2   8   8  247.57   10.90
   2   8   8  249.34   11.11
  -2   8  -9  318.25   13.41
  -2   8  -9  323.21   13.35
   2   8   9  287.41   12.16
   2   8   9  290.04   12.30
  -2   8 -10  431.42   16.17
  -2   8 -10  415.96   15.84
   2   8  10  367.24   14.43
   2   8  10  380.52   14.72
  -2   8 -11  205.42   10.99
  -2   8 -11  210.92   10.96
   2   8  11  216.72   10.51
  -2   8 -12  267.99   11.20
  -2   8 -12  313.50   14.25
  -2   8 -12  313.54   13.91
   2   8  12  306.22   13.07
  -2   8 -13  293.28   13.34
   2   8  13  268.91   12.27
  -2   8 -14  573.06   20.60
   2   8  14  560.10   19.27
   2   8  14  518.23   19.05
  -2   8 -15  115.51    8.72
   2   8  15  114.19    7.83
   2   8  15  112.21    8.07
  -2   8 -16  269.76   13.74
   2   8  16  230.55   12.13
   2   8  16  235.92   11.88
  -2   8 -17  122.08    9.33
   2   8  17  107.41    7.79
   2   8  17  107.35    8.20
  -2   8 -18  453.14   19.44
   2   8  18  434.69   17.83
   2   8  18  419.57   16.91
   2   8  19    2.33    1.87
  -2   8 -19    4.63    2.97
   2   8  19    2.21    2.33
  -2   8 -20  328.79   16.83
   2   8  20  320.17   15.24
   2   8  20  326.68   14.82
  -2   8 -21   21.30    4.59
   2   8  21   19.29    4.09
   2   8  21   25.54    4.16
  -2   8 -22  254.61   15.11
   2   8  22  224.80   12.78
   2   8  22  224.75   12.10
  -2   8 -23   26.71    5.30
   2   8  23   24.52    4.41
   2   8  23   28.03    4.41
  -2   8 -24  188.62   13.30
   2   8  24  162.51   10.13
   2   8  24  158.77   10.61
  -2   8 -25   32.38    5.66
   2   8  25   28.05    4.60
   2   8  25   28.04    4.39
  -2   8 -26  156.57   12.19
   2   8  26  135.26    9.75
  -2   8 -27   10.27    4.02
   2   8  27    3.05    2.44
  -2   8 -28  458.66   21.20
   2   8  28  329.20   15.55
   2  -8 -29  120.23   10.61
  -2   8 -29  127.10   10.85
  -2   8 -30  220.64   13.95
   2  -8 -30  218.88   14.11
  -2  -9 -30  248.90   14.42
   2   9 -29   63.96    8.08
   2   9 -28  338.76   19.42
   2   9 -27   17.27    5.09
   2   9 -26  206.62   15.80
   2   9 -25   77.67    9.80
   2   9 -24  544.34   27.00
  -2   9  23    4.78    2.30
   2   9 -23   11.61    4.78
  -2   9  22  171.05   10.29
   2   9 -22  212.29   16.14
  -2   9  21   54.62    5.70
  -2   9  21   51.57    5.82
  -2   9  20  588.33   21.50
  -2   9  20  587.81   20.73
  -2   9  19   11.46    2.98
   2   9 -19   10.56    4.81
   2   9 -18  187.68   14.38
  -2   9  18  138.95    8.81
   2   9 -17   30.75    6.22
  -2   9  17   26.92    3.85
   2   9 -16 1091.03   37.41
  -2   9  16  917.11   27.29
   2   9 -15   18.46    4.72
  -2   9  15   13.81    3.01
  -2   9  15   16.22    3.07
  -2   9  14   89.38    6.07
  -2   9  14  105.87    7.27
  -2   9  14   88.49    6.53
  -2   9  13  119.51    7.30
   2   9 -13  132.84   11.10
  -2   9  13  123.00    7.71
  -2   9  13  119.01    7.43
  -2   9  12 1094.49   30.17
   2   9 -12 1203.00   37.76
  -2   9  12 1150.70   30.24
  -2   9  11  117.09    7.40
   2   9 -11  103.62    9.19
  -2   9  11  116.20    7.09
  -2   9  10  117.10    6.95
   2   9  -9  222.15   12.16
  -2   9   9  218.93   10.37
  -2   9   9  235.53   10.02
  -2   9   9  237.52   10.19
   2   9  -8 2382.80   58.27
  -2   9   8 2572.77   55.43
  -2   9   8 2437.72   54.54
  -2   9   8 2444.14   54.10
   2   9  -7   48.37    5.24
  -2   9   7   47.15    4.12
  -2   9   7   40.22    3.92
  -2   9   7   40.20    3.74
   2   9  -6  137.30    8.58
  -2   9   6  146.90    7.40
  -2   9   6  129.75    6.70
   2   9  -5  300.63   12.97
   2   9  -5  285.05   12.11
  -2   9   5  301.87   10.66
  -2   9   5  309.86   11.43
   2   9  -4 2007.60   47.42
   2   9  -4 2020.93   48.25
  -2  -9  -4 2060.25   48.68
  -2   9   4 2013.94   44.23
  -2   9   4 2043.99   45.36
   2   9  -3  117.31    7.43
   2   9  -3  118.56    7.56
  -2   9   3  127.87    7.73
  -2  -9  -3  123.70    7.79
  -2   9   3  119.30    6.31
  -2   9   3  115.36    5.80
   2   9  -2  226.17   10.59
   2   9  -2  227.94   10.67
  -2  -9  -2  239.01   11.04
  -2   9   2  216.08    8.15
  -2   9   2  225.81    8.96
   2   9  -1  208.31   10.04
   2   9  -1  174.85    7.65
  -2  -9  -1  196.39    9.93
  -2   9   1  196.54    8.05
  -2   9   1  191.86    7.23
   2   9   0 2374.79   52.08
  -2   9   0 2320.91   51.79
  -2  -9   0 2272.99   52.03
  -2   9   0 2210.46   47.35
  -2   9   0 2200.65   46.00
  -2   9  -1  208.42   10.08
  -2  -9   1  200.58   10.23
   2   9   1  186.56    8.19
  -2   9  -1  202.75    7.72
  -2   9  -2  220.65   10.45
  -2  -9   2  207.63   10.50
   2   9   2  200.75    8.69
  -2   9  -2  203.47    7.59
   2   9   3  131.59    7.88
  -2   9  -3  131.97    7.90
  -2  -9   3  116.98    7.83
   2   9   3  113.50    6.43
  -2   9  -3  116.98    5.30
   2   9   4 1868.16   44.50
  -2  -9   4 2010.77   48.55
   2   9   4 1869.52   45.40
  -2  -9   5  298.71   13.61
   2   9   5  293.15   11.57
   2   9   5  288.81   12.05
  -2  -9   6  128.00    8.52
   2   9   6  135.42    7.47
   2   9   6  127.50    7.67
  -2   9  -7   52.47    5.32
  -2  -9   7   40.23    4.64
   2   9   7   45.41    4.39
  -2   9  -8 2395.52   55.57
   2   9   8 2263.94   52.92
  -2   9  -9  244.27   12.15
   2   9   9  227.88   10.77
   2   9   9  227.49   11.00
  -2   9 -10  109.12    8.10
  -2   9 -10  112.23    7.96
   2   9  10  104.22    7.27
   2   9  10  122.33    7.82
  -2   9 -11   89.60    6.41
  -2   9 -11  103.75    8.04
  -2   9 -11  106.91    7.88
   2   9  11  100.04    7.22
   2   9  11   99.38    7.14
  -2   9 -12 1108.62   32.47
  -2   9 -12 1202.01   32.73
   2   9  12 1094.18   30.49
   2   9  12 1103.64   30.37
  -2   9 -13   97.60    6.49
  -2   9 -13  124.76    8.94
   2   9  13  115.16    7.97
  -2   9 -14   94.88    7.93
   2   9  14   87.10    7.10
  -2   9 -15   24.02    4.43
   2   9  15   19.53    3.59
   2   9  16  932.12   28.51
   2   9  16  875.01   28.36
  -2   9 -17   26.74    4.80
   2   9  17   23.36    3.98
   2   9  17   28.54    4.59
  -2   9 -18  163.26   11.40
   2   9  18  159.66    9.92
   2   9  18  144.90    9.99
  -2   9 -19   18.59    4.40
   2   9  19   18.01    3.92
   2   9  19   16.24    3.53
   2   9  20  618.74   23.16
   2   9  20  618.78   22.38
  -2   9 -21   71.70    7.93
   2   9  21   59.34    6.51
   2   9  21   56.47    6.10
  -2   9 -22  189.65   12.98
   2   9  22  159.43   10.87
   2   9  22  174.83   10.62
   2   9  23    5.30    2.44
  -2   9 -23    7.00    3.05
   2   9  23    4.69    2.57
  -2   9 -24  479.72   21.82
   2   9  24  449.87   17.90
  -2   9 -25   53.61    7.16
   2   9  25   42.02    5.54
   2   9  25   45.24    5.33
   2   9  26  153.00   10.28
   2   9  26  166.95    9.87
  -2   9 -27   18.66    4.66
   2   9  27    8.97    2.91
  -2   9 -28  335.22   17.38
   2   9  28  251.81   12.88
  -2   9 -29   69.12    7.60
   2  10 -24  152.48   13.22
  -2  10  23   26.62    4.18
   2  10 -23   38.40    7.18
  -2  10  22  196.21   11.07
   2  10 -22  253.96   17.40
   2  10 -21  200.65   15.40
  -2  10  21  161.22    9.94
   2  10 -20  652.33   28.59
  -2  10  20  469.08   18.46
  -2  10  19   12.83    3.13
   2  10 -19   14.65    5.15
   2  10 -18  445.89   23.12
  -2  10  18  345.87   15.12
  -2  10  17  109.76    7.98
  -2  10  17  100.54    7.51
   2  10 -16  190.20   14.43
  -2  10  16  171.58    9.78
  -2  10  16  178.99   10.20
  -2  10  15   40.86    4.18
   2  10 -15   47.81    7.36
  -2  10  15   46.66    5.14
  -2  10  15   38.42    4.62
  -2  10  14  606.80   19.67
  -2  10  14  622.59   20.64
  -2  10  14  664.08   21.28
  -2  10  13  150.17    8.69
  -2  10  13  155.50    9.01
  -2  10  12  524.66   18.30
  -2  10  12  509.84   17.80
  -2  10  11  150.30    9.00
  -2  10  11  145.62    8.31
  -2  10  10  344.52   14.35
  -2  10  10  345.61   13.29
  -2  10  10  322.72   13.04
   2  10  -9  144.21   10.10
  -2  10   9  155.92    9.25
  -2  10   9  164.57    8.37
  -2  10   9  159.73    8.48
   2  10  -8  179.77   11.02
  -2  10   8  195.51   10.50
  -2  10   8  191.87    9.02
  -2  10   8  188.39    9.17
   2  10  -7   95.03    7.68
  -2  10   7  100.37    6.44
  -2  10   7  103.85    6.27
   2  10  -6  347.62   15.21
  -2  10   6  359.71   13.10
  -2  10   6  353.38   12.52
   2  10  -5  173.27   10.14
  -2  10   5  185.35    8.68
  -2  10   5  176.35    8.04
   2  10  -4 1051.36   30.19
   2  10  -4 1037.42   29.27
  -2  10   4 1033.05   26.84
  -2  10   4 1057.90   26.06
   2  10  -3  195.75   10.51
   2  10  -3  190.85   10.09
  -2  10   3  189.85    7.94
  -2  10   3  190.47    8.51
   2  10  -2  197.86   10.28
   2  10  -2  202.43   10.51
   2  10  -2  181.58    7.75
  -2  10   2  196.44    8.49
  -2  10   2  201.63    7.87
   2  10  -1   84.63    6.60
   2  10  -1   69.02    4.63
  -2  10   1   80.53    5.09
  -2  10   1   78.36    4.42
   2  10   0  108.28    7.45
   2  10   0   96.74    5.65
  -2 -10   0   97.95    7.37
  -2  10   0   97.52    5.45
   2  10   0   95.83    6.22
   2  10   1   79.50    5.24
  -2 -10   1   85.43    6.87
  -2  10  -1   82.62    4.85
   2  10   1   88.78    6.02
  -2 -10   2  183.40   10.48
   2  10   2  175.39    8.93
  -2  10  -2  173.32    7.20
   2  10   2  173.37    8.20
   2  10   3  208.95   10.66
  -2 -10   3  197.83   11.06
   2  10   3  181.55    9.27
   2  10   3  182.04    8.64
  -2  10  -3  190.15    7.36
  -2 -10   4 1073.13   31.34
   2  10   4  995.84   27.03
   2  10   4  996.01   28.10
   2  10   5  156.79    8.19
   2  10   5  160.80    8.81
  -2  10  -6  344.38   15.01
   2  10   6  330.07   12.98
   2  10   6  332.00   13.61
  -2  10  -7   99.85    7.69
   2  10   7   99.41    7.01
   2  10   7   87.80    6.35
  -2  10  -8  184.72   10.87
   2  10   8  185.29    9.61
  -2  10  -9  153.48    9.99
  -2  10  -9  137.02    8.71
   2  10   9  149.82    8.68
  -2  10 -10  348.86   15.71
  -2  10 -10  293.85   13.24
   2  10  10  318.01   13.53
   2  10  10  322.88   14.04
  -2  10 -11  148.35   10.16
  -2  10 -11  138.12    8.56
   2  10  11  154.19    9.11
   2  10  11  157.26    9.47
  -2  10 -12  483.19   20.01
   2  10  12  498.09   18.45
   2  10  12  494.64   18.07
  -2  10 -13  131.44    8.07
   2  10  13  155.69    9.67
   2  10  13  158.21    9.60
  -2  10 -14  704.00   24.20
   2  10  14  668.01   22.23
   2  10  14  635.47   21.65
  -2  10 -15   46.32    6.09
   2  10  15   47.35    5.58
  -2  10 -16  186.70   12.11
   2  10  16  174.04   10.62
  -2  10 -17  111.14    9.38
   2  10  17  109.05    8.34
  -2  10 -18  413.94   19.02
   2  10  18  359.74   16.10
   2  10  19    6.19    2.64
  -2  10 -19    8.14    3.59
   2  10  19    5.75    2.97
  -2  10 -20  535.26   22.66
   2  10  20  489.64   20.06
   2  10  20  510.84   19.70
  -2  10 -21  190.03   12.86
   2  10  21  169.03   11.02
   2  10  21  175.11   10.61
  -2  10 -22  234.01   14.38
   2  10  22  203.80   12.04
   2  10  22  213.77   11.85
  -2  10 -23   30.75    5.48
   2  10  23   23.80    4.27
   2  10  23   26.94    4.20
  -2  10 -24  135.00   10.86
   2  10  24  113.08    8.71
   2  10  24  127.49    8.72
  -2  10 -25  122.49   10.38
   2  10  25  113.02    8.13
   2  10  25  103.13    8.24
   2  10  26  138.51    8.73
   2  10  26  130.89    9.10
   2  10  27    5.13    2.46
   2  10  28  186.77   10.26
  -2  11  23   19.54    3.62
  -2  11  22  121.76    8.46
  -2  11  21  208.27   11.39
  -2  11  20  285.32   13.49
  -2  11  19   34.94    4.88
  -2  11  19   35.22    4.78
  -2  11  18  224.17   11.89
  -2  11  18  224.25   11.82
  -2  11  17  448.60   17.73
  -2  11  17  445.77   17.52
  -2  11  16  421.72   16.78
  -2  11  16  430.42   17.05
  -2  11  15   26.51    3.50
  -2  11  15   27.66    4.09
  -2  11  15   25.48    4.01
  -2  11  14  154.87    8.97
  -2  11  14  164.62    9.63
  -2  11  13  538.35   19.17
  -2  11  13  558.70   19.36
  -2  11  12  302.71   13.71
  -2  11  12  313.44   13.31
  -2  11  12  290.90   13.00
  -2  11  11   23.15    3.99
  -2  11  11   24.27    3.63
  -2  11  11   22.55    3.53
  -2  11  10  191.22   10.81
  -2  11  10  181.94    9.46
  -2  11  10  188.44    9.85
  -2  11   9  526.28   19.35
  -2  11   9  509.07   17.03
  -2  11   9  495.43   17.28
   2  11  -8  644.78   24.32
  -2  11   8  739.87   23.96
  -2  11   8  712.24   20.97
  -2  11   8  675.95   21.06
   2  11  -7  188.18   11.51
  -2  11   7  207.39   11.29
  -2  11   7  204.83    9.35
  -2  11   7  184.71    9.34
  -2  11   6    5.10    2.44
   2  11  -6    1.25    1.21
  -2  11   6    1.05    1.45
  -2  11   6    1.06    1.39
   2  11  -5  166.20   10.48
  -2  11   5  198.28   10.94
  -2  11   5  176.83    8.74
  -2  11   5  170.45    8.15
   2  11  -5  165.28    8.28
   2  11  -4  676.52   23.62
  -2  11   4  700.83   20.45
  -2  11   4  713.04   19.62
   2  11  -4  693.54   20.45
   2  11  -3  169.39   10.37
  -2  11   3  174.49    8.36
  -2  11   3  172.71    7.64
   2  11  -3  169.36    8.52
   2  11  -2   11.63    3.02
  -2  11   2   13.48    2.38
  -2  11   2   12.28    1.99
   2  11  -2   15.11    2.63
   2  11  -1  333.33   14.83
   2  11  -1  330.20   14.53
   2  11  -1  323.71   12.78
  -2  11   1  330.62   11.70
   2  11  -1  313.73   11.35
   2  11   0 1151.45   29.06
  -2  11   0 1196.50   28.81
   2  11   0 1122.66   30.56
   2  11   1  314.46   12.74
  -2  11  -1  312.71   10.88
   2  11   1  294.08   11.42
   2  11   2    9.99    2.41
   2  11   2   10.03    2.17
  -2  11  -2    9.93    1.85
   2  11   3  174.14    8.56
   2  11   3  172.66    9.21
   2  11   4  676.02   20.43
   2  11   4  690.72   21.57
  -2  11  -5  192.79   10.99
   2  11   5  189.70    9.39
   2  11   5  189.74    9.97
  -2  11  -6    1.68    2.29
   2  11   6    2.44    1.70
  -2  11  -6   21.63    3.79
   2  11   6   26.60    3.52
  -2  11  -7  176.24   11.08
  -2  11  -7  171.70   10.24
   2  11   7  169.79    9.66
   2  11   7  162.57    8.89
  -2  11  -8  665.98   23.88
  -2  11  -8  654.66   22.55
   2  11   8  663.59   21.94
   2  11   8  637.29   20.75
  -2  11  -9  476.86   19.70
  -2  11  -9  444.31   17.89
   2  11   9  472.98   17.11
  -2  11 -10  176.16   11.47
  -2  11 -10  157.78    9.77
   2  11  10  170.73    9.67
  -2  11 -11   45.18    6.18
  -2  11 -11   33.95    4.53
   2  11  11   35.33    4.45
  -2  11 -12  281.47   15.41
  -2  11 -12  246.63   12.35
   2  11  12  301.15   14.11
   2  11  12  279.34   13.12
   2  11  13  567.47   20.43
   2  11  13  538.70   19.55
  -2  11 -14  125.00    8.07
   2  11  14  157.19   10.14
   2  11  14  152.87    9.68
   2  11  15   25.61    4.19
   2  11  15   34.20    4.85
   2  11  16  427.81   17.80
   2  11  16  421.84   17.59
   2  11  17  470.54   18.79
   2  11  18  222.48   12.34
   2  11  19   40.81    5.40
   2  11  20  283.96   13.90
   2  11  21  201.70   11.86
   2  11  21  208.41   11.62
   2  11  22  128.84    9.20
   2  11  22  140.55    9.29
   2  11  23   19.05    3.88
   2  11  23   20.72    3.79
   2  11  24  190.18   11.12
   2  11  24  186.81   10.48
   2  11  25  172.34    9.82
   2  11  25  161.00   10.05
   2  11  26   98.75    7.50
   2  11  26   90.09    6.76
   2  11  27   10.48    2.91
  -2  12  22   71.90    6.37
  -2  12  21   20.43    3.77
  -2  12  20  288.75   13.64
  -2  12  19    8.96    2.81
  -2  12  18  248.07   12.59
  -2  12  17   84.47    6.99
  -2  12  17   82.48    7.12
  -2  12  16   38.91    4.86
  -2  12  16   47.19    5.36
  -2  12  15    8.35    2.46
  -2  12  15    8.42    2.68
  -2  12  14  286.86   13.01
  -2  12  14  288.55   13.22
  -2  12  13   49.17    5.40
  -2  12  13   51.32    5.39
  -2  12  13   49.26    5.23
  -2  12  12  594.37   21.27
  -2  12  12  592.86   20.02
  -2  12  12  573.01   20.07
  -2  12  11   29.32    4.58
  -2  12  11   30.85    4.07
  -2  12  11   29.99    4.16
  -2  12  10  890.33   28.12
  -2  12  10  860.80   25.24
  -2  12  10  843.13   25.54
   2  12  -9   36.07    6.01
  -2  12   9   39.63    5.25
  -2  12   9   38.05    4.26
  -2  12   9   38.30    4.50
   2  12  -8  229.44   13.93
  -2  12   8  256.74   13.29
  -2  12   8  244.79   10.90
  -2  12   8  237.32   11.23
   2  12  -7   94.61    8.66
  -2  12   7  119.54    8.86
  -2  12   7  107.30    6.73
  -2  12   7  100.18    6.94
   2  12  -6   43.30    5.94
  -2  12   6   51.91    5.91
  -2  12   6   49.23    4.40
  -2  12   6   45.70    4.60
   2  12  -5   13.18    3.66
  -2  12   5   17.57    3.87
  -2  12   5   21.00    3.14
  -2  12   5   13.63    2.44
   2  12  -5   15.07    2.59
   2  12  -4  378.09   17.39
  -2  12   4  417.81   17.58
  -2  12   4  405.20   13.56
  -2  12   4  413.94   14.63
   2  12  -4  394.90   14.40
   2  12  -3   95.14    8.13
  -2  12   3  103.04    8.24
  -2  12   3   99.05    6.32
   2  12  -3   98.82    6.54
   2  12  -2  218.73   12.55
  -2  12   2  227.61    9.86
   2  12  -2  229.50   10.52
   2  12  -1   39.43    5.29
  -2  12   1   37.01    3.70
   2  12  -1   33.16    3.96
   2  12   0  204.18   12.09
  -2  12   0  217.92   12.19
  -2  12   0  218.12    9.24
   2  12   0  215.93    9.18
   2  12   0  217.34   10.43
  -2  12  -1   35.09    4.89
   2  12   1   30.74    3.86
  -2  12  -1   37.43    3.50
   2  12   1   31.90    3.49
  -2  12  -2  216.63   12.17
   2  12   2  210.37   10.45
  -2  12  -2  210.42    8.56
   2  12   2  203.83    9.37
  -2  12  -3   95.82    8.05
   2  12   3  102.81    7.16
   2  12   3   99.34    6.38
  -2  12  -4  394.35   17.10
   2  12   4  366.83   14.87
   2  12   4  384.44   14.08
  -2  12  -5   12.89    3.77
  -2  12  -5   13.19    3.41
   2  12   5   12.03    2.70
   2  12   5    9.00    2.29
  -2  12  -6   55.72    6.55
  -2  12  -6   60.57    6.41
   2  12   6   55.40    5.48
   2  12   6   48.69    4.73
  -2  12  -7  104.46    8.80
  -2  12  -7   94.54    8.02
   2  12   7   99.46    7.47
   2  12   7   94.35    6.70
  -2  12  -8  238.16   13.71
  -2  12  -8  255.20   13.29
   2  12   8  233.74   11.98
   2  12   8  225.57   11.07
  -2  12  -9   19.96    4.60
  -2  12  -9   15.94    3.62
   2  12   9   15.79    3.54
   2  12   9   20.24    3.38
  -2  12 -10  824.86   28.64
  -2  12 -10  760.24   26.02
   2  12  10  814.48   24.95
  -2  12 -11   27.13    5.31
  -2  12 -11   16.72    3.64
   2  12  11   15.55    3.31
  -2  12 -12  548.97   23.01
  -2  12 -12  484.09   19.13
   2  12  12  552.72   19.55
  -2  12 -13   40.56    5.00
   2  12  13   49.22    5.63
   2  12  13   49.63    5.35
   2  12  14  307.91   14.51
   2  12  14  291.28   13.67
   2  12  15   11.10    3.08
   2  12  15    5.06    2.54
   2  12  16   42.18    5.23
   2  12  16   46.79    5.56
   2  12  17   74.81    7.12
   2  12  17   82.70    7.37
   2  12  18  244.29   13.01
   2  12  18  237.82   12.77
   2  12  19   13.46    3.43
   2  12  19   10.98    3.37
   2  12  20  337.05   15.17
   2  12  21   21.87    3.84
   2  12  22   77.96    6.69
   2  12  23    4.38    2.28
   2  12  23    3.39    2.22
   2  12  24   14.51    3.14
   2  12  24   16.05    3.38
   2  12  25   19.17    3.59
   2  12  25   16.75    3.18
   2  12  26  178.98    9.72
  -2  13  22   69.53    6.02
  -2  13  21  369.80   15.27
  -2  13  20   53.27    5.60
  -2  13  19   84.71    7.02
  -2  13  18   72.21    6.48
  -2  13  14   22.07    3.78
  -2  13  14   18.73    3.45
  -2  13  14   19.95    3.63
  -2  13  13  501.71   19.02
  -2  13  13  502.10   18.50
  -2  13  13  487.65   17.95
  -2  13  12  167.70   10.53
  -2  13  12  157.00    9.16
  -2  13  12  168.85    9.83
  -2  13  11  308.32   15.12
  -2  13  11  304.50   13.16
  -2  13  11  309.75   13.64
  -2  13  10  139.91    9.95
  -2  13  10  138.45    8.25
  -2  13  10  124.79    8.27
  -2  13   9  854.08   27.97
  -2  13   9  828.15   24.01
  -2  13   9  789.67   24.44
   2  13  -8  211.01   13.82
  -2  13   8  238.00   13.33
  -2  13   8  218.19   10.28
  -2  13   8  223.12   11.01
  -2  13   7  454.76   19.20
  -2  13   7  431.15   15.15
  -2  13   7  428.45   15.99
   2  13  -6  130.21   10.39
  -2  13   6  148.71   10.42
  -2  13   6  140.62    8.40
  -2  13   5  664.88   24.10
   2  13  -5  633.66   19.37
  -2  13   5  624.99   19.88
   2  13  -4  162.52   11.57
  -2  13   4  181.16   11.64
  -2  13   4  173.99    9.01
   2  13  -4  169.02    8.87
   2  13  -3  301.92   15.89
  -2  13   3  332.27   16.16
   2  13  -3  311.85   12.72
  -2  13   3  315.98   12.58
   2  13  -2    2.41    2.77
   2  13  -2    3.80    1.76
   2  13  -1  443.06   19.86
   2  13  -1  466.13   16.69
  -2  13   1  487.69   15.74
   2  13   0   42.34    5.97
  -2  13   0   56.41    6.52
  -2  13   0   49.46    4.27
   2  13   0   47.22    4.83
   2  13   1  480.14   20.53
  -2  13  -1  496.78   20.41
  -2  13  -1  470.78   15.09
   2  13   1  478.28   17.28
  -2  13  -2    7.64    3.26
   2  13   2    7.43    2.37
   2  13   2    7.47    1.97
  -2  13  -3  302.95   15.42
   2  13   3  293.99   13.15
   2  13   3  289.59   11.70
  -2  13  -4  159.59   10.99
   2  13   4  184.03   10.13
   2  13   4  173.40    8.82
  -2  13  -5  617.40   23.41
   2  13   5  612.11   20.89
   2  13   5  592.05   19.11
  -2  13  -6  116.92    9.90
  -2  13  -6  123.87    9.62
   2  13   6  131.15    8.64
   2  13   6  120.21    7.53
  -2  13  -7  413.93   19.31
  -2  13  -7  403.58   18.24
   2  13   7  428.78   16.86
   2  13   7  397.69   15.26
  -2  13  -8  201.83   13.08
  -2  13  -8  209.53   12.58
   2  13   8  195.15   10.13
   2  13   8  216.82   11.58
  -2  13  -9  775.15   28.41
  -2  13  -9  760.55   26.80
   2  13   9  818.70   25.89
   2  13   9  779.67   24.04
  -2  13 -10  118.80   10.21
  -2  13 -10  123.75    9.31
   2  13  10  127.03    8.96
   2  13  10  109.22    7.73
  -2  13 -11  274.19   15.88
  -2  13 -11  264.07   13.88
   2  13  11  295.34   13.26
  -2  13 -12  176.17   12.82
  -2  13 -12  141.32    9.73
   2  13  12  172.16    9.93
  -2  13 -13  391.52   16.74
   2  13  13  455.42   17.28
  -2  13 -14   14.50    3.23
   2  13  14   18.86    3.54
   2  13  14   20.59    3.81
   2  13  15  115.00    8.33
   2  13  15  110.25    8.48
   2  13  16   93.35    7.54
   2  13  16  103.32    8.08
   2  13  17  497.76   19.25
   2  13  17  471.20   18.58
   2  13  18   67.05    6.43
   2  13  18   67.18    6.49
   2  13  19   68.35    6.43
   2  13  19   69.88    6.56
   2  13  20   56.58    5.84
   2  13  20   63.82    6.13
   2  13  21  346.58   15.09
   2  13  21  373.33   15.41
   2  13  22   76.27    6.41
   2  13  23   44.15    4.86
   2  13  24   23.22    3.55
   2  13  25  210.82   10.28
  -2  14  21   37.23    4.40
  -2  14  20  344.59   14.33
  -2  14  19   18.81    3.53
  -2  14  15    1.75    1.87
  -2  14  14  109.02    7.93
  -2  14  13    8.33    2.74
  -2  14  13    7.73    2.60
  -2  14  12  466.76   18.78
  -2  14  12  444.84   17.27
  -2  14  11   13.31    3.12
  -2  14  11   13.43    3.59
  -2  14  10  217.89   12.75
  -2  14  10  196.19   10.55
  -2  14   9   33.72    5.19
  -2  14   9   33.57    4.28
   2  14  -8   16.56    4.79
  -2  14   8    9.46    3.41
  -2  14   8    8.11    2.44
   2  14  -7    9.99    4.38
  -2  14   7    7.56    3.29
  -2  14   7    6.94    2.32
   2  14  -6  133.87   11.09
  -2  14   6  148.30   10.83
  -2  14   6  142.28    8.42
   2  14  -5   68.73    7.94
  -2  14   5   68.15    7.46
  -2  14   5   70.96    5.83
  -2  14   4  697.96   25.79
  -2  14   4  694.35   21.10
   2  14  -3   21.29    4.72
  -2  14   3   20.32    4.60
  -2  14   3   20.56    3.20
   2  14  -3   18.93    3.15
   2  14  -2  320.06   17.03
  -2  14   2  326.69   12.73
   2  14  -2  316.40   13.09
   2  14  -1   14.18    4.22
   2  14  -1    9.38    2.43
  -2  14   1   12.13    2.39
   2  14   0   49.96    6.59
  -2  14   0   48.88    6.40
   2  14   0   40.31    4.54
  -2  14   0   45.88    4.22
   2  14   1   11.56    4.01
   2  14   1    8.31    2.51
  -2  14  -1   11.71    3.56
   2  14   2  314.98   16.95
  -2  14  -2  341.26   17.06
   2  14   2  340.99   14.23
   2  14   3   28.36    5.34
  -2  14  -3   16.49    4.17
   2  14   3   16.72    3.35
  -2  14  -4  684.01   25.35
   2  14   4  652.80   21.74
   2  14   4  613.51   19.40
  -2  14  -5   63.31    7.24
   2  14   5   62.61    5.95
   2  14   5   55.52    4.95
  -2  14  -6  147.43   10.83
   2  14   6  150.43    9.37
   2  14   6  138.04    8.03
  -2  14  -7    5.59    3.31
   2  14   7    9.11    2.80
  -2  14  -7    6.71    2.96
   2  14   7    5.41    2.10
  -2  14  -8   10.44    4.13
  -2  14  -8   11.47    3.44
   2  14   8    9.75    2.95
   2  14   8    4.61    2.12
  -2  14  -9   26.66    5.71
  -2  14  -9   19.90    4.21
   2  14   9   20.53    3.38
   2  14   9   24.10    3.91
  -2  14 -10  222.49   14.24
  -2  14 -10  202.16   12.36
   2  14  10  206.31   10.59
   2  14  10  214.22   11.63
  -2  14 -11   13.44    4.67
  -2  14 -11   11.69    3.43
   2  14  11   11.06    2.90
   2  14  11   17.23    3.43
  -2  14 -12  377.54   16.91
   2  14  12  421.99   16.26
   2  14  12  421.19   17.12
  -2  14 -13    6.01    2.46
   2  14  13    3.24    2.01
   2  14  14  103.83    7.60
   2  14  15    2.44    1.86
   2  14  15    1.26    1.52
   2  14  16   13.10    3.22
   2  14  16   11.52    2.91
   2  14  17   10.75    2.98
   2  14  17   12.22    3.05
   2  14  18  150.21    9.11
   2  14  18  162.24    9.81
   2  14  19   25.31    3.95
   2  14  19   24.25    3.94
   2  14  20  325.30   14.01
   2  14  20  353.11   14.55
   2  14  21   39.72    4.56
   2  14  21   37.85    4.58
   2  14  22   88.87    6.62
   2  14  22  101.25    6.96
   2  14  23    7.91    2.32
   2  14  23    6.34    2.19
  -2  15  17  271.56   12.33
  -2  15  16    6.48    2.38
  -2  15  15  118.05    7.88
  -2  15  14   22.79    3.63
  -2  15  13  220.51   11.13
  -2  15  12   11.67    2.97
  -2  15  11  186.76   11.27
  -2  15  11  171.89    9.78
  -2  15  10   39.70    5.44
  -2  15  10   28.92    4.08
  -2  15   9  496.24   20.74
  -2  15   9  478.28   17.51
  -2  15   8   13.27    3.91
  -2  15   8   11.44    2.88
   2  15  -7  224.61   15.03
  -2  15   7  238.17   14.10
  -2  15   7  222.14   10.99
   2  15  -6   11.50    4.90
  -2  15   6    9.08    3.63
  -2  15   6    7.09    2.28
   2  15  -5  454.07   21.81
  -2  15   5  478.06   17.05
   2  15  -4   42.11    6.86
  -2  15   4   36.21    6.00
  -2  15   4   33.83    4.10
  -2  15   3  655.37   25.15
  -2  15   3  614.08   19.50
   2  15  -2   17.42    5.13
  -2  15   2   14.41    2.76
   2  15  -2   13.33    2.83
   2  15  -1  354.89   18.62
  -2  15   1  374.57   13.65
   2  15  -1  378.43   14.50
   2  15   0    5.36    3.58
  -2  15   0    5.22    3.31
   2  15   0    5.81    2.21
  -2  15  -1  352.29   18.74
   2  15   1  351.48   18.43
  -2  15  -1  379.16   18.42
   2  15   1  359.78   14.46
   2  15   2   14.41    4.33
  -2  15  -2   15.40    4.35
   2  15   2   11.83    2.90
   2  15   3  551.07   24.00
  -2  15  -3  629.48   24.57
   2  15   3  589.57   20.06
   2  15   4   28.60    5.45
  -2  15  -4   31.52    5.44
   2  15   4   33.81    4.29
   2  15   5  438.94   20.48
  -2  15  -5  448.62   20.31
   2  15   5  454.23   17.21
   2  15   6    4.39    3.40
   2  15   6    7.84    2.75
  -2  15  -6    8.83    3.53
   2  15   6    7.35    2.16
  -2  15  -7  186.91   13.06
  -2  15  -7  208.37   13.01
   2  15   7  195.93    9.57
   2  15   7  208.26   11.04
  -2  15  -8   10.95    4.39
  -2  15  -8   15.26    4.10
   2  15   8   11.68    2.96
   2  15   8    8.92    2.32
  -2  15  -9  424.88   20.43
  -2  15  -9  404.56   18.54
   2  15   9  405.06   15.17
   2  15   9  429.91   16.78
  -2  15 -10   25.66    5.85
  -2  15 -10   25.28    4.68
   2  15  10   22.57    3.41
   2  15  10   23.11    3.79
  -2  15 -11  153.46   10.35
   2  15  11  172.73    9.31
   2  15  11  175.57   10.19
   2  15  12    9.76    2.82
   2  15  12   10.29    2.61
   2  15  13  242.05   12.20
   2  15  13  230.11   11.03
   2  15  14   21.63    3.45
   2  15  15  104.98    7.17
   2  15  16    6.46    2.13
   2  15  17  255.76   11.68
   2  15  17  262.55   12.32
   2  15  18   20.95    3.51
   2  15  18   19.77    3.38
   2  15  19   53.75    5.04
   2  15  19   55.39    5.23
   2  15  20    5.45    2.11
   2  15  20    4.23    1.96
   2  15  21  237.49   10.65
   2  15  21  260.35   11.23
  -2  16  17   12.97    2.63
  -2  16  16   18.00    3.13
  -2  16  15    4.02    1.93
  -2  16  14   60.16    5.35
  -2  16  13    3.07    1.91
  -2  16  12  493.68   17.30
  -2  16  11   19.98    3.38
  -2  16  10  141.01    8.31
  -2  16   9   11.46    2.77
  -2  16   9   13.75    4.00
  -2  16   8   20.63    4.49
  -2  16   8   15.97    3.01
  -2  16   7    9.57    3.73
  -2  16   7    6.76    2.26
   2  16  -6   77.07    9.10
  -2  16   6   86.94    8.43
  -2  16   6   89.33    6.42
   2  16  -5    4.63    4.13
  -2  16   5    4.69    3.13
  -2  16   5    2.42    1.76
   2  16  -4  419.80   20.89
  -2  16   4  418.49   15.20
   2  16  -3   16.17    5.10
  -2  16   3   17.26    4.60
  -2  16   3   15.08    2.79
   2  16  -2  116.06   10.51
  -2  16   1   12.24    4.45
   2  16  -1   10.64    4.65
  -2  16   0   18.73    5.01
   2  16   0   29.53    5.92
  -2  16   0   23.24    4.81
   2  16   0   21.71    3.26
   2  16   1    9.77    3.99
  -2  16  -1   12.02    4.32
   2  16   1    9.65    2.43
  -2  16  -1   12.20    3.94
  -2  16  -2  124.95   10.91
   2  16   2  112.45   10.25
  -2  16  -2  133.51   10.68
   2  16   2  132.62    7.91
   2  16   3    8.27    3.78
   2  16   3    9.54    2.55
  -2  16  -3   13.01    4.17
   2  16   4  380.91   18.99
  -2  16  -4  428.21   19.56
   2  16   4  395.79   15.26
   2  16   5   -0.24    2.97
  -2  16  -5    3.93    3.06
   2  16   5    5.10    1.94
   2  16   6   68.11    7.73
  -2  16  -6   80.60    8.06
   2  16   6   76.20    6.18
   2  16   7    4.86    3.09
   2  16   7    7.28    2.37
  -2  16  -7    9.26    3.67
   2  16   8    8.31    3.33
  -2  16  -8   14.92    4.10
   2  16   8   10.47    2.72
   2  16   9    7.80    3.25
  -2  16  -9   14.61    4.74
  -2  16  -9   11.31    3.60
   2  16   9   11.21    2.73
   2  16  10  125.45    9.76
   2  16  10  151.44    9.02
   2  16  11   16.75    3.26
   2  16  11   14.74    2.71
   2  16  12  485.52   17.52
   2  16  12  466.90   16.03
   2  16  13    3.29    1.93
   2  16  13    1.33    1.56
   2  16  14   57.78    5.01
   2  16  14   63.74    5.63
   2  16  15    3.31    2.01
   2  16  15    1.44    1.42
   2  16  16   17.94    3.00
   2  16  17   11.55    2.52
   2  16  18   55.46    4.94
   2  16  18   49.38    4.49
   2  16  19    6.61    2.12
  -2  17  15   29.95    3.48
  -2  17  14    1.75    1.61
  -2  17  13  159.22    8.22
  -2  17  12   50.67    4.58
  -2  17  11   33.56    3.86
  -2  17  10    7.58    2.18
  -2  17   9  228.39   10.28
  -2  17   8   51.17    4.66
  -2  17   7  104.06    6.66
  -2  17   5  225.32   13.34
  -2  17   4   78.15    8.59
   2  17  -4   72.23    8.66
  -2  17   4   84.09    8.02
  -2  17   3  207.79   13.96
   2  17  -3  207.63   14.07
  -2  17   3  223.71   13.37
  -2  17   2   13.00    4.31
   2  17  -2   16.25    5.21
   2  17  -1  172.45   12.80
  -2  17   1  190.77   13.37
  -2  17   0   53.83    7.43
   2  17   0   63.31    7.72
  -2  17   0   68.10    7.50
   2  17   1  159.17   11.94
  -2  17  -1  182.77   13.09
  -2  17  -1  204.77   12.85
   2  17   2   10.31    4.06
  -2  17  -2    8.71    3.95
  -2  17  -2   17.40    4.36
   2  17   3  195.30   12.87
  -2  17  -3  210.58   12.95
   2  17   3  202.20    9.61
   2  17   4   68.09    7.65
  -2  17  -4   73.74    7.51
   2  17   4   70.21    5.52
   2  17   5  182.94   12.26
  -2  17  -5  197.45   12.29
   2  17   5  195.38    9.59
   2  17   6    0.87    2.82
  -2  17  -6    7.77    3.23
   2  17   6    2.80    1.84
   2  17   7   83.26    8.08
   2  17   7  114.92    7.17
   2  17   8   36.91    5.53
  -2  17  -8   43.72    6.82
   2  17   8   46.49    4.64
   2  17   9  225.52   10.54
   2  17  10    6.02    2.06
   2  17  11   41.92    4.39
   2  17  12   50.16    4.77
   2  17  13  168.71    8.85
   2  17  14    2.50    1.59
   2  17  15   35.20    3.89
   2  17  16   26.89    3.36
  -2  18   9   11.33    3.49
  -2  18   8    2.47    2.60
  -2  18   7   -0.21    3.13
  -2  18   6   37.58    5.64
  -2  18   5    4.71    3.00
  -2  18   4  135.99   10.58
  -2  18   3    2.79    3.05
   2  18  -2  126.72   10.48
  -2  18   2  113.35    9.79
   2  18  -1    4.47    3.69
  -2  18   1    0.24    3.26
  -2  18   0   40.77    6.31
   2  18   0   42.55    6.53
  -2  18  -1    1.66    3.22
   2  18   1    6.71    3.66
   2  18   2  115.34    9.58
  -2  18  -2  122.22   10.22
  -2  18  -3    6.97    4.02
   2  18   3    6.48    3.61
   2  18   4  128.45    9.81
   2  18   5    9.37    3.50
   2  18   6   34.69    5.26
   2  18   7    0.63    1.31
   2  18   8    6.46    2.01
   2  18   9   16.93    2.71
   2  18  10   83.45    5.63
   2  18  11   15.84    2.60
  -2  19   6    2.31    2.32
  -2  19   5   90.69    7.76
  -2  19   4   77.26    7.31
  -2  19   3   45.08    5.81
  -2  19   2    2.96    2.75
  -2  19   1  103.14    8.66
  -2  19   0   45.89    6.13
  -2  19  -1  106.17    8.98
  -2  19  -2    5.91    3.41
  -2  19  -3   54.07    6.41
  -3   0   0   11.12    1.39
  -3   0   1   16.95    1.72
  -3   0  -1   26.48    2.10
  -3   0  -2  436.80   10.96
  -3   0  -3   30.39    2.03
  -3   0  -4  667.61   15.54
  -3   0  -5   28.25    2.06
   3   0   5   16.33    1.65
   3   0   6 3034.64   61.64
  -3   0  -6 3101.31   61.54
   3   0   7  121.76    5.23
  -3   0  -7  113.86    5.01
  -3   0  -8   95.33    4.70
   3   0   8   83.83    4.45
  -3   0  -9   32.84    2.82
   3   0   9   29.72    2.69
   3   0  10 5477.66  115.56
  -3   0 -10 6267.95  116.38
  -3   0 -11    0.54    0.71
   3   0  11    0.99    0.93
   3   0  12  444.13   14.63
   3   0  12  439.73   13.72
   3   0  13  192.70    8.04
   3   0  13  170.04    8.45
   3   0  14 3706.64   79.80
  -3   0  14 3654.82   81.91
   3   0  14 3872.51   77.90
   3   0  15   32.99    3.87
   3   0  15   29.63    3.20
   3   0  16   99.28    7.09
   3   0  16  112.55    6.35
   3   0 -17   16.44    3.51
   3   0  17   16.82    2.58
   3   0 -18 1742.98   47.80
   3   0  18 1630.29   40.03
  -3   0 -19   29.55    4.60
   3   0 -19   26.87    4.98
  -3   0 -20   93.01    8.30
   3   0 -20   94.63    9.44
   3   0 -21   51.23    7.26
  -3   0 -21   55.34    6.72
  -3   0 -22  452.11   20.71
   3   0 -22  436.83   22.42
   3   0 -23    7.05    3.64
  -3   0 -23    6.57    3.38
   3   0 -24 1226.13   43.11
  -3   0 -24 1223.83   39.82
  -3   0 -25    4.74    3.49
   3   0 -25    7.43    4.02
  -3   0 -26 1326.39   43.33
   3   0 -26 1387.72   48.03
   3   0 -27   83.34   10.56
  -3   0 -27   82.85    9.50
   3   0 -28  637.80   29.68
  -3   0 -28  635.24   27.17
  -3   0 -29  149.47   12.02
   3   0 -29  143.33   12.98
  -3   0 -30  888.61   32.42
   3   0 -30  935.12   35.54
  -3   0 -31   13.02    4.01
   3   0 -31   10.92    4.23
  -3   0 -32  280.08   15.48
   3   0 -32  255.51   15.99
   3   0 -33    5.16    2.99
  -3   0 -33    6.55    2.94
  -3  -1 -33  244.72   13.88
   3   1 -33  255.89   15.24
  -3  -1 -32   19.51    4.35
   3   1 -32   16.58    4.66
   3   1 -31   61.37    8.55
  -3  -1 -31   55.43    7.18
   3   1 -30   97.92   10.80
  -3  -1 -30   96.36    9.48
   3   1 -29  231.53   16.90
  -3  -1 -29  251.48   15.92
  -3  -1 -28  138.73   11.84
   3   1 -28  154.16   13.70
  -3  -1 -27 1022.01   36.13
   3   1 -27 1029.47   39.84
  -3  -1 -26   98.55   10.01
   3   1 -26  104.42   11.84
  -3  -1 -25  637.10   26.88
   3   1 -25  706.27   31.46
  -3  -1 -24   17.80    4.86
   3   1 -24   17.34    5.08
  -3  -1 -23  219.20   14.36
   3   1 -23  230.29   16.53
  -3  -1 -22  104.17    9.50
   3   1 -22  116.29   11.24
  -3  -1 -21  312.74   15.97
   3   1 -21  286.40   17.43
   3   1 -20   53.40    7.18
   3   1 -19  771.02   28.67
   3   1 -18   76.90    7.90
   3   1 -17  158.83   10.94
   3  -1  16   68.86    5.66
   3   1 -16   77.76    7.30
   3  -1  15  139.73    7.90
   3   1 -15  145.43    9.71
   3  -1  14  210.70    9.68
   3   1 -14  216.74   11.51
   3  -1  14  245.95    8.98
   3  -1  13 1043.08   27.04
   3   1 -13  973.40   29.32
   3  -1  13 1055.06   25.37
  -3  -1 -12   49.09    4.16
   3  -1  12   47.88    3.46
   3   1 -12   36.89    4.25
   3  -1  12   56.32    4.17
  -3   1  12   35.47    4.02
   3  -1  11 1783.68   38.53
  -3  -1 -11 1893.74   39.61
   3  -1  10   89.33    4.87
  -3  -1 -10   89.68    5.19
  -3  -1  -9 1077.74   24.45
   3  -1   9 1040.90   23.29
   3  -1   8    2.82    0.86
  -3  -1  -8    5.02    1.24
   3  -1   7   41.17    2.67
  -3  -1  -7   42.38    3.05
   3  -1   6  212.21    6.71
  -3  -1  -6  208.04    7.30
   3  -1   5 1192.37   27.11
  -3  -1  -5 1199.01   26.47
   3  -1   4  196.62    7.13
  -3  -1  -4  198.73    6.72
   3  -1   3 2410.73   50.02
  -3  -1  -3 2456.65   49.47
   3  -1   2    3.52    0.92
  -3  -1  -2    0.90    0.59
   3  -1   1  792.79   19.50
  -3  -1  -1  852.65   19.10
  -3  -1   0  114.10    4.66
  -3   1   0  102.94    4.50
  -3   1  -1  840.24   19.45
   3   1   2    2.24    0.76
  -3   1  -2    5.05    0.77
   3   1   3 2317.46   47.66
  -3   1  -3 2329.90   45.93
   3   1   4  219.44    7.45
  -3   1  -4  240.89    6.60
   3   1   5 1189.06   26.97
  -3   1  -5 1232.16   25.71
   3   1   6  249.89    8.29
  -3   1  -6  250.54    7.48
   3   1   6  241.40    8.26
   3   1   7   23.27    2.34
  -3   1  -7   29.63    2.27
  -3   1  -8    7.41    1.25
   3   1   8    3.95    1.14
   3   1   9 1072.43   24.88
  -3   1  -9 1122.51   24.21
   3   1  10   89.67    5.32
  -3   1 -10   81.54    4.55
   3   1  11 1741.33   39.03
  -3   1 -11 1637.24   37.22
  -3   1 -12   49.63    3.88
   3   1  12   60.12    4.34
   3   1  12   52.79    4.40
   3   1  12   63.62    3.92
   3   1  13  983.91   27.31
   3   1  13 1082.70   26.70
  -3   1 -13 1018.18   26.38
   3   1  13 1068.16   24.87
  -3   1 -14  252.37   10.53
   3   1  14  229.88   10.77
   3   1  14  262.82   10.33
   3   1  15  121.35    7.80
  -3   1 -15  144.57    8.01
   3   1  15  134.95    7.31
  -3   1 -16   84.72    6.42
   3   1  16   73.89    5.46
  -3   1 -17  171.90    9.80
   3   1  17  153.56    8.19
  -3   1 -18   77.88    6.83
   3   1  18   69.30    5.46
  -3   1 -19  754.31   24.74
   3   1  19  638.77   20.55
  -3   1 -20   64.75    6.82
   3   1  20   60.98    5.30
   3  -1 -21  265.87   16.17
  -3   1 -21  295.45   15.25
   3  -1 -22  144.33   12.42
  -3   1 -22  141.66   10.99
   3  -1 -23  212.75   15.56
  -3   1 -23  232.07   14.58
  -3   1 -24   30.27    6.09
   3  -1 -24   23.78    5.61
   3  -1 -25  631.10   28.95
  -3   1 -25  681.13   28.22
   3  -1 -26  118.94   12.04
  -3   1 -26  119.92   11.24
   3  -1 -27 1034.75   39.41
  -3   1 -27 1027.47   36.67
   3  -1 -28  100.48   11.23
  -3   1 -28   97.69    9.93
   3  -1 -29  222.15   16.20
  -3   1 -29  229.82   15.11
  -3   1 -30   95.79    9.65
   3  -1 -30   96.88   10.43
  -3   1 -31   57.31    7.31
   3  -1 -31   64.91    8.47
   3  -1 -32   16.11    4.30
  -3   1 -32   13.85    3.83
   3  -1 -33  232.89   14.24
  -3   1 -33  234.92   13.58
   3   2 -33    8.00    3.80
  -3  -2 -33    8.36    3.48
   3   2 -32  343.90   19.00
  -3  -2 -32  337.00   17.07
   3   2 -31   34.99    6.90
  -3  -2 -31   39.70    6.32
   3   2 -30  442.89   23.73
  -3  -2 -30  446.75   21.46
   3   2 -29   74.15    9.77
  -3  -2 -29   74.16    8.57
   3   2 -28  358.75   21.86
  -3  -2 -28  340.01   18.61
   3   2 -27  175.79   15.25
  -3  -2 -27  160.67   12.57
  -3  -2 -26 1007.08   35.73
   3   2 -26 1055.88   40.34
  -3  -2 -25   23.82    5.56
   3   2 -25   29.64    6.88
  -3  -2 -24  431.20   20.90
   3   2 -24  458.57   24.34
   3   2 -23  194.11   15.15
   3   2 -22 1855.53   56.09
   3   2 -21  204.16   14.97
   3   2 -20  148.82   12.16
   3   2 -19  120.30   10.47
   3   2 -18 2732.03   68.71
   3   2 -17  333.26   16.66
   3  -2  16  475.91   16.80
   3   2 -16  558.43   21.36
   3   2 -15  336.07   15.44
   3  -2  15  299.35   12.03
   3  -2  14 2426.90   55.58
  -3   2  14 2269.59   57.79
   3  -2  13  214.21    9.00
  -3   2  13  206.21   10.38
   3   2 -13  206.96   11.10
  -3   2  12   62.86    4.12
   3  -2  12   64.39    4.33
  -3  -2 -12   70.97    5.11
  -3   2  12   56.15    4.98
   3   2 -12   55.90    5.32
  -3   2  11  449.18   13.08
  -3  -2 -11  487.43   14.94
   3  -2  11  458.19   13.29
  -3   2  11  409.30   14.99
   3   2 -11  402.76   15.57
  -3   2  10 2246.34   47.71
  -3  -2 -10 2475.92   50.16
   3  -2  10 2418.33   47.92
  -3   2  10 2188.49   50.12
  -3   2   9  990.78   23.48
   3  -2   9 1033.16   23.05
  -3   2   8    8.15    1.43
   3  -2   8   12.04    1.44
  -3   2   7  459.58   12.99
   3  -2   7  485.12   12.06
  -3   2   6 4198.26   84.67
  -3  -2  -6 4459.58   85.75
   3  -2   6 4246.92   82.97
  -3   2   5  400.92   11.43
   3  -2   5  439.15   12.46
  -3  -2  -5  435.79   12.16
   3  -2   4  543.79   14.41
  -3  -2  -4  519.49   14.06
   3  -2   3 1916.07   40.66
   3  -2   2 3038.67   63.85
  -3  -2  -2 3147.42   62.71
   3  -2   1  314.34    9.88
  -3  -2  -1  339.90    9.29
  -3  -2   0   22.59    1.94
  -3   2  -2 3263.98   62.63
   3   2   3 1862.49   41.04
  -3   2  -3 2045.19   38.93
   3   2   4  516.25   13.69
  -3   2  -4  545.00   11.93
   3   2   5  428.76   12.16
  -3   2  -5  479.96   10.98
   3   2   6 4329.52   84.53
  -3   2  -6 4229.34   82.72
   3   2   6 4230.29   85.37
   3   2   7  507.63   14.87
  -3   2  -7  537.33   13.11
   3   2   8   31.64    3.01
   3   2   9 1009.36   24.49
  -3   2  -9  903.02   22.35
   3   2  10 2318.13   48.93
  -3   2 -10 2103.78   46.54
   3   2  11  469.16   15.24
  -3   2 -11  447.70   13.65
   3   2  12   76.59    5.56
   3   2  12   92.37    5.70
  -3   2 -12   80.15    5.04
   3   2  12   83.39    4.91
  -3   2 -13  209.97    9.09
   3   2  13  193.71    9.64
   3   2  13  221.36    9.61
   3   2  13  228.39    8.80
   3   2  14 2601.87   57.63
  -3   2 -14 2704.63   57.69
   3   2  14 2706.49   55.88
  -3   2 -15  351.96   13.30
   3   2  15  330.85   11.61
   3   2  15  335.27   12.89
   3   2  16  503.97   17.25
   3   2  16  513.54   15.73
  -3   2 -17  344.48   14.27
   3   2  17  327.92   13.31
  -3   2 -18 2760.04   60.87
   3   2  18 2395.26   57.47
  -3   2 -19  120.66    8.71
   3   2  19   96.96    6.99
  -3   2 -20  127.16    9.42
   3   2  20   97.89    7.09
  -3   2 -21  186.41   12.21
   3   2  21  155.94    9.31
  -3   2 -22 2009.49   50.16
   3   2  22 1474.02   41.08
   3  -2 -23  152.57   12.63
  -3   2 -23  173.68   12.55
   3  -2 -24  438.07   22.71
  -3   2 -24  449.29   21.22
   3  -2 -25   31.66    6.84
  -3   2 -25   29.94    5.94
   3  -2 -26  983.99   37.65
  -3   2 -26 1019.36   35.92
   3  -2 -27  185.24   14.79
  -3   2 -27  191.20   14.13
  -3   2 -28  346.90   19.19
   3  -2 -28  316.96   19.61
  -3   2 -29   73.94    8.62
   3  -2 -29   67.55    8.98
  -3   2 -30  448.29   21.46
   3  -2 -30  448.83   23.01
  -3   2 -31   19.42    4.80
   3  -2 -31   22.45    5.65
  -3   2 -32  337.58   17.19
   3  -2 -32  336.03   17.97
   3  -2 -33   10.70    3.77
  -3   2 -33    6.92    3.23
  -3  -3 -33  246.25   13.69
  -3  -3 -32   19.73    4.74
   3   3 -32   24.05    5.63
   3   3 -31  174.18   13.99
  -3  -3 -31  196.70   13.30
   3   3 -30   98.50   10.95
  -3  -3 -30   85.41    9.07
   3   3 -29  218.21   16.85
  -3  -3 -29  204.64   13.94
   3   3 -28   50.45    8.71
  -3  -3 -28   44.90    6.90
   3   3 -27  553.17   27.92
  -3  -3 -27  542.68   24.49
  -3  -3 -26  169.35   12.96
   3   3 -26  162.06   14.74
   3   3 -25  172.02   14.98
  -3  -3 -25  127.48   11.15
   3   3 -24   32.16    6.95
   3   3 -23  350.69   21.20
   3   3 -22  143.71   12.89
   3   3 -21  647.40   27.94
   3   3 -20   64.75    8.06
   3   3 -19 1233.86   39.81
   3   3 -18  144.60   11.19
   3   3 -17  179.44   12.11
   3   3 -16  224.34   13.27
  -3   3  15  376.84   12.72
   3   3 -15  410.86   17.79
  -3   3  14  245.72    9.64
   3  -3  14  236.29    9.67
   3   3 -14  267.65   13.59
  -3   3  13 1213.29   29.21
   3   3 -13 1278.99   35.22
   3  -3  13 1211.35   29.18
  -3  -3 -13 1308.20   32.31
  -3   3  12  156.20    7.03
   3   3 -12  162.65    9.68
   3  -3  12  180.67    7.30
  -3   3  12  140.63    8.21
  -3  -3 -12  165.16    8.45
  -3  -3 -11 2996.53   61.24
   3  -3  11 2813.89   57.49
  -3   3  11 2561.27   60.46
   3   3 -11 2586.23   62.68
  -3   3  11 2907.63   59.04
  -3   3  11 2768.36   58.15
   3   3 -10   59.44    5.30
   3  -3  10   72.34    3.86
  -3  -3 -10   73.23    5.06
  -3   3  10   65.02    4.90
  -3   3  10   73.68    4.30
  -3   3  10   69.27    4.44
   3  -3   9   81.92    3.76
  -3   3   9   65.54    4.75
  -3  -3  -9   76.33    4.95
   3   3  -9   59.04    5.05
  -3   3   9   67.87    4.34
  -3   3   9   68.56    4.06
   3  -3   8   76.39    3.36
  -3   3   8   72.13    4.75
  -3  -3  -8   87.59    5.16
   3   3  -8   61.18    4.93
  -3   3   8   76.73    4.20
   3  -3   7   68.54    2.88
  -3   3   7   65.41    4.31
  -3   3   7   58.29    3.57
  -3   3   6   73.68    4.33
  -3   3   6   73.80    3.96
   3  -3   5 1795.24   38.98
  -3   3   5 1766.65   38.19
   3  -3   4  276.90    9.39
   3  -3   3 3340.63   69.75
  -3   3   3 3541.02   68.98
   3  -3   2   23.84    2.33
  -3   3   2   24.94    2.12
   3  -3   1   87.43    4.62
  -3   3   1   94.42    4.25
  -3  -3  -1   89.88    3.93
  -3  -3  -1   95.82    4.87
  -3  -3   0   48.35    2.85
  -3   3   0   51.71    3.05
   3   3   4  223.45    7.36
   3   3   5 1827.29   38.56
   3   3   6   82.92    4.19
   3   3   6   76.55    4.66
   3   3   7   74.61    4.08
   3   3   7   68.18    4.57
   3   3   8   78.53    4.36
   3   3   8   80.11    5.18
  -3   3  -8   72.41    4.13
   3   3   9   32.23    3.41
  -3   3  -9   36.73    3.01
   3   3  10   77.55    5.42
  -3   3 -10   75.34    4.62
   3   3  11 2654.11   58.99
  -3   3 -11 2683.13   57.04
   3   3  12  185.86    9.27
   3   3  12  181.03    8.74
  -3   3 -12  178.05    8.22
   3   3  12  200.38    8.46
   3   3  13 1233.95   31.12
  -3   3 -13 1268.30   30.69
   3   3  13 1203.54   29.75
   3   3  14  253.29   11.01
  -3   3 -14  259.20   10.99
   3   3  14  256.83   10.26
  -3   3 -15  389.24   14.55
   3   3  15  378.99   14.38
   3   3  15  379.22   13.25
  -3   3 -16  204.48   10.27
   3   3  16  201.12    9.13
   3   3  16  198.73   10.02
  -3   3 -17  176.78    9.85
   3   3  17  165.94    8.27
   3   3  17  159.35    9.12
  -3   3 -18  142.29    9.15
   3   3  18  129.38    7.29
   3   3  18  124.00    8.09
  -3   3 -19 1128.62   32.01
   3   3  19  962.76   29.06
  -3   3 -20   82.40    7.58
   3   3  20   82.46    6.76
  -3   3 -21  675.61   24.48
   3   3  21  573.27   20.94
  -3   3 -22  112.51    9.71
   3   3  22  101.83    7.85
  -3   3 -23  258.58   15.07
   3   3  23  221.77   12.12
  -3   3 -24   21.82    5.10
   3   3  24   16.30    3.60
  -3   3 -25  161.92   12.53
   3  -3 -25  136.77   12.40
   3   3  25  127.66    8.97
  -3   3 -26  188.83   14.00
   3  -3 -26  176.52   14.49
   3   3  26  139.43    9.53
  -3   3 -27  574.57   25.68
   3  -3 -27  576.23   26.81
   3  -3 -28   41.66    7.34
  -3   3 -28   39.30    6.93
  -3   3 -29  203.27   14.40
   3  -3 -29  207.15   15.02
  -3   3 -30   89.08    9.48
   3  -3 -30   93.98   10.19
  -3   3 -31  202.38   13.59
   3  -3 -31  208.95   14.46
   3  -3 -32   18.67    4.67
  -3   3 -32   18.34    4.67
  -3   3 -33  244.43   13.46
   3   4 -32  174.67   12.88
  -3  -4 -32  198.61   12.75
   3   4 -31  310.87   18.51
  -3  -4 -31  343.97   17.65
   3   4 -30  297.66   18.82
  -3  -4 -30  265.84   15.68
   3   4 -29   51.78    8.72
  -3  -4 -29   57.48    7.70
   3   4 -28  199.93   16.05
  -3  -4 -28  177.84   13.34
   3   4 -27  579.55   28.78
  -3  -4 -27  568.63   24.94
   3   4 -26  450.94   25.06
  -3  -4 -26  398.08   20.21
   3   4 -25    7.50    4.83
   3   4 -24  441.12   24.25
   3   4 -23  880.18   35.40
   3   4 -22  596.32   27.58
   3   4 -21  419.01   22.11
   3   4 -20   22.64    5.29
   3   4 -19  478.88   22.65
  -3   4  18  574.06   18.60
   3   4 -18  681.65   26.54
  -3   4  17  224.01   10.09
   3   4 -17  253.58   14.92
  -3   4  16   53.55    4.51
   3   4 -16   51.64    6.38
  -3   4  15 1086.79   27.77
   3   4 -15 1165.42   35.12
  -3   4  15 1072.12   28.22
   3   4 -14 1647.11   44.49
  -3   4  14 1569.06   36.93
  -3   4  14 1609.45   37.92
   3   4 -13  171.12   10.84
  -3   4  13  164.68    9.35
   3  -4  13  180.03    7.52
  -3   4  13  171.16    7.73
  -3   4  12   47.58    3.43
   3   4 -12   38.76    4.98
  -3  -4 -12   50.07    4.65
   3  -4  12   43.67    3.25
  -3   4  12   48.77    4.06
  -3   4  12   46.31    3.74
  -3   4  11 1148.64   26.74
   3   4 -11 1035.85   31.49
  -3   4  11 1066.39   29.27
   3  -4  11 1152.13   25.75
  -3   4  11 1124.12   27.11
  -3   4  11 1205.86   28.36
  -3   4  10 1360.39   30.39
   3   4 -10 1147.17   33.96
  -3   4  10 1238.62   32.08
   3  -4  10 1368.75   28.36
  -3   4  10 1261.60   30.12
  -3   4  10 1373.53   31.34
  -3   4   9  238.32    8.65
   3  -4   9  233.05    6.72
  -3   4   9  225.52    9.46
  -3   4   9  216.51    8.30
  -3   4   8  441.81   12.86
   3  -4   8  415.55    9.67
   3   4  -8  359.90   14.23
  -3   4   8  395.11   13.03
  -3   4   8  388.45   12.01
   3   4  -7  715.59   22.09
  -3   4   7  774.67   20.42
  -3   4   7  736.64   19.42
   3  -4   6  421.22   12.98
  -3   4   6  387.15   11.96
  -3  -4  -6  405.15   13.08
  -3   4   6  423.13   12.33
  -3   4   5   30.10    3.00
   3  -4   5   32.04    2.95
  -3   4   5   32.32    2.58
  -3   4   5   26.64    2.39
   3  -4   4  207.18    8.08
  -3   4   4  218.97    7.39
  -3   4   4  198.09    6.91
  -3  -4  -4  220.89    8.61
  -3   4   4  196.61    7.22
   3  -4   3 2658.66   56.86
  -3   4   3 2814.14   55.52
  -3  -4  -3 2787.87   57.51
  -3   4   3 2589.43   54.28
  -3   4   3 2638.27   55.33
  -3   4   2  564.13   15.96
  -3   4   2  537.36   12.69
  -3  -4  -2  578.56   15.80
   3  -4   2  533.77   15.06
  -3   4   2  533.06   13.81
  -3  -4  -1 1028.22   24.38
  -3   4   1  990.40   20.24
  -3   4   1  979.74   22.19
  -3   4   0  107.82    5.65
  -3   4   0  100.58    2.75
  -3  -4   0   95.39    4.16
  -3   4  -1 1079.68   26.28
  -3   4  -2  477.79   14.27
  -3   4  -3 2969.39   61.98
  -3   4  -4  198.46    8.13
  -3   4  -5   58.19    4.08
   3   4   5   50.73    3.10
  -3   4  -6  429.41   13.24
  -3   4  -6  395.50   11.84
   3   4   6  407.36   11.54
  -3   4  -7  857.37   21.50
  -3   4  -7  809.85   20.65
   3   4   7  810.92   22.23
  -3   4  -7  830.51   20.77
   3   4   7  849.79   20.20
  -3   4  -8  371.42   11.88
  -3   4  -8  360.45   11.73
   3   4   8  374.55   13.33
  -3   4  -8  372.72   11.82
   3   4   8  404.93   11.67
  -3   4  -9  223.74    8.71
   3   4   9  260.88   10.81
  -3   4  -9  251.53    9.31
   3   4   9  257.39    8.98
  -3   4  -9  258.30    9.48
  -3   4 -10 1147.28   27.83
  -3   4 -10 1217.97   29.02
   3   4  10 1249.45   31.46
  -3   4 -11 1088.28   26.86
   3   4  11 1122.57   29.45
  -3   4 -12   41.19    3.87
   3   4  12   45.46    4.66
   3   4  12   42.75    4.19
   3   4  12   45.02    4.03
   3   4  13  206.17    9.89
  -3   4 -13  199.57    9.28
   3   4  13  209.59    9.39
  -3   4 -14 1617.59   38.86
   3   4  14 1542.19   39.11
   3   4  14 1620.40   38.37
  -3   4 -15 1069.73   29.04
   3   4  15 1073.34   28.20
   3   4  15 1042.61   29.24
  -3   4 -16   50.93    4.93
   3   4  16   51.86    4.68
   3   4  16   57.63    5.35
  -3   4 -17  242.43   11.73
   3   4  17  223.83   10.44
   3   4  17  221.27   11.31
  -3   4 -18  660.10   22.00
   3   4  18  609.84   21.04
   3   4  18  602.34   19.59
   3   4  19  407.90   16.66
   3   4  19  407.84   15.18
  -3   4 -20   35.85    5.04
   3   4  20   32.86    3.95
   3   4  20   35.33    4.69
  -3   4 -21  311.52   15.66
   3   4  21  270.04   13.50
  -3   4 -22  591.70   23.18
   3   4  22  471.60   19.32
  -3   4 -23  903.23   30.53
   3   4  23  709.37   25.39
  -3   4 -24  436.69   20.39
   3   4  24  327.39   15.90
  -3   4 -25    3.30    3.31
   3   4  25    5.43    2.55
  -3   4 -26  399.57   20.42
   3  -4 -26  383.64   20.74
  -3   4 -27  583.65   25.29
   3  -4 -27  548.54   25.55
  -3   4 -28  160.11   12.94
   3  -4 -28  163.97   13.30
  -3   4 -29   73.18    8.67
   3  -4 -29   67.01    8.57
  -3   4 -30  315.04   17.51
   3  -4 -30  281.35   17.15
  -3   4 -31  305.94   16.72
   3  -4 -31  337.84   18.35
  -3   4 -32  175.42   11.66
   3  -4 -32  173.45   12.24
  -3  -5 -32   13.04    4.14
   3   5 -32   10.80    4.09
   3   5 -31  145.35   12.22
  -3  -5 -31  169.01   11.83
   3   5 -30   52.99    8.12
  -3  -5 -30   52.82    7.03
   3   5 -29  358.07   21.14
  -3  -5 -29  374.06   19.21
   3   5 -28   36.93    7.44
  -3  -5 -28   37.72    6.42
   3   5 -27  503.26   26.34
  -3  -5 -27  459.30   21.91
   3   5 -26  129.61   13.15
   3   5 -25  383.77   22.81
   3   5 -24   52.60    8.49
   3   5 -23  255.89   17.95
   3   5 -22  184.34   14.91
   3   5 -21  437.63   23.13
   3   5 -20   45.07    7.16
  -3   5  19  590.66   19.58
   3   5 -19  704.31   28.39
  -3   5  18   54.21    4.90
   3   5 -18   62.43    7.76
  -3   5  17  498.64   16.89
   3   5 -17  584.56   24.42
   3   5 -16   75.09    8.00
  -3   5  16   69.74    5.49
  -3   5  16   62.99    5.05
   3   5 -15  156.91   11.29
  -3   5  15  141.41    7.78
  -3   5  15  131.34    7.17
   3   5 -14  106.22    9.02
  -3   5  14  101.38    6.45
  -3   5  14   93.73    5.82
  -3   5  13  367.82   11.81
  -3   5  13  366.40   12.81
  -3   5  13  394.58   13.68
  -3   5  12   42.83    3.57
   3   5 -12   44.21    5.53
  -3   5  12   41.39    4.34
  -3   5  12   47.27    4.19
  -3   5  12   43.27    3.78
   3   5 -11 1933.25   50.41
   3  -5  11 2015.99   41.39
  -3   5  11 1907.11   46.41
  -3   5  11 1971.53   44.41
  -3   5  10  162.85    7.37
  -3  -5 -10  164.53    8.65
   3  -5  10  158.44    5.02
   3   5 -10  147.33    9.50
  -3   5  10  145.72    7.70
  -3   5  10  155.46    7.08
  -3   5   9  877.02   21.37
  -3   5   9  796.84   21.49
   3   5  -9  733.06   23.94
  -3  -5  -9  867.42   23.08
   3  -5   9  727.35   16.04
  -3   5   9  879.02   21.56
  -3   5   9  812.37   20.49
  -3   5   8  144.13    6.89
  -3   5   8  128.85    6.57
   3   5  -8  125.54    8.05
  -3  -5  -8  140.70    7.58
  -3   5   8  152.57    6.99
  -3   5   7  477.95   14.34
  -3  -5  -7  482.71   15.30
  -3   5   7  479.62   13.87
  -3   5   6  166.65    7.42
  -3   5   6  182.55    6.79
   3  -5   6  160.05    7.37
   3   5  -6  137.32    7.80
  -3  -5  -6  168.00    7.96
  -3   5   6  144.66    6.38
  -3   5   6  151.73    6.54
  -3   5   6  170.35    7.07
  -3   5   5  894.85   21.97
   3  -5   5  836.80   21.66
   3   5  -5  777.59   21.88
  -3   5   5  893.28   20.15
  -3  -5  -5  828.99   22.20
  -3   5   5  806.50   19.82
  -3   5   5  817.56   20.28
  -3   5   5  872.54   20.82
  -3   5   4  117.57    6.10
   3  -5   4  112.64    5.91
   3   5  -4  117.99    6.17
  -3   5   4  122.67    5.25
  -3  -5  -4  119.11    6.40
  -3   5   4  118.77    4.94
  -3   5   4  109.94    5.21
  -3   5   3  858.43   21.73
   3  -5   3  809.13   21.21
  -3   5   3  856.59   19.59
   3   5  -3  781.05   20.70
  -3  -5  -3  827.76   21.87
  -3   5   3  814.91   18.59
  -3   5   3  802.95   19.75
  -3   5   2 2525.24   53.71
   3  -5   2 2476.54   53.07
   3   5  -2 2457.85   52.40
  -3   5   2 2510.86   51.12
  -3  -5  -2 2531.69   54.06
  -3   5   2 2509.66   49.47
  -3   5   2 2487.58   51.44
  -3  -5  -1  538.04   13.12
  -3  -5  -1  580.59   16.76
  -3   5   1  559.29   12.00
  -3   5   1  550.87   14.26
  -3   5   0   14.94    2.21
  -3  -5   0   10.73    1.90
  -3  -5   0   14.60    1.45
  -3   5  -1  607.08   17.16
  -3  -5   1  595.67   14.65
  -3   5  -2 2469.44   53.02
  -3   5  -3  919.39   23.41
  -3   5  -4   87.79    5.23
  -3   5  -4   99.37    5.08
  -3   5  -5  807.51   21.53
  -3   5  -5  862.24   21.25
  -3   5  -6   80.94    5.03
  -3   5  -6   93.99    5.07
  -3   5  -7  494.17   14.63
   3   5   7  526.54   13.66
  -3   5  -7  527.29   15.22
  -3   5  -8  139.48    7.01
  -3   5  -8  156.93    7.22
   3   5   8  155.97    8.21
  -3   5  -8  160.92    7.40
   3   5   8  169.83    6.64
  -3   5  -9  731.03   20.67
  -3   5  -9  785.19   21.36
   3   5   9  785.59   23.26
   3   5   9  852.14   20.24
  -3   5  -9  800.43   21.43
  -3   5 -10  160.16    7.50
   3   5  10  189.80    7.66
  -3   5 -10  171.34    8.18
   3   5  10  178.87    9.45
  -3   5 -11 1809.56   43.12
   3   5  11 2125.53   43.82
   3   5  11 1962.25   47.73
  -3   5 -11 2066.26   45.50
   3   5  11 1991.09   46.29
   3   5  11 1927.25   45.31
  -3   5 -12   45.57    3.68
   3   5  12   54.17    4.14
  -3   5 -12   55.05    4.66
   3   5  12   55.01    4.95
   3   5  12   49.27    4.50
  -3   5 -13  402.34   14.53
   3   5  13  379.22   14.75
   3   5  13  386.53   14.25
  -3   5 -14  104.66    6.91
   3   5  14   95.33    6.91
   3   5  14   97.17    6.59
  -3   5 -15  109.00    7.26
   3   5  15  100.57    6.78
   3   5  15   97.87    7.17
  -3   5 -16   58.74    5.65
   3   5  16   62.63    5.43
   3   5  16   66.69    5.98
  -3   5 -17  554.78   19.57
   3   5  17  520.82   18.22
   3   5  17  522.00   19.10
  -3   5 -18   54.09    5.77
   3   5  18   63.97    5.62
   3   5  18   50.46    5.47
   3   5  19  568.37   20.94
   3   5  19  573.72   19.70
  -3   5 -20   43.66    5.79
   3   5  20   45.16    4.82
   3   5  20   41.26    5.12
   3   5  21  380.44   15.46
   3   5  21  361.38   16.52
  -3   5 -22  175.24   11.96
   3   5  22  161.11   10.60
  -3   5 -23  201.10   13.30
   3   5  23  157.89   10.67
  -3   5 -24   38.17    6.28
   3   5  24   36.11    5.25
  -3   5 -25  365.80   19.03
   3   5  25  295.12   15.08
  -3   5 -26  127.64   11.25
   3   5  26  102.90    8.59
  -3   5 -27  477.53   22.61
   3  -5 -27  437.18   22.17
   3   5  27  407.41   18.12
  -3   5 -28   38.40    6.75
   3  -5 -28   32.20    6.35
   3   5  28   24.82    4.53
  -3   5 -29  339.80   18.43
   3  -5 -29  345.34   19.07
  -3   5 -30   32.79    5.85
   3  -5 -30   33.17    6.13
  -3   5 -31  153.63   11.19
   3  -5 -31  153.70   11.74
   3  -5 -32   13.38    4.08
  -3   5 -32   10.84    3.66
   3   6 -31  558.24   24.74
  -3  -6 -31  600.78   23.63
  -3  -6 -30   29.04    5.26
   3   6 -30   22.15    5.63
   3   6 -29  110.81   11.28
  -3  -6 -29  119.49   10.50
  -3  -6 -28   55.71    7.49
   3   6 -28   52.08    8.21
   3   6 -27  571.91   27.92
   3   6 -26  141.41   13.44
   3   6 -25   46.82    8.14
   3   6 -24   88.50   10.61
   3   6 -23 1236.12   44.38
   3   6 -22  144.44   13.33
   3   6 -21  417.35   22.84
  -3   6  20   23.12    3.67
   3   6 -20   41.68    7.06
  -3   6  19  544.58   18.88
   3   6 -19  685.06   28.47
  -3   6  18  343.73   13.80
   3   6 -18  433.17   21.56
  -3   6  17  137.86    7.96
  -3   6  17  154.75    8.80
   3   6 -16   70.76    8.19
  -3   6  16   54.26    4.79
  -3   6  16   62.10    5.38
  -3   6  15 1566.50   38.36
  -3   6  15 1469.71   36.93
   3   6 -14  225.16   13.90
  -3   6  14  199.86    9.28
  -3   6  14  223.60   10.22
  -3   6  13  879.53   23.03
   3   6 -13  908.96   30.68
  -3   6  13  905.14   24.07
  -3   6  12   95.28    5.63
   3   6 -12   85.32    7.89
  -3   6  12   82.61    6.26
  -3   6  12   86.69    5.59
   3   6 -11 2006.40   53.28
  -3   6  11 1987.79   48.61
  -3   6  11 2117.63   47.06
  -3   6  10   83.32    5.41
  -3   6  10   73.62    5.35
   3   6 -10   72.48    6.77
  -3   6  10   79.06    5.08
  -3   6  10   77.68    5.35
  -3   6   9 2118.12   45.19
   3   6  -9 1690.55   47.50
  -3   6   9 1838.38   44.03
  -3  -6  -9 2018.35   46.89
  -3   6   9 2116.89   44.83
  -3   6   8  162.22    7.86
   3  -6   8  153.75    8.06
  -3   6   8  143.81    7.06
  -3  -6  -8  158.97    8.58
  -3   6   8  165.67    7.56
  -3   6   7 1994.96   44.24
  -3   6   7 2120.83   41.96
   3  -6   7 1874.60   43.94
   3   6  -7 1654.39   45.86
  -3   6   7 1839.03   42.24
  -3  -6  -7 1942.40   45.40
  -3   6   7 2055.54   43.31
  -3   6   7 1885.38   42.36
  -3   6   6  958.06   24.85
  -3   6   6 1041.93   23.07
  -3  -6  -6 1013.61   24.38
   3   6  -6  899.80   25.35
   3  -6   6  932.24   24.66
  -3   6   6  916.65   22.91
  -3  -6  -6  945.03   25.86
   3   6  -6  795.86   25.71
  -3   6   6  999.36   23.94
  -3   6   6  913.68   23.28
  -3   6   5 1496.03   34.58
  -3   6   5 1490.87   31.67
   3   6  -5 1368.67   34.24
   3  -6   5 1356.46   33.50
  -3  -6  -5 1411.82   35.11
  -3   6   5 1417.47   31.56
  -3   6   5 1457.89   32.67
  -3   6   5 1417.00   32.43
  -3   6   4   27.38    3.08
   3  -6   4   25.47    2.90
   3   6  -4   23.64    2.89
  -3   6   4   25.91    2.32
  -3  -6  -4   26.82    3.18
  -3   6   4   33.35    2.47
  -3   6   4   27.62    2.65
  -3   6   4   30.06    2.77
  -3   6   3 3113.27   65.43
   3  -6   3 3006.22   64.61
   3   6  -3 2927.65   64.34
  -3   6   3 3072.32   60.92
  -3  -6  -3 3151.38   66.11
  -3   6   3 3132.40   62.95
   3   6  -2  424.75   13.27
   3  -6   2  409.79   13.34
  -3   6   2  410.85   10.03
  -3  -6  -2  427.38   14.35
  -3   6   2  430.43   12.25
   3   6  -1 2806.63   58.78
  -3  -6  -1 2771.66   60.52
  -3   6   1 2804.25   57.36
  -3   6   0  197.18    8.54
   3   6   0  185.28    7.54
  -3  -6   0  168.30    5.56
  -3  -6   0  187.34    8.69
  -3   6   0  183.14    6.75
  -3   6  -1 2773.24   58.99
  -3  -6   1 2668.96   54.59
  -3  -6   1 2808.69   59.67
  -3   6  -1 2752.48   55.69
  -3   6  -2  380.56   12.99
  -3   6  -3 2997.47   63.91
  -3   6  -4   19.47    2.63
  -3   6  -5 1427.13   34.69
  -3   6  -5 1492.83   34.08
  -3   6  -6  938.19   25.24
  -3   6  -6  966.81   23.17
  -3   6  -7 1863.41   43.84
  -3   6  -7 1943.20   43.52
  -3   6  -7 1958.33   44.14
  -3   6  -7 1990.22   42.30
  -3   6  -8  177.87    8.43
  -3   6  -8  187.63    8.41
  -3   6  -8  190.17    8.69
  -3   6  -9 1818.86   43.91
  -3   6  -9 1899.18   44.23
  -3   6  -9 1921.12   44.84
  -3   6 -10   44.90    3.99
   3   6  10   58.18    3.80
  -3   6 -10   50.47    4.54
  -3   6 -10   53.74    4.59
   3   6  10   45.87    4.53
  -3   6 -11 1937.66   46.70
   3   6  11 2300.70   46.16
  -3   6 -11 2153.59   49.24
   3   6  11 2077.45   49.50
  -3   6 -11 2164.33   48.78
   3   6  11 2036.17   48.79
  -3   6 -12  104.88    6.08
   3   6  12  129.76    6.36
   3   6  12  139.78    8.22
  -3   6 -12  139.50    7.90
   3   6  12  115.49    7.31
  -3   6 -13  898.01   25.47
   3   6  13  830.83   25.27
   3   6  13  842.51   24.83
  -3   6 -14  226.52   10.94
   3   6  14  193.60   10.03
   3   6  14  204.02   10.73
   3   6  15 1510.75   40.27
   3   6  15 1510.75   39.05
  -3   6 -16   61.03    5.90
   3   6  16   61.71    5.64
   3   6  16   63.28    6.06
  -3   6 -17  182.97   10.63
   3   6  17  171.20    9.72
   3   6  17  159.78    9.90
  -3   6 -18  394.45   16.83
   3   6  18  365.41   15.21
   3   6  18  362.48   15.93
  -3   6 -19  649.00   23.27
   3   6  19  621.26   21.26
   3   6  19  594.79   22.01
  -3   6 -20   22.35    4.37
   3   6  20   26.56    4.43
   3   6  20   33.37    4.38
   3   6  21  305.89   15.11
   3   6  21  319.62   14.44
  -3   6 -22  121.48    9.99
   3   6  22  105.85    8.66
   3   6  22  111.51    8.07
   3   6  23  975.69   31.69
   3   6  23  985.35   29.73
  -3   6 -24   78.54    8.53
   3   6  24   62.70    6.91
  -3   6 -25   36.09    6.08
   3   6  25   30.57    4.96
  -3   6 -26  130.12   11.04
   3   6  26  109.53    8.91
  -3   6 -27  632.59   25.75
   3   6  27  509.44   21.04
  -3   6 -28   46.84    6.99
   3  -6 -28   49.90    7.36
   3   6  28   38.12    5.37
   3  -6 -29  106.28   10.38
  -3   6 -29  109.99    9.91
   3   6  29   92.35    7.84
   3  -6 -30   21.33    4.71
  -3   6 -30   24.06    4.88
  -3   6 -31  564.50   22.68
   3  -6 -31  598.83   24.05
  -3  -7 -31  215.62   12.99
  -3  -7 -30   13.11    4.47
   3   7 -30   14.11    4.77
   3   7 -29  355.53   20.20
  -3  -7 -29  364.79   18.61
   3   7 -28   39.30    7.32
   3   7 -27  304.84   19.46
   3   7 -26  147.44   13.47
   3   7 -25  245.40   17.53
   3   7 -24  126.42   12.56
   3   7 -23  371.82   21.74
   3   7 -22   86.87   10.29
  -3   7  21   73.40    6.30
   3   7 -21   87.20   10.17
  -3   7  20   21.75    3.53
   3   7 -20   33.58    6.40
  -3   7  19  585.54   20.21
   3   7 -19  759.19   30.45
  -3   7  18    5.82    2.14
   3   7 -18   10.85    3.96
  -3   7  17  473.63   17.39
  -3   7  17  458.65   16.52
   3   7 -16   78.09    8.68
  -3   7  16   75.50    6.08
  -3   7  16   72.45    5.70
   3   7 -15  324.74   17.71
  -3   7  15  308.10   12.48
   3   7 -14  105.54    9.65
  -3   7  14  103.98    6.62
   3   7 -13  101.77    9.07
  -3   7  13   84.63    5.85
  -3   7  12   19.43    2.78
   3   7 -12   17.09    3.96
  -3   7  12   21.81    3.15
  -3   7  12   16.97    2.70
  -3   7  11  613.13   18.31
   3   7 -11  528.76   21.83
  -3   7  11  529.27   18.06
  -3   7  11  558.49   17.24
  -3   7  11  607.82   18.31
  -3   7  10  216.01    9.68
  -3   7  10  220.74    8.36
   3   7 -10  178.85   11.46
  -3   7  10  187.56    9.18
  -3   7  10  210.19    9.43
  -3   7   9  392.13   13.97
   3  -7   9  372.69   14.79
  -3   7   9  410.04   12.13
  -3   7   9  347.89   12.81
   3   7  -9  334.81   16.01
  -3   7   9  369.00   13.15
  -3   7   8   13.30    2.49
  -3   7   8   20.26    2.25
   3  -7   8   15.38    2.71
  -3   7   8   12.29    2.09
   3   7  -8   13.37    3.16
  -3   7   8   15.80    2.42
  -3   7   8   15.42    2.38
  -3   7   7  593.01   18.28
  -3   7   7  635.62   15.80
   3  -7   7  551.53   18.04
   3   7  -7  550.46   18.86
  -3  -7  -7  581.44   19.34
  -3   7   7  538.91   16.03
   3   7  -7  482.74   19.28
  -3   7   7  597.74   17.09
  -3   7   7  572.54   16.75
  -3   7   6  159.70    8.29
   3   7  -6  160.08    8.67
   3  -7   6  152.91    7.96
  -3   7   6  176.21    6.73
  -3   7   6  158.78    6.93
  -3  -7  -6  169.04    9.05
  -3   7   6  156.05    7.29
  -3   7   6  164.55    7.49
  -3   7   5 1742.52   40.49
   3  -7   5 1649.22   39.73
  -3   7   5 1800.09   36.71
   3   7  -5 1602.72   39.92
  -3   7   5 1655.45   36.64
  -3  -7  -5 1687.28   41.21
  -3   7   5 1690.55   37.95
  -3   7   5 1669.24   38.03
  -3   7   4  113.31    6.80
   3   7  -4   97.56    6.23
   3  -7   4  114.51    6.53
  -3   7   4  108.90    4.79
  -3  -7  -4  109.50    6.94
  -3   7   4  101.04    5.35
  -3   7   4  103.90    5.56
  -3   7   3  723.43   20.92
   3  -7   3  692.07   19.99
   3   7  -3  708.30   20.23
  -3   7   3  699.81   16.40
  -3  -7  -3  709.76   21.25
  -3   7   3  701.61   18.54
   3   7  -2   46.62    4.03
  -3  -7  -2   54.71    4.74
  -3   7   2   50.87    3.63
   3   7  -1  817.34   21.75
  -3  -7  -1  818.80   23.23
  -3   7   1  785.48   19.91
  -3   7   0   80.44    5.64
   3   7   0   88.97    5.40
  -3  -7   0   95.16    6.27
  -3   7   0   75.05    4.27
  -3   7  -1  789.30   21.88
  -3  -7   1  788.41   22.45
  -3   7  -1  792.63   18.72
  -3   7  -2   60.45    4.80
  -3  -7   2   44.68    2.72
  -3  -7   2   60.41    4.99
  -3   7  -2   56.46    3.43
  -3   7  -3  643.63   19.25
  -3   7  -3  644.94   15.68
  -3   7  -4  122.39    7.10
  -3   7  -5 1651.15   39.51
  -3   7  -6  133.92    7.52
  -3   7  -7  545.94   17.49
  -3   7  -7  566.31   17.28
  -3   7  -7  583.49   17.96
  -3   7  -8   13.20    2.38
  -3   7  -8   17.79    2.74
  -3   7  -8   14.92    2.73
  -3   7  -8   12.02    1.87
  -3   7  -9  343.81   13.36
  -3   7  -9  386.81   14.27
  -3   7  -9  375.70   13.78
  -3   7 -10  178.12    8.90
  -3   7 -10  196.68    9.80
  -3   7 -10  210.53    9.79
   3   7  10  198.48    9.91
  -3   7 -11  569.01   19.03
  -3   7 -11  604.17   18.88
   3   7  11  567.97   18.86
   3   7  12    9.63    2.44
  -3   7 -12    7.13    1.80
  -3   7 -12   12.37    2.92
  -3   7 -12   12.97    2.60
   3   7  12    6.37    2.23
  -3   7 -13  122.08    7.86
   3   7  13  110.62    7.56
   3   7  13  108.68    7.75
  -3   7 -14  111.15    7.73
   3   7  14  107.27    7.50
   3   7  14  108.82    7.86
  -3   7 -15  304.22   13.70
   3   7  15  276.37   12.91
   3   7  15  295.71   13.86
  -3   7 -16   75.72    6.67
   3   7  16   63.94    5.95
   3   7  16   69.16    6.56
  -3   7 -17  532.66   19.85
   3   7  17  486.30   18.57
   3   7  17  494.62   19.47
  -3   7 -18   11.06    3.12
   3   7  18   12.94    3.32
  -3   7 -19  592.56   22.13
   3   7  19  550.00   20.27
   3   7  19  542.83   21.11
  -3   7 -20   31.27    4.92
   3   7  20   29.82    4.35
   3   7  20   28.29    4.65
  -3   7 -21  105.05    9.05
   3   7  21   96.66    7.70
   3   7  21  107.65    8.82
  -3   7 -22   94.01    8.74
   3   7  22   77.93    7.54
   3   7  22   83.52    7.14
  -3   7 -23  342.61   17.44
   3   7  23  317.65   15.79
   3   7  23  300.04   14.31
  -3   7 -24  119.30   10.11
   3   7  24   95.86    8.49
   3   7  24  111.92    8.19
  -3   7 -25  234.86   14.55
   3   7  25  212.87   12.61
  -3   7 -26  128.83   10.86
   3   7  26  105.99    8.70
  -3   7 -27  309.06   16.82
   3   7  27  245.31   13.62
  -3   7 -28   30.71    5.80
   3  -7 -28   31.54    6.03
   3   7  28   24.81    4.47
  -3   7 -29  332.89   17.19
   3  -7 -29  359.82   18.60
   3  -7 -30   16.48    4.61
  -3   7 -30   15.61    4.36
  -3   7 -31  196.52   12.15
  -3  -8 -30   19.30    4.67
   3   8 -30   11.34    4.22
   3   8 -29   47.44    7.38
  -3  -8 -29   64.89    7.44
   3   8 -28   12.97    4.72
   3   8 -27  678.32   29.96
   3   8 -26   38.31    7.02
   3   8 -25   32.55    6.70
   3   8 -24    9.89    4.16
   3   8 -23  689.49   30.85
   3   8 -22   82.84    9.97
  -3   8  21   55.38    5.56
   3   8 -21   74.20    9.42
  -3   8  20   14.81    3.21
   3   8 -20   23.35    5.61
  -3   8  19  513.67   18.68
   3   8 -19  600.69   27.15
   3   8 -18   25.73    5.82
  -3   8  18   22.64    3.62
   3   8 -17  319.76   18.77
  -3   8  17  262.05   11.96
   3   8 -16   49.29    7.28
  -3   8  16   43.99    4.66
   3   8 -15 1442.69   44.38
  -3   8  15 1304.90   34.31
  -3   8  14   26.94    3.33
   3   8 -14   31.66    5.61
  -3   8  14   31.69    4.01
  -3   8  14   26.74    3.58
   3   8 -13  467.83   21.87
  -3   8  13  503.26   17.15
  -3   8  13  473.60   16.31
   3   8 -12   55.80    7.09
  -3   8  12   44.08    4.32
  -3   8  12   48.36    4.68
   3   8 -11 1363.23   42.50
  -3   8  11 1541.08   36.87
  -3   8  10  108.75    7.04
  -3   8  10  100.75    6.56
   3   8 -10   90.67    8.43
  -3   8  10  114.73    6.86
   3  -8   9  962.61   28.57
  -3   8   9 1024.47   27.35
  -3   8   9 1001.88   25.98
  -3   8   9  943.79   25.28
  -3   8   8   76.21    5.90
  -3   8   8   73.90    4.18
   3  -8   8   71.33    6.12
  -3   8   8   65.03    4.77
  -3   8   8   78.27    5.38
  -3   8   8   72.30    5.19
  -3   8   7 2165.15   48.44
   3   8  -7 1900.76   48.56
   3  -8   7 1984.81   48.06
  -3   8   7 1990.01   44.74
  -3   8   7 2101.41   45.78
  -3   8   7 2034.93   45.71
  -3   8   6   26.96    3.64
   3   8  -6   21.83    3.53
   3  -8   6   24.91    3.55
  -3   8   6   32.47    2.96
  -3   8   6   24.94    2.92
  -3   8   6   26.16    3.00
   3  -8   5 1057.59   29.04
   3   8  -5 1043.29   29.33
  -3   8   5 1107.25   25.67
  -3   8   5 1089.79   26.85
  -3   8   5 1093.13   27.25
  -3   8   4   76.44    5.90
   3   8  -4   68.45    5.49
   3  -8   4   63.61    5.16
  -3  -8  -4   65.49    5.74
  -3   8   4   64.78    3.59
  -3   8   4   60.61    4.20
  -3   8   4   66.88    4.60
  -3   8   3 1804.54   42.03
   3   8  -3 1701.32   40.89
  -3  -8  -3 1662.82   42.05
  -3   8   3 1687.12   38.42
   3   8  -2   17.20    2.77
  -3  -8  -2   10.34    2.41
  -3   8   2   13.17    2.00
   3   8  -1  608.13   18.71
  -3  -8  -1  619.79   20.21
  -3   8   1  621.11   16.76
  -3   8   0   43.96    4.37
   3   8   0   38.70    3.83
  -3  -8   0   34.73    4.10
  -3   8   0   37.05    3.10
  -3   8  -1  655.90   20.16
  -3  -8   1  611.66   20.17
  -3   8  -1  625.75   16.58
  -3   8  -2   17.72    2.93
  -3  -8   2   14.17    2.84
  -3   8  -2   13.27    1.81
  -3   8  -3 1713.24   41.09
  -3   8  -3 1701.83   36.08
  -3   8  -4   91.69    6.41
  -3  -8   4   67.33    5.75
  -3   8  -5 1083.22   29.51
  -3   8  -6   32.23    3.94
  -3   8  -7 1892.95   45.15
  -3   8  -7 2014.54   45.98
  -3   8  -8   82.41    6.20
  -3   8  -8   95.38    6.83
   3   8   8   82.02    6.17
  -3   8  -9  991.01   27.44
  -3   8  -9  871.21   25.87
   3   8   9  891.85   26.27
  -3   8  -9  969.42   26.59
   3   8   9  919.57   26.55
  -3   8 -10   95.36    6.65
   3   8  10   84.95    6.62
  -3   8 -10  102.90    7.13
   3   8  10   94.19    6.97
  -3   8 -11 1395.07   37.29
  -3   8 -11 1410.41   33.31
  -3   8 -11 1479.68   37.26
   3   8  11 1381.43   36.96
  -3   8 -12   57.05    5.87
  -3   8 -12   60.34    5.72
   3   8  12   65.64    5.91
  -3   8 -13  473.68   17.59
   3   8  13  429.01   16.93
  -3   8 -14   37.07    4.61
   3   8  14   33.60    4.44
   3   8  14   32.37    4.55
  -3   8 -15 1391.26   37.59
   3   8  15 1336.69   36.92
   3   8  15 1371.65   37.92
  -3   8 -16   63.08    6.34
   3   8  16   50.62    5.50
   3   8  16   57.41    6.14
  -3   8 -17  280.50   14.04
   3   8  17  276.22   13.55
   3   8  17  282.69   14.12
  -3   8 -18   38.38    5.33
   3   8  18   34.11    4.83
   3   8  18   32.15    4.86
  -3   8 -19  580.84   22.13
   3   8  19  545.73   20.43
   3   8  19  529.42   21.10
  -3   8 -20   28.12    4.86
   3   8  20   36.28    4.81
   3   8  20   27.84    4.64
  -3   8 -21   69.56    7.31
   3   8  21   55.10    5.95
   3   8  21   58.77    6.59
  -3   8 -22   68.54    7.47
   3   8  22   63.52    6.85
   3   8  22   58.26    6.13
  -3   8 -23  624.01   24.66
   3   8  23  605.38   23.19
   3   8  23  627.97   22.23
   3   8  24    3.36    2.38
  -3   8 -24    6.54    3.04
   3   8  24    2.89    2.56
  -3   8 -25   27.75    5.21
   3   8  25   19.86    4.20
  -3   8 -26   42.54    6.26
   3   8  26   37.87    5.32
  -3   8 -27  618.20   24.46
   3   8  27  526.28   20.91
  -3   8 -28    6.54    3.12
   3   8  28    4.72    2.59
  -3   8 -29   57.94    7.03
   3  -8 -29   54.14    7.09
   3   8  29   42.21    5.20
   3  -8 -30    9.88    3.76
  -3   8 -30   10.22    3.59
  -3  -9 -29  134.60   10.42
   3   9 -27  122.19   11.52
   3   9 -26   98.59   10.68
   3   9 -25  275.70   18.26
   3   9 -24   88.59   10.52
   3   9 -23  342.84   20.91
   3   9 -22    9.65    4.39
  -3   9  21  150.21    9.43
   3   9 -21  192.78   15.40
  -3   9  20   22.51    3.81
   3   9 -20   26.94    6.38
  -3   9  19  314.01   14.10
   3   9 -19  388.29   21.96
   3   9 -18  480.22   24.27
  -3   9  18  377.76   15.51
   3   9 -17  543.61   25.79
  -3   9  17  431.31   16.66
  -3   9  16    6.83    2.49
   3   9 -16   11.78    4.56
  -3   9  16   10.19    2.95
  -3   9  15  743.74   23.57
  -3   9  15  739.21   23.11
  -3   9  14   92.98    6.35
   3   9 -14   97.35   10.10
  -3   9  14   91.43    6.85
  -3   9  14   94.55    6.83
  -3   9  13   78.72    6.02
   3   9 -13   79.70    8.83
  -3   9  13   86.95    6.51
  -3   9  12  152.79    8.61
  -3   9  11   50.66    4.75
  -3   9  10   41.10    4.19
  -3   9  10   46.30    4.45
  -3   9   9  584.70   18.06
  -3   9   9  540.16   17.61
  -3   9   8   25.21    3.76
   3   9  -8   30.32    4.55
  -3   9   8   23.93    3.12
  -3   9   8   30.00    3.47
   3   9  -7  730.66   24.70
  -3   9   7  778.93   22.13
  -3   9   7  799.94   21.99
   3   9  -6   45.70    5.03
  -3   9   6   55.61    5.32
  -3   9   6   46.74    3.99
  -3   9   6   54.01    4.48
   3   9  -5  685.67   22.30
  -3   9   5  740.43   22.79
  -3   9   5  694.94   19.40
  -3   9   5  711.92   20.08
   3   9  -4   24.07    3.59
  -3   9   4   22.04    3.48
  -3   9   4   27.24    3.08
   3   9  -3  676.36   21.58
  -3   9   3  687.91   19.28
   3   9  -2  326.44   13.30
  -3   9   2  334.81   11.46
   3   9  -1  287.54   12.21
  -3   9   1  290.50   10.32
   3   9   0   10.24    2.34
  -3   9   0   11.55    2.59
  -3   9   0    7.67    1.56
  -3   9  -1  345.19   14.12
  -3   9  -1  322.22   10.69
  -3   9  -2  324.18   13.70
  -3   9  -2  321.01   10.43
  -3   9  -3  686.38   21.93
  -3   9  -3  661.81   17.12
  -3   9  -4   25.42    3.74
  -3   9  -5  672.59   21.48
   3   9   5  626.59   19.66
  -3   9  -6   44.34    4.85
   3   9   6   38.45    4.12
  -3   9  -7  806.69   24.58
  -3   9  -7  773.33   24.09
   3   9   7  748.18   22.92
  -3   9  -8   32.01    4.11
  -3   9  -8   37.58    4.69
   3   9   8   28.93    3.80
   3   9   8   23.24    3.66
  -3   9  -9  566.98   19.87
   3   9   9  515.50   18.32
   3   9   9  530.24   18.90
  -3   9 -10   52.33    5.66
   3   9  10   57.03    5.60
   3   9  10   52.22    5.23
  -3   9 -11   74.67    6.70
   3   9  11   64.18    5.95
   3   9  11   55.51    5.73
  -3   9 -12  147.47    9.85
  -3   9 -12  156.96    9.53
   3   9  12  137.51    9.01
  -3   9 -13   59.15    5.22
   3   9  13   66.65    6.31
  -3   9 -14  110.48    8.33
   3   9  14  103.51    7.93
  -3   9 -15  772.22   25.76
   3   9  15  728.13   24.71
   3   9  16   16.29    3.62
  -3   9 -16   18.86    3.99
   3   9  16   11.03    3.37
  -3   9 -17  479.10   19.54
   3   9  17  417.81   17.88
   3   9  17  451.01   18.84
  -3   9 -18  410.74   18.23
   3   9  18  381.83   16.74
   3   9  18  369.18   17.05
  -3   9 -19  347.50   16.70
   3   9  19  306.21   15.41
   3   9  19  321.94   15.09
  -3   9 -20   23.48    4.65
   3   9  20   21.75    4.02
   3   9  20   26.84    4.71
  -3   9 -21  177.73   11.94
   3   9  21  165.51   10.99
   3   9  21  180.30   11.02
   3   9  22    8.78    2.84
  -3   9 -22   12.40    3.74
   3   9  22    7.42    3.01
  -3   9 -23  315.94   16.57
   3   9  23  281.34   14.81
   3   9  23  294.10   14.17
  -3   9 -24   84.82    8.51
   3   9  24   76.53    7.44
   3   9  24   78.40    6.93
  -3   9 -25  271.38   15.30
   3   9  25  235.42   13.01
   3   9  25  241.75   12.30
  -3   9 -26   83.07    8.31
   3   9  26   65.36    6.69
  -3   9 -27  144.44   10.72
   3   9  27  116.40    8.69
  -3   9 -28   11.29    3.62
   3   9  28    9.36    2.98
   3  -9 -29  124.98   10.20
   3   9  29  105.26    7.57
  -3  10  21   31.84    4.41
  -3  10  20   19.84    3.80
  -3  10  19  718.03   23.59
  -3  10  18  129.82    8.71
  -3  10  17  171.58    9.90
  -3  10  16   43.22    4.99
  -3  10  15 1202.92   31.59
  -3  10  15 1261.45   33.62
  -3  10  14  407.74   15.49
  -3  10  14  445.31   16.67
  -3  10  13   22.79    3.66
  -3  10  13   24.66    3.67
  -3  10  12  112.68    7.77
  -3  10  12  113.12    7.49
  -3  10  11  856.33   24.92
  -3  10  11  859.92   24.94
  -3  10  10  497.42   17.02
  -3  10  10  487.96   16.77
  -3  10   9  153.08    8.36
  -3  10   9  146.74    8.05
   3  10  -8   50.19    6.03
  -3  10   8   54.95    4.70
  -3  10   8   52.34    4.79
   3  10  -7 1039.76   32.10
  -3  10   7 1109.42   28.17
  -3  10   7 1086.12   28.50
   3  10  -6  270.75   13.44
  -3  10   6  282.97   10.98
  -3  10   6  289.24   11.50
  -3  10   5  595.12   20.70
   3  10  -5  531.75   19.72
  -3  10   5  546.66   17.18
   3  10  -4   88.69    7.06
  -3  10   4   96.35    7.59
  -3  10   4   96.68    5.96
   3  10  -3  708.05   23.24
  -3  10   3  774.02   24.45
  -3  10   3  727.70   20.43
   3  10  -2  399.11   15.81
  -3  10   2  409.05   13.37
   3  10  -1  287.98   12.89
  -3  10   1  284.34   10.45
   3  10   0   13.13    2.90
  -3  10   0   19.39    3.48
  -3  10   0   18.80    2.39
  -3  10  -1  273.21   13.05
   3  10   1  262.77   12.13
   3  10   1  257.35   10.64
  -3  10  -1  269.67    9.70
  -3  10  -2  426.73   16.92
   3  10   2  381.78   13.91
  -3  10  -2  410.51   12.57
  -3  10  -3  720.66   23.35
   3  10   3  648.97   20.06
  -3  10  -4  106.59    7.93
   3  10   4   91.47    6.30
  -3  10  -5  520.95   19.17
   3  10   5  481.38   16.77
   3  10   5  483.35   17.48
   3  10   6  266.50   11.81
   3  10   6  274.50   12.50
  -3  10  -7 1059.30   30.95
   3  10   7  994.61   28.30
  -3  10  -8   60.34    6.24
   3  10   8   59.36    5.46
  -3  10  -9  136.11    9.31
   3  10   9  127.93    8.64
   3  10   9  128.39    8.28
  -3  10 -10  476.69   18.99
   3  10  10  459.83   17.55
   3  10  10  451.14   17.79
  -3  10 -11  877.65   28.20
   3  10  11  847.33   26.75
   3  10  11  853.80   26.55
  -3  10 -12  140.34   10.07
  -3  10 -12  115.72    7.93
   3  10  12  138.05    9.19
   3  10  12  127.27    8.84
  -3  10 -13    8.47    3.20
   3  10  13    9.44    3.02
  -3  10 -13    5.40    2.04
   3  10  13    7.63    2.66
  -3  10 -14  362.53   14.64
   3  10  14  466.19   18.18
   3  10  15 1342.77   37.91
   3  10  16   32.69    4.82
  -3  10 -17  195.72   11.98
   3  10  17  188.39   11.41
  -3  10 -18  159.39   10.99
   3  10  18  161.64   10.44
   3  10  18  150.69   10.36
  -3  10 -19  792.80   27.50
   3  10  19  769.76   25.90
   3  10  19  766.12   26.61
  -3  10 -20   20.80    4.43
   3  10  20   19.93    4.24
   3  10  20   20.72    3.97
  -3  10 -21   39.16    5.68
   3  10  21   33.52    5.20
   3  10  21   46.81    5.56
  -3  10 -22  119.08    9.68
   3  10  22  107.03    8.80
   3  10  22  113.60    8.43
  -3  10 -23  386.63   18.02
   3  10  23  348.99   16.39
   3  10  23  362.55   15.84
   3  10  24   52.03    5.91
   3  10  24   49.81    5.55
   3  10  25   44.58    5.44
   3  10  25   48.20    5.29
   3  10  26   76.04    6.96
   3  10  27  429.48   17.13
   3  10  28   22.31    3.81
  -3  11  21  131.81    8.79
  -3  11  20    0.66    1.97
  -3  11  19  131.57    8.84
  -3  11  18  174.62   10.28
  -3  11  17  441.14   17.25
  -3  11  16   23.51    3.97
  -3  11  15  295.89   12.59
  -3  11  14   60.95    5.66
  -3  11  13  170.75    9.89
  -3  11  12    7.27    2.44
  -3  11  12    8.22    2.64
  -3  11  11  275.90   13.50
  -3  11  11  273.29   12.34
  -3  11  10  219.11   12.00
  -3  11  10  233.52   11.02
  -3  11   9  738.69   24.76
  -3  11   9  716.69   22.17
   3  11  -8   65.22    7.10
  -3  11   8   74.27    5.83
   3  11  -7  479.15   20.00
  -3  11   7  518.95   17.19
   3  11  -6  297.39   14.82
  -3  11   6  318.29   12.46
   3  11  -5  107.50    8.36
  -3  11   5  105.56    6.60
   3  11  -4   12.79    3.30
  -3  11   4   10.27    2.24
   3  11  -3  203.40   11.46
  -3  11   3  208.58    9.23
   3  11  -2   71.13    6.56
   3  11  -2   63.56    4.71
  -3  11   2   70.79    4.98
   3  11  -1  494.53   18.59
  -3  11   1  498.32   15.13
   3  11   0   15.67    3.29
   3  11   0   13.51    2.37
  -3  11   0   14.75    2.26
   3  11   1  480.41   18.24
   3  11   1  461.05   15.60
   3  11   1  446.94   16.49
  -3  11  -1  494.33   14.71
   3  11   2   68.59    5.30
  -3  11  -2   77.21    4.74
   3  11   2   67.73    5.77
   3  11   3  197.07    9.47
   3  11   3  186.71    9.98
   3  11   4   11.76    2.47
   3  11   4   15.97    3.11
   3  11   5   86.87    6.31
   3  11   5   83.35    6.69
  -3  11  -6  312.05   14.98
   3  11   6  294.50   12.75
   3  11   6  316.48   13.85
  -3  11  -7  508.40   20.11
   3  11   7  486.99   17.67
   3  11   7  501.97   18.60
  -3  11  -8   57.49    6.49
   3  11   8   61.51    5.77
  -3  11  -9  755.34   25.97
   3  11   9  702.57   23.14
  -3  11 -10  212.31   12.51
  -3  11 -10  184.87   10.93
   3  11  10  181.71   10.43
  -3  11 -11  264.59   14.38
   3  11  11  247.91   12.87
   3  11  11  263.62   12.74
  -3  11 -12    8.35    3.78
   3  11  12    8.57    2.99
  -3  11 -12    4.53    2.19
   3  11  12   15.13    3.16
   3  11  13  161.08   10.38
   3  11  13  158.34    9.97
  -3  11 -14   53.81    5.38
   3  11  14   65.93    6.76
   3  11  14   62.29    6.32
   3  11  15  280.10   14.22
   3  11  15  278.67   14.00
   3  11  16   47.61    5.78
   3  11  16   39.47    5.34
   3  11  17  445.57   18.60
   3  11  18  171.42   10.84
   3  11  19  141.63    9.72
   3  11  20    3.00    2.08
   3  11  20    1.57    2.20
   3  11  21  156.02   10.01
   3  11  21  149.15   10.17
   3  11  22    5.40    2.46
   3  11  22    2.09    2.24
   3  11  23  194.87   11.39
   3  11  23  194.35   10.90
   3  11  24   28.66    4.24
   3  11  24   24.97    4.30
   3  11  25  193.45   11.01
   3  11  25  191.93   10.32
   3  11  26   38.06    4.82
   3  11  26   42.02    4.58
   3  11  27   89.55    6.84
  -3  12  20   88.24    7.15
  -3  12  19  230.19   12.00
  -3  12  18  475.70   18.28
  -3  12  17   73.81    6.67
  -3  12  15  290.93   12.80
  -3  12  14  348.66   14.81
  -3  12  14  352.01   14.94
  -3  12  13   99.16    7.68
  -3  12  13   93.87    7.27
  -3  12  12   69.34    6.63
  -3  12  12   63.19    5.92
  -3  12  11  225.76   12.43
  -3  12  11  204.05   10.80
  -3  12  10  481.04   19.55
  -3  12  10  481.21   17.47
  -3  12   9   53.71    6.27
  -3  12   9   50.73    5.09
  -3  12   8   24.42    4.44
  -3  12   8   21.85    3.48
   3  12  -7  832.66   29.38
  -3  12   7  927.15   29.41
  -3  12   7  876.62   25.17
   3  12  -7  842.27   24.16
   3  12  -6  883.85   30.29
  -3  12   6  948.15   26.34
   3  12  -6  911.58   25.70
   3  12  -5  184.59   11.83
  -3  12   5  212.80    9.90
   3  12  -5  200.15    9.74
   3  12  -4   85.18    7.79
  -3  12   4   82.11    5.89
   3  12  -4   83.13    6.10
   3  12  -3  207.43   12.24
   3  12  -3  212.19   10.31
  -3  12   3  229.05   10.01
   3  12  -2  832.45   27.76
  -3  12   2  862.87   23.28
   3  12  -2  805.67   24.31
   3  12  -1  108.46    8.64
   3  12  -1  108.02    6.40
   3  12  -1  110.67    7.33
  -3  12   1  113.59    6.52
   3  12   0    5.86    2.55
   3  12   0    9.90    2.57
  -3  12   0   10.46    2.19
   3  12   0    8.42    2.04
   3  12   1   92.43    7.83
  -3  12  -1   96.46    5.65
   3  12   1   87.82    6.05
   3  12   1   86.82    6.67
   3  12   2  871.85   27.67
   3  12   2  822.63   25.20
   3  12   2  813.99   23.53
   3  12   3  202.33   11.78
   3  12   3  201.24    9.81
   3  12   3  210.88   10.89
   3  12   4   82.00    6.15
   3  12   4   83.73    6.77
  -3  12  -5  198.93   12.21
   3  12   5  197.04   10.08
   3  12   5  195.43   10.74
  -3  12  -6  949.97   30.55
  -3  12  -6  917.45   29.86
   3  12   6  906.86   26.69
   3  12   6  943.47   28.22
  -3  12  -7  890.77   29.25
  -3  12  -7  838.67   28.12
   3  12   7  851.31   26.66
   3  12   7  821.50   25.28
  -3  12  -8   23.21    4.62
  -3  12  -8   22.48    4.27
   3  12   8   23.40    3.99
   3  12   8   16.60    3.25
  -3  12  -9   49.89    6.36
  -3  12  -9   43.65    5.61
   3  12   9   39.41    4.86
  -3  12 -10  467.31   20.22
  -3  12 -10  432.76   18.51
   3  12  10  465.99   17.78
  -3  12 -11  211.32   13.26
  -3  12 -11  182.07   11.17
   3  12  11  201.05   11.07
  -3  12 -12   83.35    8.58
   3  12  12   84.91    7.49
   3  12  12   76.75    6.82
  -3  12 -13   73.11    6.65
   3  12  13   99.68    8.16
   3  12  13   94.50    7.56
   3  12  14  367.23   16.26
   3  12  14  353.77   15.61
   3  12  15  304.23   14.95
   3  12  15  314.58   14.80
   3  12  16   43.72    5.59
   3  12  16   43.72    5.48
   3  12  17   68.03    6.76
   3  12  17   64.35    6.62
   3  12  18  463.42   18.89
   3  12  18  475.58   19.03
   3  12  19  237.60   12.79
   3  12  20   98.21    7.80
   3  12  21    4.42    2.35
   3  12  22  315.70   14.57
   3  12  22  328.06   14.57
   3  12  23  140.71    9.17
   3  12  23  155.46    9.27
   3  12  24   41.76    5.09
   3  12  24   45.71    4.93
   3  12  25   26.28    3.83
   3  12  25   27.77    4.14
   3  12  26  141.24    8.54
  -3  13  19   59.73    5.81
  -3  13  15  282.72   13.26
  -3  13  14    5.68    2.45
  -3  13  14    4.28    2.31
  -3  13  13  116.46    8.46
  -3  13  13  109.77    7.87
  -3  13  12    0.75    1.93
  -3  13  12    1.55    1.98
  -3  13  11   99.77    8.29
  -3  13  11   81.33    6.75
  -3  13  10   99.97    8.48
  -3  13  10   95.52    7.18
  -3  13   9  289.28   14.93
  -3  13   9  264.92   12.33
  -3  13   8   11.10    3.40
  -3  13   8   14.18    3.03
   3  13  -7  453.03   21.17
  -3  13   7  498.86   17.62
   3  13  -6    3.75    3.34
  -3  13   6    2.40    2.42
  -3  13   6    3.91    1.93
   3  13  -5   33.71    5.61
  -3  13   5   29.76    5.10
  -3  13   5   30.99    3.84
   3  13  -5   29.96    3.79
   3  13  -4    9.05    3.85
  -3  13   4    1.74    2.58
   3  13  -4   11.01    2.55
  -3  13   4    0.38    1.36
   3  13  -3  274.36   14.95
  -3  13   3  303.75   15.72
  -3  13   3  307.06   12.19
   3  13  -3  282.74   12.36
   3  13  -2   28.84    5.13
  -3  13   2   29.38    3.49
   3  13  -2   23.89    3.54
   3  13  -1  493.79   20.61
  -3  13   1  481.17   15.87
   3  13  -1  489.25   17.55
   3  13   0    2.32    2.22
   3  13   0    8.54    2.57
  -3  13   0    5.91    2.87
  -3  13   0    3.15    1.54
   3  13   1  498.48   20.58
  -3  13  -1  541.13   21.61
   3  13   1  478.83   16.06
   3  13   1  482.86   17.86
   3  13   2   38.18    5.61
  -3  13  -2   50.36    6.36
   3  13   2   40.18    4.85
   3  13   2   41.92    4.21
   3  13   3  283.48   14.80
   3  13   3  274.61   12.92
   3  13   3  261.96   11.44
  -3  13  -4    1.11    2.95
   3  13   4    1.87    2.36
  -3  13  -4    2.15    2.64
   3  13   4    1.28    1.68
   3  13   5   28.06    4.77
  -3  13  -5   22.82    4.71
  -3  13  -5   29.69    4.90
   3  13   5   25.19    4.02
   3  13   5   27.85    3.74
  -3  13  -6    3.13    2.75
   3  13   6    3.19    2.24
  -3  13  -6    3.46    2.87
   3  13   6    3.50    1.93
  -3  13  -7  479.54   20.66
  -3  13  -7  480.16   20.26
   3  13   7  471.53   18.47
   3  13   7  447.52   16.85
  -3  13  -8   13.22    4.03
  -3  13  -8   12.05    3.47
   3  13   8   15.18    3.36
   3  13   8   13.51    2.95
  -3  13  -9  251.27   14.68
  -3  13  -9  249.73   13.91
   3  13   9  267.52   13.43
   3  13   9  252.55   12.20
  -3  13 -10   90.75    8.96
  -3  13 -10   72.79    7.26
   3  13  10   77.63    7.16
   3  13  10   72.84    6.42
  -3  13 -11   92.47    9.14
  -3  13 -11   86.02    7.68
   3  13  11   86.00    7.07
  -3  13 -12    3.47    3.63
  -3  13 -12    2.84    2.18
   3  13  12    0.50    1.99
  -3  13 -13   82.04    7.22
   3  13  13  101.87    8.21
   3  13  13   99.17    7.64
  -3  13 -14    6.43    2.42
   3  13  14   11.30    3.07
   3  13  14    6.20    2.62
   3  13  15  281.21   13.71
   3  13  15  297.47   14.43
   3  13  16   14.18    3.41
   3  13  16   19.68    3.89
   3  13  17  235.42   12.40
   3  13  17  236.65   12.58
   3  13  18   31.69    4.65
   3  13  18   31.84    4.60
   3  13  19   59.52    6.07
   3  13  19   66.44    6.40
   3  13  20    2.94    2.26
   3  13  20    1.82    2.03
   3  13  21  157.15    9.51
   3  13  22    8.01    2.47
   3  13  23  187.94    9.90
   3  13  24   20.70    3.52
   3  13  24   23.55    3.53
  -3  14  16   14.35    3.14
  -3  14  15   78.67    6.67
  -3  14  14  703.36   22.80
  -3  14  14  700.40   22.90
  -3  14  13   12.57    3.36
  -3  14  13   10.14    2.92
  -3  14  12   32.03    4.83
  -3  14  12   38.31    4.65
  -3  14  11   18.35    4.08
  -3  14  11   20.73    3.61
  -3  14  10  712.75   25.26
  -3  14  10  649.84   21.71
  -3  14   9   23.20    4.34
  -3  14   9   26.45    3.87
  -3  14   8   71.11    7.54
  -3  14   8   76.03    6.22
  -3  14   7  137.08   10.48
  -3  14   7  132.56    8.22
  -3  14   6  917.97   30.38
  -3  14   6  858.47   24.99
   3  14  -5   69.59    8.16
  -3  14   5   79.64    8.23
  -3  14   5   69.67    5.73
   3  14  -4   12.63    4.49
  -3  14   4   12.53    2.63
   3  14  -4   12.56    2.60
  -3  14   4    8.17    3.41
   3  14  -3   48.74    6.89
  -3  14   3   60.51    7.13
   3  14  -3   40.70    4.46
  -3  14   3   47.26    4.57
   3  14  -2  792.26   28.88
   3  14  -2  784.87   24.13
  -3  14   2  846.59   23.34
   3  14  -1   75.53    8.02
   3  14  -1   71.21    6.04
  -3  14   1   73.92    5.41
   3  14   0    3.00    2.69
   3  14   0    4.01    2.08
  -3  14   0    2.33    2.90
   3  14   1   68.08    7.50
  -3  14  -1   85.65    8.45
   3  14   1   69.16    6.13
   3  14   2  753.53   27.62
  -3  14  -2  821.90   28.78
   3  14   2  777.79   24.52
  -3  14  -3   44.97    6.59
   3  14   3   43.56    6.20
  -3  14  -3   54.17    6.69
   3  14   3   47.41    5.29
   3  14   3   46.91    4.53
   3  14   4    4.01    2.85
  -3  14  -4    5.21    3.25
  -3  14  -4    7.34    3.22
   3  14   4    8.37    2.78
   3  14   5   65.76    7.26
  -3  14  -5   69.79    7.83
  -3  14  -5   66.96    7.44
   3  14   5   69.43    6.43
   3  14   5   66.57    5.53
   3  14   6  791.54   27.70
  -3  14  -6  794.85   28.85
  -3  14  -6  830.40   28.70
   3  14   6  768.24   25.31
   3  14   6  793.82   23.68
  -3  14  -7  122.51   10.26
   3  14   7  115.80    9.30
  -3  14  -7  131.47   10.18
   3  14   7  124.06    8.78
   3  14   7  118.37    7.69
  -3  14  -8   68.11    7.76
   3  14   8   54.10    6.49
  -3  14  -8   63.55    7.07
   3  14   8   67.34    6.51
   3  14   8   64.33    5.69
  -3  14  -9   11.59    4.32
  -3  14  -9   17.46    3.81
   3  14   9   11.76    3.21
   3  14   9    9.88    2.75
  -3  14 -10  676.46   26.13
  -3  14 -10  609.11   23.55
   3  14  10  655.78   22.86
   3  14  10  626.22   21.10
  -3  14 -11   27.09    5.75
  -3  14 -11   24.03    4.43
   3  14  11   23.51    4.03
   3  14  11   25.14    3.89
  -3  14 -12   30.86    4.76
   3  14  12   38.16    4.70
  -3  14 -13    7.80    2.70
   3  14  13   12.11    3.11
   3  14  14  649.12   21.92
   3  14  15   80.22    6.77
   3  14  15   83.42    7.10
   3  14  16   10.46    2.98
   3  14  16   11.40    3.08
   3  14  17   21.10    3.84
   3  14  17   19.00    3.63
   3  14  18  257.44   12.40
   3  14  18  275.62   13.03
   3  14  19   33.89    4.39
   3  14  19   33.24    4.35
   3  14  20   38.66    4.58
   3  14  20   44.58    4.95
   3  14  21    2.08    1.72
   3  14  21    1.12    1.62
   3  14  22  195.51    9.82
   3  14  22  189.81    9.84
   3  14  23   32.30    3.94
  -3  15  16   12.34    2.86
  -3  15  15  238.45   11.40
  -3  15  14    4.48    2.18
  -3  15  13  107.36    7.80
  -3  15  13  103.92    7.37
  -3  15  12    2.68    2.22
  -3  15  12    2.64    1.98
  -3  15  11   38.55    5.40
  -3  15  11   26.38    3.90
  -3  15  10   13.87    3.75
  -3  15  10   12.62    2.94
  -3  15   9  226.65   13.20
  -3  15   9  187.17   10.04
  -3  15   8   13.00    3.80
  -3  15   8   11.31    2.75
  -3  15   7  352.06   17.29
  -3  15   7  311.20   13.29
  -3  15   6    2.81    2.79
  -3  15   6    2.85    1.89
   3  15  -5  121.21   10.79
  -3  15   5  135.97   10.70
  -3  15   5  130.94    7.89
   3  15  -4    4.41    3.91
  -3  15   4    0.48    2.97
  -3  15   4    0.90    1.56
   3  15  -3   87.94    9.16
  -3  15   3  102.85    6.71
  -3  15   3  108.32    9.65
   3  15  -3  103.60    6.94
   3  15  -2   15.13    4.55
  -3  15   2   10.49    2.36
   3  15  -2    9.58    2.47
   3  15  -1  305.45   16.67
   3  15  -1  312.05   13.20
   3  15   0   12.05    3.90
   3  15   0    7.26    2.42
  -3  15   0    9.41    3.72
   3  15   1  293.52   16.26
  -3  15  -1  320.11   16.97
   3  15   1  321.53   13.68
   3  15   2   10.16    3.89
  -3  15  -2    8.57    3.68
  -3  15  -2   10.27    3.73
   3  15   2   13.49    3.18
  -3  15  -3   73.62    8.26
   3  15   3   77.12    8.11
  -3  15  -3   97.30    9.02
   3  15   3   90.52    7.06
  -3  15  -4   -0.99    3.75
   3  15   4   -1.14    2.88
   3  15   4    1.44    1.84
  -3  15  -4    2.58    2.73
   3  15   5  116.78    9.57
  -3  15  -5  120.87   10.29
  -3  15  -5  124.57   10.15
   3  15   5  117.19    7.08
   3  15   5  129.79    8.67
  -3  15  -6    3.16    3.22
   3  15   6   10.26    3.20
   3  15   6    3.80    2.28
  -3  15  -6    1.84    2.42
   3  15   6    1.22    1.47
   3  15   7  261.12   14.39
  -3  15  -7  278.87   15.80
  -3  15  -7  287.41   15.47
   3  15   7  264.89   11.57
   3  15   7  293.68   13.63
  -3  15  -8   20.50    5.20
   3  15   8   13.23    3.70
  -3  15  -8   19.14    4.20
   3  15   8   20.38    3.27
   3  15   8   19.29    3.66
  -3  15  -9  195.94   13.18
  -3  15  -9  185.00   12.02
   3  15   9  182.68    9.58
   3  15   9  202.92   11.19
  -3  15 -10    8.97    4.32
   3  15  10    9.14    2.88
  -3  15 -10   10.78    3.30
   3  15  10    9.47    2.52
  -3  15 -11   25.63    4.55
   3  15  11   20.95    3.46
   3  15  11   23.78    4.01
  -3  15 -12    1.82    1.96
   3  15  12    3.97    2.19
   3  15  12    3.01    1.85
  -3  15 -13   74.75    6.68
   3  15  13  100.94    7.14
   3  15  14    3.91    1.90
   3  15  15  231.20   11.20
   3  15  16   12.49    2.95
   3  15  16   13.36    2.91
   3  15  17  140.95    8.37
   3  15  17  140.94    8.80
   3  15  18   11.43    2.83
   3  15  18   12.50    2.76
   3  15  19    4.35    2.13
   3  15  19    1.55    1.62
   3  15  20    5.09    2.05
   3  15  20    3.60    1.91
  -3  16  13   39.73    4.40
  -3  16  12   16.61    3.13
  -3  16  11   29.37    4.51
  -3  16  11   26.25    3.64
  -3  16  10  418.31   17.55
  -3  16  10  380.51   14.72
  -3  16   9   73.37    7.18
  -3  16   9   57.96    5.29
  -3  16   8    9.59    3.39
  -3  16   8    8.93    2.51
  -3  16   7    8.43    3.26
  -3  16   7    5.83    2.12
  -3  16   6  719.09   26.14
  -3  16   6  647.61   20.49
  -3  16   5   13.57    3.94
  -3  16   5   12.59    2.64
  -3  16   4    3.79    3.00
   3  16  -3   10.71    4.40
  -3  16   3   11.46    3.91
   3  16  -2  487.74   22.09
   3  16  -1   16.22    4.86
   3  16  -1   15.03    2.94
   3  16   0    3.65    3.41
   3  16   0    4.25    1.92
  -3  16   0    2.39    2.91
   3  16   1   16.37    4.58
  -3  16  -1   15.95    4.27
   3  16   1   12.94    2.87
   3  16   2  484.02   21.48
  -3  16  -2  509.25   22.82
  -3  16  -2  566.61   22.99
   3  16   2  526.16   18.21
   3  16   3    7.50    3.57
  -3  16  -3    6.52    3.63
   3  16   3    5.92    2.30
  -3  16  -3   10.28    3.76
   3  16   4    5.35    3.18
  -3  16  -4    1.98    3.53
  -3  16  -4    5.09    3.17
   3  16   4    5.88    2.32
   3  16   5    9.75    3.53
  -3  16  -5   13.44    4.35
  -3  16  -5   12.11    3.79
   3  16   5   13.42    3.06
  -3  16  -6  626.45   24.71
  -3  16  -6  600.61   23.54
   3  16   6  607.96   20.33
  -3  16  -7    6.13    4.12
   3  16   7    3.66    2.19
  -3  16  -7    2.18    2.54
  -3  16  -8   10.38    4.22
  -3  16  -8    4.47    2.79
   3  16   8    7.17    2.48
  -3  16  -9   51.84    7.21
  -3  16  -9   43.11    5.79
   3  16   9   46.11    5.02
  -3  16 -10  343.50   16.06
   3  16  10  378.11   15.19
  -3  16 -11   29.01    4.60
   3  16  11   27.25    3.55
   3  16  11   31.81    4.23
   3  16  12   23.01    3.30
   3  16  12   23.06    3.77
   3  16  13   41.70    4.73
   3  16  13   36.04    4.05
   3  16  14  357.98   14.33
   3  16  14  327.51   12.94
   3  16  15    1.07    1.51
   3  16  16   71.40    5.55
   3  16  17   20.11    3.04
   3  16  17   24.24    3.42
   3  16  18  214.08   10.01
  -3  17   8   10.67    3.34
  -3  17   7  178.13   11.22
  -3  17   6    1.65    2.37
  -3  17   5   42.17    5.82
  -3  17   4    1.97    2.45
  -3  17   3   14.08    4.62
  -3  17   3   26.25    4.98
   3  17  -1  249.61   14.92
   3  17   0   14.85    4.55
  -3  17   0    8.32    3.47
   3  17   1  236.63   14.30
  -3  17  -1  289.08   15.39
   3  17   2    6.86    3.72
   3  17   2    2.88    1.71
  -3  17  -2    8.18    3.38
   3  17   3   16.63    4.41
  -3  17  -3   15.72    4.70
  -3  17  -3   23.93    4.64
   3  17   3   17.01    2.93
  -3  17  -4    0.71    3.22
   3  17   4    4.70    3.28
   3  17   4    0.13    1.51
  -3  17  -4    1.71    2.42
  -3  17  -5   42.75    6.44
  -3  17  -5   39.99    5.70
   3  17   5   40.61    4.32
  -3  17  -6    5.96    4.00
  -3  17  -6    0.41    2.30
   3  17   6    0.65    1.36
  -3  17  -7  154.43   11.39
  -3  17  -7  138.18    9.85
   3  17   7  139.10    8.18
  -3  17  -8   19.69    5.18
  -3  17  -8   15.73    3.82
   3  17   8   13.58    2.89
   3  17   9  158.29    8.84
   3  17  10    7.01    2.22
   3  17  11   31.95    3.96
   3  17  12    5.30    1.95
   3  17  13   81.43    5.97
   3  17  14   10.00    2.53
   3  17  15  170.93    8.62
  -3  18   7   19.48    4.36
  -3  18   6  217.46   12.84
  -3  18   5   21.41    4.63
  -3  18   4    1.30    2.85
  -3  18   3   32.11    5.44
  -3  18   3   33.04    4.99
  -3  18   2  201.13   12.76
  -3  18   0    5.54    2.91
  -3  18  -1   51.05    6.05
  -3  18  -2  231.89   12.70
  -3  18  -3   35.41    5.93
  -3  18  -3   35.54    5.06
  -3  18  -4    8.40    4.11
  -3  18  -5   43.09    6.35
  -3  18  -6  273.19   14.59
   3  18   6  237.94   10.12
  -3  18  -7   27.39    5.24
   3  18   7   21.42    3.06
   3  18   8    7.13    2.04
   3  18   9   20.80    3.02
   3  18  10  146.73    7.67
  -3  19   5   32.96    4.73
  -3  19   4   -0.35    2.72
  -3  19   3   18.48    4.07
  -3  19   2   12.21    3.50
  -3  19  -3   20.26    4.41
  -3  19  -4    7.35    3.47
  -4   0   0  302.86   10.48
  -4   0   0  275.45    9.20
  -4   0   1   61.53    3.78
  -4   0  -1   62.70    4.21
  -4   0  -1   54.88    3.56
  -4   0   1   61.01    4.19
  -4   0  -2 2985.81   59.47
  -4   0   2 2963.21   60.67
  -4   0  -2 3074.28   61.95
  -4   0  -3  252.25    7.83
  -4   0  -3  259.38    9.33
  -4   0  -4 7378.35  148.94
  -4   0  -4 8331.60  151.93
  -4   0  -5   98.28    4.55
   4   0   5  104.60    5.49
  -4   0  -5  101.47    5.59
  -4   0  -6  167.93    6.37
   4   0   6  160.22    7.17
  -4   0  -7    5.95    1.26
   4   0   7    5.52    1.45
  -4   0  -8 1232.24   28.92
   4   0   8 1322.05   30.74
  -4   0  -9   20.41    2.32
   4   0   9   14.12    2.02
   4   0   9   16.09    2.37
   4   0  10 1181.32   29.28
  -4   0 -10 1268.97   29.31
   4   0  11   75.20    5.09
  -4   0 -11   83.22    5.13
  -4   0  12 7313.09  130.67
  -4   0 -12 6767.53  133.57
   4   0  13  170.26    8.71
   4   0 -13  150.91    8.89
   4   0  14  126.46    7.19
   4   0  14  113.24    7.20
   4   0 -14  127.82    8.40
   4   0  15   35.86    3.78
   4   0 -15   28.51    4.18
  -4   0 -16  240.71   11.03
   4   0 -16  251.59   13.36
  -4   0 -17   24.88    3.63
   4   0 -17   22.72    4.25
   4   0  17   16.08    2.80
  -4   0 -18 1955.01   46.53
   4   0 -18 1966.04   51.24
  -4   0 -19  151.69   10.04
   4   0 -19  139.57   11.11
  -4   0 -20 2593.77   63.02
   4   0 -20 2565.25   67.55
  -4   0 -21   88.22    8.18
   4   0 -21   88.41    9.48
  -4   0 -22  689.13   26.03
   4   0 -22  731.16   30.07
  -4   0 -23   37.21    5.76
   4   0 -23   29.13    6.01
  -4   0 -24   10.07    3.70
   4   0 -24   16.19    5.02
  -4   0 -25   28.73    5.57
   4   0 -25   36.58    6.93
  -4   0 -26 1799.08   51.98
   4   0 -26 1794.81   56.52
  -4   0 -27   85.76    9.01
   4   0 -27   79.08   10.07
  -4   0 -28 1100.92   36.46
   4   0 -28 1087.83   39.94
  -4   0 -29  103.62    9.54
   4   0 -29  107.47   11.07
  -4   0 -30    4.78    3.02
   4   0 -30    3.35    3.58
  -4   0 -31    1.11    2.73
   4   0 -31    2.73    3.10
  -4   0 -32    3.26    2.67
   4   0 -32    1.48    2.70
  -4  -1 -32    7.38    3.16
   4   1 -32    8.54    3.69
  -4  -1 -31    8.38    3.59
   4   1 -31   13.38    4.58
  -4  -1 -30   11.98    3.94
   4   1 -30   18.31    5.37
   4   1 -29  563.69   26.66
  -4  -1 -29  556.52   23.64
   4   1 -28  208.15   16.00
  -4  -1 -28  207.77   13.96
   4   1 -27    4.62    4.18
  -4  -1 -27    7.25    3.62
  -4  -1 -26   93.14    9.64
   4   1 -26  110.15   11.81
  -4  -1 -25  554.47   23.86
   4   1 -25  588.89   28.04
  -4  -1 -24   77.12    8.21
   4   1 -24   84.33   10.18
   4   1 -23   87.23   10.07
  -4  -1 -23   54.78    6.90
  -4  -1 -22  107.91    9.59
   4   1 -22  105.53   11.08
  -4  -1 -21  461.47   20.03
   4   1 -21  493.06   23.85
  -4  -1 -20  140.22   10.04
   4   1 -20  157.48   12.37
   4   1 -19   22.37    4.72
   4   1 -18   35.12    5.70
   4   1 -17  683.72   25.36
   4   1 -16  174.41   11.09
   4  -1  15  439.53   16.04
   4   1 -15  515.95   19.49
  -4  -1 -14  285.11   11.75
   4   1 -14  254.02   12.67
   4  -1  14  256.53   10.13
   4  -1  13  598.76   18.76
   4  -1  13  637.85   18.36
   4   1 -13  633.13   21.40
   4  -1  12   72.12    5.03
   4   1 -12   66.49    5.77
  -4  -1 -12   79.14    5.42
   4  -1  11  314.98   11.46
  -4  -1 -11  341.66   12.19
   4   1 -11  298.33   12.94
   4  -1  10    8.44    1.59
   4   1 -10    8.08    1.98
  -4   1  10    6.56    1.45
   4  -1   9  770.73   19.03
  -4  -1  -9  777.39   19.89
  -4  -1  -8  155.42    6.86
  -4  -1  -7 1604.25   35.57
  -4  -1  -6  208.06    7.77
  -4  -1  -5 1035.14   24.86
  -4  -1  -5 1145.75   26.87
  -4  -1  -4  479.88   13.33
  -4  -1  -4  512.56   14.78
   4  -1   4  469.97   14.23
  -4  -1  -3 1026.42   23.51
  -4  -1  -3 1094.30   25.34
  -4  -1  -2   64.07    3.78
  -4  -1  -2   56.27    3.59
  -4  -1  -2   66.45    4.39
  -4   1   1  224.68    8.18
  -4  -1  -1  230.08    8.15
  -4  -1   0   20.83    2.18
  -4   1   0   22.25    2.21
  -4  -1   0   15.60    2.18
  -4   1  -1  215.75    7.90
  -4  -1   1  226.44    8.07
  -4   1  -2   77.75    3.56
  -4  -1   2   76.84    4.79
   4   1   3  872.45   22.51
  -4  -1   3  898.41   23.15
  -4   1  -4  446.21   11.20
   4   1   4  411.45   12.74
  -4   1  -5  987.15   21.86
   4   1   5  968.43   23.96
  -4   1  -6  248.87    7.79
   4   1   6  244.84    9.12
  -4   1  -7 1620.74   34.86
   4   1   7 1645.04   37.09
  -4   1  -8  136.01    5.78
   4   1   8  134.36    6.70
  -4   1  -9  715.52   18.96
  -4   1  -9  675.55   17.77
   4   1   9  757.31   20.12
   4   1   9  726.86   20.22
  -4   1 -10    9.64    1.69
  -4   1 -10    6.61    1.40
   4   1  10    8.45    1.77
  -4   1 -11  336.72   11.27
   4   1  11  330.07   12.62
  -4   1 -11  355.10   11.47
   4   1  12  113.44    6.91
  -4   1 -12  119.88    6.21
   4   1  13  611.82   20.11
  -4   1 -13  652.10   18.67
   4   1  13  662.62   18.12
   4   1  14  197.09   10.15
  -4   1 -14  211.20    9.40
   4   1  14  211.47   10.03
   4   1  15  505.70   17.51
  -4   1 -15  539.15   17.39
  -4   1 -16  157.48    8.66
   4   1  16  160.99    8.86
  -4   1 -17  682.07   21.45
   4   1  17  630.35   20.76
  -4   1 -18   43.33    4.90
   4  -1 -18   39.82    5.68
   4   1  18   37.30    4.35
  -4   1 -19    7.06    2.71
   4   1  19    6.27    2.15
   4  -1 -20  150.65   11.93
  -4   1 -20  147.65   10.02
   4   1  20  129.46    8.31
  -4   1 -21  484.66   19.64
   4  -1 -21  447.27   21.96
   4  -1 -22  116.73   11.16
  -4   1 -22  106.06    9.41
   4  -1 -23   49.65    7.57
  -4   1 -23   55.21    7.00
   4  -1 -24   78.27    9.63
  -4   1 -24   75.38    8.27
   4  -1 -25  533.49   26.29
  -4   1 -25  532.31   23.43
   4  -1 -26  118.46   12.20
  -4   1 -26  113.23   10.53
   4  -1 -27    6.33    4.14
  -4   1 -27    6.27    3.24
   4  -1 -28  216.34   15.82
  -4   1 -28  190.48   13.37
  -4   1 -29  561.92   23.97
   4  -1 -29  577.08   26.44
   4  -1 -30   11.03    4.64
  -4   1 -30   10.72    3.95
   4  -1 -31    7.00    3.63
  -4   1 -31    9.22    3.68
  -4   1 -32   11.73    3.61
   4  -1 -32   12.73    3.91
  -4  -2 -32   -0.20    2.39
   4   2 -32    3.50    2.98
  -4  -2 -31    2.63    2.69
   4   2 -31    3.69    3.52
  -4  -2 -30   13.74    4.01
   4   2 -30   11.95    4.62
   4   2 -29  220.47   16.16
  -4  -2 -29  237.36   14.75
   4   2 -28 1141.18   41.93
  -4  -2 -28 1152.42   37.62
   4   2 -27   60.82    9.07
  -4  -2 -27   62.01    7.66
   4   2 -26 1777.35   56.19
  -4  -2 -26 1707.20   49.48
   4   2 -25  568.55   27.76
  -4  -2 -25  553.98   23.84
  -4  -2 -24   94.27    9.26
   4   2 -24  109.02   11.52
  -4  -2 -23   95.86    9.10
   4   2 -23   99.77   10.80
  -4  -2 -22  367.62   17.85
   4   2 -22  381.89   21.27
   4   2 -21  329.72   19.00
   4   2 -20 2065.11   58.18
   4   2 -19  119.41   10.52
   4   2 -18 1476.86   44.27
   4   2 -17  420.69   19.55
   4   2 -16  196.67   12.37
   4   2 -15    9.54    2.98
   4  -2  14  230.19   10.08
   4   2 -14  275.47   13.72
   4  -2  13  541.17   16.65
  -4  -2 -13  570.43   18.08
   4   2 -13  577.01   20.57
   4  -2  12 6267.78  130.43
  -4  -2 -12 6492.24  132.69
  -4   2  12 6041.33  133.35
   4   2 -12 6052.83  135.31
   4  -2  11  140.96    6.61
  -4  -2 -11  142.31    7.54
   4   2 -11  132.18    8.29
   4   2 -10 1818.14   47.84
   4  -2  10 1968.02   44.34
  -4   2   9   54.89    3.86
  -4  -2  -9   44.90    3.78
   4   2  -9   43.06    4.14
  -4  -2  -8 1099.16   27.12
   4  -2   8 1030.86   27.52
  -4  -2  -7    8.11    1.62
   4  -2   7    4.74    1.42
  -4   2   7    7.02    1.47
  -4   2   6   83.98    4.81
  -4  -2  -6   83.84    4.85
   4  -2   6   77.77    5.01
  -4   2   5  781.63   20.29
  -4  -2  -5  814.76   20.66
   4  -2   5  781.11   21.14
  -4  -2  -4 6453.95  126.45
  -4  -2  -4 6690.39  127.60
  -4  -2  -3  198.48    7.76
   4  -2   3  197.65    8.14
  -4   2   3  196.24    7.50
  -4   2   3  179.77    7.42
  -4  -2  -2 2058.85   40.74
  -4   2   2 1807.77   39.63
   4  -2   2 1741.15   40.60
  -4  -2  -2 1780.88   39.20
  -4  -2  -2 2025.26   41.55
  -4   2   2 1718.60   39.96
  -4  -2  -1  427.63   12.35
  -4   2   1  409.29   12.90
  -4   2   0  629.89   17.55
  -4  -2   0  659.68   17.00
  -4  -2   1  427.67   12.37
  -4   2  -1  423.59   13.06
  -4  -2   1  447.18   13.79
  -4   2  -2 1864.56   37.69
  -4  -2   2 1851.51   41.63
  -4   2  -2 1910.33   40.99
  -4   2  -3  283.40    7.58
  -4  -2   3  278.97   10.21
  -4   2  -4 5914.14  121.72
  -4   2  -4 6177.35  118.57
   4   2   4 6023.57  121.84
  -4   2  -5  818.94   21.61
  -4   2  -5  897.27   19.40
   4   2   5  848.11   21.90
  -4   2  -6   14.63    2.08
   4   2   6   16.86    2.19
  -4   2  -7   17.03    2.24
  -4   2  -7   20.08    1.84
   4   2   7   18.53    2.29
  -4   2  -8  999.31   25.29
  -4   2  -8  955.56   23.42
  -4   2  -9   39.55    3.37
  -4   2  -9   40.28    2.92
  -4   2  -9   36.61    2.90
   4   2   9   32.29    3.34
   4   2   9   34.40    3.34
  -4   2 -10 1875.52   42.16
  -4   2 -10 1912.38   41.68
   4   2  10 1920.98   44.12
   4   2  10 1952.25   43.59
  -4   2 -11  164.10    7.39
   4   2  11  173.76    8.43
  -4   2 -11  187.27    7.68
   4   2  11  170.07    8.65
   4   2  12 6080.59  126.41
  -4   2 -12 6292.31  123.43
   4   2  13  466.81   17.17
  -4   2 -13  517.20   15.77
   4   2  14  279.53   12.25
  -4   2 -14  292.40   11.40
   4   2  14  288.00   11.20
  -4   2 -15    8.68    2.16
   4   2  15    7.80    2.23
   4   2  15   13.70    2.40
  -4   2 -16  206.27   10.01
   4   2  16  184.14    9.92
  -4   2 -17  428.69   16.08
   4   2  17  389.85   15.80
  -4   2 -18 1471.17   37.69
   4   2  18 1284.55   36.22
  -4   2 -19  138.02    9.29
   4   2  19  121.90    8.34
  -4   2 -20 2045.04   49.75
   4   2  20 1738.72   46.27
   4  -2 -21  312.65   17.44
  -4   2 -21  311.44   15.43
   4  -2 -22  361.81   19.80
  -4   2 -22  392.47   18.07
   4  -2 -23   91.52   10.15
  -4   2 -23   86.30    8.40
   4   2  23   68.20    6.47
   4  -2 -24  110.70   11.18
  -4   2 -24   96.79    9.14
   4  -2 -25  606.04   27.58
  -4   2 -25  596.93   24.85
   4  -2 -26 1714.54   53.00
  -4   2 -26 1683.17   49.30
  -4   2 -27   80.42    8.73
   4  -2 -27   80.18    9.70
  -4   2 -28 1110.60   37.18
   4  -2 -28 1188.93   41.49
  -4   2 -29  228.35   14.48
   4  -2 -29  241.80   16.16
   4  -2 -30    7.30    3.69
  -4   2 -30    7.95    3.51
   4  -2 -31    3.54    3.14
  -4   2 -31    2.23    2.54
   4  -2 -32    3.92    3.05
  -4   2 -32    4.65    2.77
  -4  -3 -32   64.49    6.85
  -4  -3 -31   12.07    3.87
   4   3 -31    6.61    3.68
   4   3 -30   35.20    6.74
  -4  -3 -30   34.19    5.70
   4   3 -29  200.85   15.46
  -4  -3 -29  207.35   13.49
   4   3 -28  242.04   17.31
  -4  -3 -28  224.37   14.26
  -4  -3 -27    6.32    3.63
   4   3 -27    6.22    4.50
  -4  -3 -26   38.41    6.54
   4   3 -26   32.89    7.31
   4   3 -25  398.40   22.99
  -4  -3 -25  416.62   20.17
   4   3 -24  190.30   15.57
  -4  -3 -24  303.93   16.82
   4   3 -23  252.06   17.38
   4   3 -22  156.62   13.45
   4   3 -21 1052.15   37.88
   4   3 -20  667.81   27.91
   4   3 -19   34.85    6.04
   4   3 -18   47.69    6.67
   4   3 -17  649.18   25.35
   4   3 -16  750.49   27.01
   4   3 -15   60.51    6.53
   4   3 -14   99.43    8.10
   4   3 -13 1060.80   31.70
  -4   3  12  308.08   10.39
   4  -3  12  270.28    9.83
  -4  -3 -12  298.01   12.17
  -4   3  12  244.43   11.46
   4   3 -12  273.45   13.25
  -4   3  11  436.10   13.23
   4   3 -11  355.75   15.14
  -4  -3 -11  405.64   14.35
  -4   3  11  342.46   13.68
   4  -3  11  378.87   11.63
   4   3 -10   73.83    6.12
  -4   3  10   78.37    5.62
  -4  -3 -10   84.27    5.69
  -4   3   9  612.23   16.62
   4   3  -9  462.49   17.09
  -4   3   9  510.80   16.44
  -4  -3  -9  549.06   16.90
   4  -3   9  541.20   17.34
  -4   3   8 1086.63   25.19
   4   3  -8  839.43   25.22
  -4  -3  -8 1000.85   25.21
  -4   3   8  929.82   24.60
   4  -3   8  943.69   25.39
  -4   3   7   63.01    4.44
  -4  -3  -7   63.57    4.56
   4  -3   7   58.77    4.56
  -4   3   6   44.84    3.69
  -4  -3  -6   37.78    3.43
   4  -3   6   39.27    3.63
  -4   3   5  727.80   19.49
  -4  -3  -5  697.52   19.32
   4  -3   5  708.06   19.74
  -4  -3  -5  747.65   19.98
  -4   3   4 2072.33   44.77
  -4  -3  -4 1939.87   44.08
  -4  -3  -4 2133.40   44.96
   4  -3   4 1964.28   44.81
  -4   3   4 1997.69   43.31
  -4   3   3  361.27   12.04
  -4  -3  -3  342.72   11.51
  -4  -3  -3  382.82   12.34
   4  -3   3  329.89   11.79
  -4   3   3  355.89   10.98
  -4   3   2   41.67    3.50
   4  -3   2   39.98    3.53
  -4  -3  -2   43.70    3.55
  -4   3   2   39.62    3.03
  -4   3   2   36.10    3.01
  -4  -3  -1   89.78    5.29
  -4   3   1   76.12    4.51
  -4   3   1   80.77    4.41
  -4  -3  -1   86.62    4.40
  -4   3   0  881.43   22.40
  -4  -3   0  886.87   21.10
  -4   3   0  842.83   21.07
  -4   3   0  855.70   21.67
  -4  -3   0  912.88   22.87
  -4   3  -1   95.44    5.40
  -4  -3   1   95.68    5.45
  -4  -3   1   96.11    4.81
  -4   3  -1   96.13    5.12
  -4   3  -2   45.22    3.64
  -4   3  -2   44.23    1.84
  -4  -3   2   47.61    3.73
  -4   3  -2   46.66    3.42
  -4   3  -3  354.10   11.57
  -4   3  -3  317.78    7.47
  -4   3  -3  345.28   11.04
  -4   3  -4 1914.68   43.74
  -4   3  -4 2012.51   38.91
  -4   3  -4 1979.67   43.38
  -4   3  -5  675.67   18.89
  -4   3  -5  707.97   14.90
   4   3   5  652.06   18.20
  -4   3  -5  742.56   19.17
  -4   3  -6   57.10    4.24
   4   3   6   61.52    4.17
  -4   3  -7   14.73    2.29
   4   3   7   16.18    2.24
  -4   3  -8  981.35   24.44
  -4   3  -8  913.09   22.40
   4   3   8  968.31   24.23
  -4   3  -9  564.77   16.55
  -4   3  -9  542.93   15.30
   4   3   9  581.77   16.89
  -4   3 -10   77.31    4.97
   4   3  10   75.86    5.63
  -4   3 -10   75.21    4.57
   4   3  10   81.55    5.32
  -4   3 -11  341.99   11.94
   4   3  11  386.53   13.20
   4   3  11  352.17   13.87
  -4   3 -11  351.31   11.76
   4   3  12  326.06   12.41
  -4   3 -12  322.08   11.39
   4   3  12  298.53   12.96
   4   3  13  972.38   26.79
  -4   3 -13  997.99   25.76
   4   3  14   86.28    6.55
  -4   3 -14   83.68    5.74
   4   3  14   87.00    6.05
  -4   3 -15   53.95    4.75
   4   3  15   54.56    5.31
   4   3  15   49.02    4.58
  -4   3 -16  747.62   22.10
   4   3  16  719.45   21.43
   4   3  16  671.70   22.70
   4   3  17  581.02   18.82
   4   3  17  557.22   20.47
  -4   3 -18   52.08    5.37
   4   3  18   51.16    5.55
  -4   3 -19   25.75    4.16
   4   3  19   31.05    4.39
  -4   3 -20  633.77   22.31
   4   3  20  560.46   21.23
  -4   3 -21 1060.20   31.86
   4   3  21  922.63   29.83
  -4   3 -22  108.33    9.07
   4   3  22   88.41    7.71
  -4   3 -23  231.75   13.90
   4  -3 -23  248.39   16.07
   4   3  23  209.06   12.07
  -4   3 -24  170.42   12.08
   4  -3 -24  179.27   13.94
  -4   3 -25  339.85   17.89
   4  -3 -25  382.19   20.94
  -4   3 -26   44.19    6.70
   4  -3 -26   45.35    7.56
   4  -3 -27   13.69    4.70
  -4   3 -27    7.68    3.92
  -4   3 -28  234.46   14.94
   4  -3 -28  232.35   15.91
  -4   3 -29  208.92   13.69
   4  -3 -29  222.15   15.30
  -4   3 -30   44.47    6.38
   4  -3 -30   33.77    6.14
   4  -3 -31    9.05    3.72
  -4   3 -31    7.95    3.27
  -4   3 -32   61.38    6.66
  -4  -4 -32   18.44    4.74
  -4  -4 -31    8.64    3.41
   4   4 -31    3.98    3.26
   4   4 -30   60.25    8.24
  -4  -4 -30   58.08    7.19
   4   4 -29  291.37   18.41
  -4  -4 -29  303.74   16.31
   4   4 -28  756.69   32.56
  -4  -4 -28  751.20   28.21
   4   4 -27   63.66    9.29
  -4  -4 -27   74.01    8.39
   4   4 -26  851.87   35.39
  -4  -4 -26  808.05   30.13
   4   4 -25  528.72   26.84
  -4  -4 -25  496.31   22.14
   4   4 -24  114.01   12.00
   4   4 -23  261.30   17.87
   4   4 -22  314.81   19.42
   4   4 -21  493.81   24.42
   4   4 -20 1856.16   54.77
   4   4 -19  202.92   14.24
   4   4 -18 2035.26   56.53
   4   4 -17 1003.71   34.10
   4   4 -16   41.06    5.93
   4   4 -15   86.03    8.16
   4   4 -14  270.64   14.47
  -4   4  13  632.00   17.63
   4   4 -13  672.36   23.93
  -4   4  12 2228.40   46.43
  -4   4  12 2079.94   46.52
   4   4 -12 2176.94   53.20
  -4   4  11  680.60   18.46
  -4   4  11  639.68   18.23
  -4  -4 -11  675.04   20.69
   4   4 -11  645.18   22.43
  -4   4  11  605.03   19.61
  -4   4  10  999.57   25.38
  -4   4  10 1117.47   26.54
   4   4 -10  962.91   29.28
  -4   4  10  949.46   26.74
  -4  -4 -10 1094.42   28.17
  -4   4   9  495.39   14.91
  -4   4   9  574.06   16.65
   4   4  -9  446.78   17.22
  -4   4   9  469.21   15.54
  -4  -4  -9  531.15   16.98
   4  -4   9  519.92   17.22
  -4   4   8  127.12    6.76
  -4   4   8  107.37    5.69
   4   4  -8  101.03    6.82
  -4  -4  -8  119.05    6.83
  -4   4   8  102.24    5.87
   4  -4   8  108.27    6.68
  -4   4   7  456.34   14.29
  -4   4   7  398.03   12.80
  -4  -4  -7  421.99   14.22
   4  -4   7  434.52   14.53
  -4   4   6  274.58   10.39
  -4   4   6  226.81    8.53
   4  -4   6  230.24    9.71
  -4  -4  -6  263.14   10.11
  -4   4   5  738.24   19.41
  -4   4   5  833.46   21.73
  -4   4   5  734.45   18.96
  -4   4   5  787.64   19.78
   4  -4   5  738.52   21.12
  -4  -4  -5  812.43   21.09
  -4   4   4 5972.75  122.82
  -4   4   4 6434.96  124.23
   4  -4   4 6087.06  126.21
  -4  -4  -4 6490.23  126.25
  -4   4   3  685.89   16.74
   4  -4   3  674.10   19.59
  -4   4   3  704.08   18.11
  -4  -4  -3  724.68   19.43
  -4   4   2  361.99    9.58
  -4  -4  -2  402.30   12.66
  -4   4   2  374.90   11.26
  -4   4   2  332.49   10.97
  -4   4   1 1298.52   26.66
  -4  -4  -1 1350.73   31.44
  -4  -4  -1 1393.70   31.18
  -4  -4  -1 1300.85   28.82
  -4   4   1 1269.04   29.23
  -4   4   1 1194.73   29.30
  -4   4   0   49.15    4.05
  -4   4   0   43.83    1.89
  -4  -4   0   44.50    3.08
  -4  -4   0   45.86    3.70
  -4   4   0   42.74    3.27
  -4   4  -1 1252.74   29.77
  -4  -4   1 1321.51   29.51
  -4  -4   1 1287.28   30.83
  -4   4  -2  382.17   11.86
  -4  -4   2  352.93   12.13
  -4   4  -3  711.24   19.64
  -4   4  -3  673.11   17.92
  -4   4  -4 6413.40  129.06
  -4   4  -4 6523.24  127.74
  -4   4  -5  750.19   20.92
  -4   4  -5  776.61   20.06
  -4   4  -6  185.23    8.32
  -4   4  -6  163.71    6.65
  -4   4  -6  175.63    7.72
  -4   4  -7  449.00   14.76
  -4   4  -7  463.97   13.30
   4   4   7  462.63   14.08
  -4   4  -7  465.21   13.33
  -4   4  -8  106.27    6.26
  -4   4  -8  114.35    5.69
   4   4   8  117.73    6.21
  -4   4  -8  104.05    5.34
  -4   4  -9  515.94   16.18
  -4   4  -9  519.79   15.14
   4   4   9  541.34   16.14
  -4   4  -9  501.90   14.75
  -4   4 -10 1061.23   26.01
   4   4  10 1142.06   27.30
  -4   4 -11  602.92   17.32
   4   4  11  584.76   19.49
   4   4  11  625.41   18.12
   4   4  12 2192.65   46.94
  -4   4 -12 2194.59   45.91
   4   4  13  613.43   19.02
  -4   4 -13  626.82   18.59
   4   4  13  607.78   20.29
   4   4  13  581.30   19.00
   4   4  14  279.54   11.82
  -4   4 -14  278.72   11.50
   4   4  14  280.56   12.84
   4   4  14  273.89   11.91
  -4   4 -15   82.58    6.01
   4   4  15   81.39    6.70
   4   4  15   77.97    6.02
  -4   4 -16   26.77    3.59
   4   4  16   24.89    3.54
   4   4  16   28.14    4.13
  -4   4 -17  983.99   28.01
   4   4  17  943.39   27.36
   4   4  17  929.19   28.92
   4   4  18 1791.36   47.40
   4   4  18 1819.56   45.31
  -4   4 -19  207.64   11.47
   4   4  19  198.32   10.37
   4   4  19  182.66   11.17
  -4   4 -20 1763.42   45.44
   4   4  20 1642.58   44.95
  -4   4 -21  446.41   18.78
   4   4  21  409.28   18.03
  -4   4 -22  308.16   15.61
   4   4  22  276.15   14.50
  -4   4 -23  242.20   14.14
   4   4  23  218.29   12.79
  -4   4 -24  118.04   10.05
   4   4  24   91.72    8.23
  -4   4 -25  477.08   21.55
   4  -4 -25  484.88   23.57
  -4   4 -26  774.15   28.64
   4  -4 -26  787.51   31.13
  -4   4 -27   81.82    8.64
   4  -4 -27   73.85    8.88
  -4   4 -28  733.50   28.22
   4  -4 -28  762.63   30.03
  -4   4 -29  313.54   16.90
   4  -4 -29  309.37   17.72
  -4   4 -30   64.37    7.18
   4  -4 -30   67.19    7.99
   4  -4 -31    4.70    3.00
  -4   4 -31    6.86    2.83
  -4   4 -32   17.73    4.04
  -4  -5 -31    4.51    3.24
   4   5 -31    2.28    2.91
  -4  -5 -31    2.89    2.88
   4   5 -30   87.19    9.55
  -4  -5 -30   93.10    8.73
   4   5 -29  132.10   12.06
  -4  -5 -29  118.37    9.99
   4   5 -28  200.79   15.42
  -4  -5 -28  210.37   13.70
  -4  -5 -27   22.43    5.07
   4   5 -27   19.21    5.63
   4   5 -26  100.96   11.30
  -4  -5 -26  110.01    9.92
   4   5 -25  206.17   16.20
   4   5 -24  264.43   18.44
   4   5 -23  141.14   13.12
   4   5 -22  137.44   12.81
   4   5 -21  271.22   17.81
   4   5 -20  514.55   24.93
   4   5 -19  171.12   13.33
   4   5 -18  182.17   13.52
   4   5 -17  117.75   10.47
   4   5 -16  403.82   19.91
  -4   5  15  257.66   11.00
   4   5 -15  312.06   16.50
  -4   5  14   61.22    4.83
   4   5 -14   62.85    7.04
  -4   5  13  378.18   13.25
  -4   5  13  365.21   12.61
   4   5 -13  378.88   17.72
  -4   5  12  341.75   11.99
  -4   5  12  340.17   12.22
  -4   5  12  298.56   12.98
   4   5 -12  324.83   15.82
  -4   5  11  325.30   11.86
  -4   5  11  315.28   11.55
  -4   5  11  292.97   12.29
   4   5 -11  308.83   14.71
  -4   5  10   82.24    5.28
  -4   5  10   93.80    5.83
  -4   5  10   80.21    5.65
   4   5 -10   76.11    6.71
   4  -5  10   91.89    6.86
  -4   5   9  209.29    9.11
  -4   5   9  198.97    8.91
   4  -5   9  206.90   10.16
  -4   5   8  264.71   10.41
  -4   5   8  243.90    9.63
   4  -5   8  248.91   10.99
  -4   5   7   40.25    3.89
  -4   5   7   35.82    3.18
   4   5  -7   28.91    3.72
  -4   5   7   44.66    3.56
   4  -5   7   38.38    3.95
  -4  -5  -7   48.68    4.27
  -4   5   6   15.20    2.53
  -4   5   6   14.68    2.10
  -4   5   6   14.67    1.96
   4   5  -6   15.77    2.55
  -4   5   6   16.09    2.11
   4  -5   6   17.35    2.63
  -4  -5  -6   16.25    2.45
  -4   5   5  745.69   19.81
  -4   5   5  737.04   18.75
  -4  -5  -5  750.46   21.78
   4  -5   5  747.49   21.79
  -4   5   5  792.13   19.93
  -4  -5  -5  787.67   21.40
  -4   5   4 1609.87   36.96
  -4   5   4 1503.23   33.86
  -4   5   4 1452.55   32.08
  -4  -5  -4 1541.87   36.37
  -4   5   4 1486.04   33.50
  -4  -5  -4 1495.72   35.02
   4  -5   4 1461.66   35.96
  -4   5   3  936.34   24.73
  -4   5   3  897.11   22.00
  -4  -5  -3  897.50   24.18
  -4   5   3  868.95   19.92
  -4   5   3  900.94   21.92
  -4  -5  -3  899.54   23.16
   4  -5   3  845.88   23.87
  -4   5   2  478.64   14.04
  -4  -5  -2  501.56   16.15
  -4   5   2  542.96   12.20
  -4  -5  -2  488.23   15.08
  -4   5   2  522.81   14.37
   4   5  -2  476.59   14.83
  -4  -5  -1  657.61   19.10
  -4   5   1  651.24   13.48
  -4  -5  -1  632.37   17.70
  -4  -5  -1  604.20   15.67
  -4   5   0 1917.35   43.77
  -4  -5   0 1959.89   43.01
  -4  -5   1  625.10   16.34
  -4   5  -1  608.08   16.69
  -4  -5   1  609.30   17.41
  -4  -5   2  470.20   13.43
  -4   5  -2  437.73   13.34
  -4   5  -3  928.74   24.52
  -4   5  -3  864.83   21.91
  -4   5  -4 1551.58   35.99
  -4   5  -4 1411.68   32.90
  -4   5  -5  755.91   21.77
  -4   5  -5  780.76   19.63
  -4   5  -5  743.08   19.82
  -4   5  -6   24.39    3.07
  -4   5  -6   31.63    2.90
  -4   5  -6   24.92    2.68
  -4   5  -7   27.96    3.22
  -4   5  -7   27.61    2.79
  -4   5  -7   28.72    3.07
  -4   5  -7   27.19    2.84
  -4   5  -8  201.10    9.13
  -4   5  -8  229.22    8.91
  -4   5  -8  214.97    8.80
   4   5   8  236.37    9.16
  -4   5  -8  234.13    9.57
  -4   5  -9  184.68    8.61
  -4   5  -9  198.64    8.44
   4   5   9  213.09    8.79
  -4   5  -9  201.00    8.52
  -4   5 -10   75.94    5.27
  -4   5 -10   85.59    5.42
   4   5  10   84.47    5.51
  -4   5 -10   84.90    5.44
  -4   5 -11  336.37   12.33
   4   5  11  352.70   12.60
   4   5  12  363.75   12.87
  -4   5 -12  365.55   12.94
   4   5  13  349.03   13.26
  -4   5 -13  375.60   13.78
   4   5  13  361.08   14.88
   4   5  13  347.44   14.03
  -4   5 -14   41.82    4.29
   4   5  14   44.26    4.99
   4   5  14   37.28    4.29
  -4   5 -15  329.14   13.33
   4   5  15  300.76   13.97
   4   5  15  304.92   13.26
  -4   5 -16  333.17   13.95
   4   5  16  327.79   13.90
   4   5  16  313.51   14.54
  -4   5 -17   72.43    6.40
   4   5  17   74.64    6.37
   4   5  17   76.56    6.97
  -4   5 -18  173.74   10.26
   4   5  18  171.82    9.90
   4   5  18  152.45   10.25
  -4   5 -19  172.17   10.59
   4   5  19  166.48    9.89
   4   5  19  165.41   10.68
  -4   5 -20  467.00   19.05
   4   5  20  448.56   17.35
   4   5  20  430.11   18.68
  -4   5 -21  266.75   14.10
   4   5  21  224.67   13.05
  -4   5 -22  132.32   10.02
   4   5  22  112.75    9.13
  -4   5 -23  160.24   11.32
   4   5  23  137.81   10.23
  -4   5 -24  241.31   14.42
   4   5  24  220.86   13.20
  -4   5 -25  194.99   13.04
   4   5  25  168.72   11.37
  -4   5 -26  120.10   10.33
   4  -5 -26  109.07   10.70
   4   5  26   98.24    8.44
   4  -5 -27   13.84    4.39
  -4   5 -27   13.57    4.37
   4   5  27   12.59    3.42
  -4   5 -28  212.98   13.57
   4  -5 -28  230.82   15.06
  -4   5 -29  130.26   10.39
   4  -5 -29  116.54   10.42
  -4   5 -30   87.44    8.17
   4  -5 -30   94.70    9.20
   4  -5 -31    5.00    3.11
  -4   5 -31    2.93    2.38
  -4   5 -31    4.28    2.77
   4   6 -30  171.00   12.91
  -4  -6 -30  192.85   12.11
   4   6 -29  442.07   22.13
  -4  -6 -29  468.80   20.33
   4   6 -28  616.07   27.86
  -4  -6 -28  667.72   26.01
   4   6 -27   69.62    9.41
  -4  -6 -27   74.81    8.19
   4   6 -26  850.00   34.59
   4   6 -25  641.77   29.42
   4   6 -24  219.83   16.41
   4   6 -23  110.06   11.55
   4   6 -22  128.07   12.34
   4   6 -21  807.56   33.13
   4   6 -20 1090.37   39.28
   4   6 -19  164.26   13.41
   4   6 -18  734.05   29.88
   4   6 -17 1374.51   43.82
  -4   6  16  140.30    8.03
   4   6 -16  160.61   12.18
  -4   6  15  116.00    7.22
   4   6 -15  128.28   10.65
  -4   6  14  196.07    8.65
  -4   6  14  195.00    9.40
   4   6 -14  217.03   13.63
  -4   6  13  811.66   22.16
  -4   6  13  765.13   22.19
   4   6 -13  742.99   27.41
  -4   6  12 1018.80   26.86
  -4   6  12 1041.56   27.09
   4   6 -12  987.05   32.32
  -4   6  11  641.67   19.03
   4   6 -11  550.49   21.84
  -4   6  11  564.64   18.71
  -4   6  11  608.96   18.15
   4   6 -10 1241.44   37.09
  -4   6  10 1311.37   33.23
  -4   6   9  993.86   26.18
   4  -6   9  970.89   27.81
  -4   6   9 1018.22   24.75
  -4  -6  -9 1022.82   26.87
  -4   6   8  250.72   10.64
  -4  -6  -8  234.97   10.32
   4  -6   8  218.08   10.70
  -4   6   8  251.91    9.35
  -4   6   8  228.82    9.21
  -4   6   7  261.52   11.02
  -4   6   7  277.92    9.83
   4  -6   7  241.59   11.02
  -4  -6  -7  271.06   10.82
  -4  -6  -7  253.49   11.55
  -4   6   7  237.55    9.12
  -4   6   7  260.80    9.95
  -4   6   6  217.68    9.90
   4  -6   6  216.97   10.21
  -4   6   6  231.73    8.70
  -4  -6  -6  226.76    9.70
  -4   6   6  210.80    8.06
  -4  -6  -6  236.35   10.82
  -4   6   6  205.24    8.70
  -4   6   5 1532.38   36.69
   4  -6   5 1471.72   37.00
  -4   6   5 1594.85   34.35
  -4  -6  -5 1464.60   35.29
  -4  -6  -5 1517.19   37.54
  -4   6   5 1435.82   32.68
  -4   6   5 1529.05   34.71
  -4   6   4 2642.08   57.47
   4  -6   4 2423.42   57.18
  -4  -6  -4 2534.14   55.75
  -4   6   4 2660.49   54.56
  -4  -6  -4 2614.53   58.16
  -4   6   4 2616.04   52.63
  -4   6   4 2563.68   54.87
  -4   6   3 1153.51   26.92
  -4   6   3 1123.88   29.13
  -4  -6  -3 1129.99   29.54
  -4   6   3 1111.16   23.99
  -4  -6  -3 1077.23   27.32
  -4   6   3 1144.88   26.47
   4   6  -3 1044.45   27.73
  -4   6   2 1068.66   24.91
  -4  -6  -2 1050.41   27.77
  -4   6   2 1017.36   21.14
   4   6  -2  980.60   25.47
  -4  -6  -2  997.95   25.37
  -4   6   1  179.34    7.22
  -4  -6  -1  172.45    8.77
  -4  -6  -1  162.25    7.41
   4   6  -1  167.39    7.46
  -4  -6   0   16.76    2.71
   4   6   0   15.81    2.13
  -4  -6   0   13.52    1.62
  -4   6   0   12.42    1.77
  -4   6  -1  162.44    8.26
  -4  -6   1  160.60    8.41
   4   6   1  158.40    6.77
  -4  -6   1  151.99    6.10
  -4   6  -1  151.83    6.49
  -4   6  -2  965.26   25.82
  -4   6  -2  933.03   23.00
  -4  -6   2  948.43   22.88
   4   6   2  987.97   23.25
  -4   6  -3 1099.07   28.76
  -4   6  -3 1113.15   26.08
  -4   6  -4 2492.61   55.17
  -4   6  -4 2480.65   52.36
  -4   6  -5 1511.97   36.20
  -4   6  -5 1473.01   33.51
  -4   6  -6  107.25    6.61
  -4   6  -6  107.34    5.73
  -4   6  -7  206.82    9.70
  -4   6  -7  231.33    9.31
  -4   6  -7  228.58    9.49
  -4   6  -7  217.88    8.82
  -4   6  -8  226.98   10.32
  -4   6  -8  267.14   10.31
  -4   6  -8  245.19    9.72
  -4   6  -8  257.34   10.32
  -4   6  -9  970.09   25.14
  -4   6  -9  997.63   25.65
  -4   6  -9  992.36   25.34
  -4   6 -10 1411.92   33.11
  -4   6 -10 1375.24   33.21
   4   6  11  673.40   18.50
  -4   6 -11  625.97   19.29
  -4   6 -11  619.51   18.83
  -4   6 -12 1070.30   27.22
   4   6  12 1017.84   29.02
   4   6  12 1024.05   28.29
   4   6  13  780.72   24.65
  -4   6 -13  854.35   23.41
   4   6  13  790.57   24.03
  -4   6 -14  223.98   10.68
   4   6  14  209.32   11.54
   4   6  14  220.03   11.25
  -4   6 -15  117.17    7.69
   4   6  15  104.06    8.00
   4   6  15   96.44    7.38
  -4   6 -16  159.35    9.45
   4   6  16  154.55    9.48
   4   6  16  156.07   10.15
  -4   6 -17 1354.30   36.43
   4   6  17 1312.68   36.21
   4   6  17 1294.28   37.43
  -4   6 -18  767.05   25.03
   4   6  18  730.87   24.38
   4   6  18  734.01   25.68
  -4   6 -19  162.13   10.41
   4   6  19  158.53    9.93
   4   6  19  144.36   10.22
  -4   6 -20  976.57   30.36
   4   6  20  918.99   28.61
   4   6  20  900.26   30.04
  -4   6 -21  731.94   25.81
   4   6  21  708.93   23.92
   4   6  21  703.67   25.61
  -4   6 -22  118.57    9.47
   4   6  22  116.49    8.52
   4   6  22  105.99    8.93
  -4   6 -23   98.21    8.69
   4   6  23   87.36    8.24
  -4   6 -24  195.98   12.69
   4   6  24  171.08   11.59
  -4   6 -25  586.28   23.71
   4   6  25  537.02   21.99
  -4   6 -26  784.03   28.17
   4  -6 -26  764.17   29.41
   4   6  26  705.54   25.82
  -4   6 -27   76.60    8.03
   4  -6 -27   72.38    8.48
   4   6  27   64.77    6.90
  -4   6 -28  566.53   22.82
   4  -6 -28  574.49   24.36
  -4   6 -29  435.10   19.04
   4  -6 -29  426.94   19.87
  -4   6 -30  183.93   11.55
   4  -6 -30  196.70   12.63
  -4   6 -30  161.09   10.77
  -4  -7 -30  170.98   11.31
   4   7 -29   37.42    6.64
  -4  -7 -29   49.26    6.72
   4   7 -28  164.08   13.35
  -4  -7 -28  180.27   12.34
   4   7 -27   10.10    4.54
  -4  -7 -27    9.43    3.45
   4   7 -26   89.49   10.15
   4   7 -25   61.75    8.52
   4   7 -24  312.68   19.58
   4   7 -23   45.95    7.59
   4   7 -22  154.79   13.57
   4   7 -21    8.45    3.80
   4   7 -20  281.16   18.17
   4   7 -19   33.80    6.14
   4   7 -18  196.35   14.60
  -4   7  17   55.70    5.23
   4   7 -17   69.98    8.47
  -4   7  16  135.10    8.12
   4   7 -16  149.64   12.10
  -4   7  15   22.78    3.41
   4   7 -15   30.68    5.62
  -4   7  14   27.41    3.58
   4   7 -14   32.46    5.57
  -4   7  14   27.16    3.35
  -4   7  13    6.57    2.05
  -4   7  13   10.91    2.37
   4   7 -13    8.19    3.02
  -4   7  12  907.47   25.42
   4   7 -12  876.55   30.88
  -4   7  12  913.69   24.98
  -4   7  11   69.69    5.63
   4   7 -11   57.59    6.67
  -4   7  11   69.58    4.83
  -4  -7 -11   64.89    5.73
  -4   7  10   19.78    3.20
  -4   7  10   22.60    2.77
  -4  -7 -10   22.97    3.33
  -4   7  10   17.48    2.71
   4   7 -10   16.72    3.62
  -4   7   9   59.68    5.22
  -4  -7  -9   60.29    5.08
  -4   7   9   62.48    4.43
  -4   7   9   48.86    4.16
   4   7  -9   50.71    5.89
  -4   7   9   56.12    4.63
  -4   7   8 1612.12   38.67
  -4   7   8 1626.09   35.56
   4  -7   8 1434.75   38.81
  -4  -7  -8 1518.98   37.51
  -4   7   8 1401.04   34.84
  -4   7   8 1566.07   36.51
  -4   7   7  109.95    7.14
   4  -7   7  112.58    7.62
  -4  -7  -7   93.46    6.25
  -4   7   7  109.15    5.77
  -4   7   7  102.33    5.54
  -4   7   7  107.45    6.25
  -4   7   6   65.58    5.47
  -4  -7  -6   69.11    4.93
  -4   7   6   69.19    4.48
   4  -7   6   67.41    5.75
  -4   7   6   64.05    4.01
  -4   7   6   66.33    4.76
  -4   7   5   23.96    3.43
   4  -7   5   18.13    3.03
  -4   7   5   24.88    2.64
  -4   7   5   18.77    2.02
  -4   7   5   21.88    2.74
  -4   7   4 1445.96   35.54
   4  -7   4 1346.94   35.19
   4   7  -4 1281.60   33.82
  -4   7   4 1356.35   29.37
  -4  -7  -4 1372.67   35.68
  -4   7   4 1436.33   32.64
  -4   7   3   41.70    4.31
   4   7  -3   37.21    3.81
  -4   7   3   33.81    2.04
  -4  -7  -3   34.60    4.12
  -4   7   3   38.08    3.37
   4   7  -2   11.64    2.27
  -4  -7  -2   18.29    3.04
  -4   7   2   11.80    1.95
  -4   7   1   65.28    4.29
  -4  -7  -1   57.58    5.18
   4   7  -1   64.40    4.71
  -4   7   0  622.30   19.62
  -4   7   0  641.66   16.99
  -4  -7   0  598.32   19.84
   4   7   0  604.61   17.74
  -4   7  -1   64.79    5.32
  -4  -7   1   58.61    5.22
  -4  -7   1   48.10    3.05
   4   7   1   71.27    4.65
  -4   7  -1   58.14    3.67
  -4  -7   2   10.80    2.39
   4   7   2   13.80    2.10
  -4   7  -2   12.81    1.77
  -4  -7   2   12.47    1.66
  -4   7  -3   31.96    3.76
  -4  -7   3   29.02    3.61
  -4  -7   3   29.00    2.64
  -4   7  -3   26.70    2.53
   4   7   3   25.54    2.79
  -4   7  -4 1320.94   33.45
  -4   7  -4 1268.62   29.33
  -4   7  -5   15.98    2.86
  -4   7  -5   27.50    2.66
  -4   7  -6   54.08    4.88
  -4   7  -6   52.63    3.71
  -4   7  -7  111.26    7.19
  -4   7  -7  130.27    7.38
  -4   7  -7  110.37    5.82
  -4   7  -8 1398.88   36.54
  -4   7  -8 1516.33   35.78
  -4   7  -8 1437.37   33.95
  -4   7  -8 1503.48   36.38
  -4   7  -9   63.83    5.46
  -4   7  -9   70.34    5.35
  -4   7  -9   64.82    5.35
  -4   7  -9   59.86    4.43
  -4   7 -10   42.48    4.20
  -4   7 -10   30.04    3.82
  -4   7 -10   33.51    3.46
  -4   7 -11   48.59    4.75
  -4   7 -11   55.46    5.18
  -4   7 -11   53.79    4.59
  -4   7 -11   59.51    5.10
   4   7  11   50.71    5.33
  -4   7 -12  894.58   25.74
  -4   7 -12  904.76   24.34
   4   7  12  843.29   26.41
  -4   7 -12  890.13   24.86
   4   7  12  821.05   25.63
   4   7  13    4.79    2.15
  -4   7 -13    3.51    1.59
  -4   7 -13    4.93    1.91
   4   7  13    4.72    2.14
  -4   7 -14   21.89    3.45
   4   7  14   21.33    3.88
   4   7  14   21.85    3.71
  -4   7 -15   34.47    4.47
   4   7  15   34.63    4.54
   4   7  15   36.88    4.98
  -4   7 -16  126.85    8.53
   4   7  16  144.89    9.34
   4   7  16  134.59    9.67
  -4   7 -17   56.45    5.77
   4   7  17   49.58    5.55
   4   7  17   56.74    6.33
  -4   7 -18  186.23   11.00
   4   7  18  194.97   11.29
   4   7  18  184.73   11.57
  -4   7 -19   20.97    4.02
   4   7  19   19.16    3.73
   4   7  19   27.07    4.70
  -4   7 -20  275.44   14.18
   4   7  20  284.26   14.04
   4   7  20  268.18   14.56
   4   7  21    6.98    2.54
  -4   7 -21   10.57    3.07
   4   7  21   11.64    3.59
  -4   7 -22  128.65    9.76
   4   7  22  127.63    9.86
   4   7  22  144.21    9.63
  -4   7 -23   48.41    6.13
   4   7  23   50.10    6.26
   4   7  23   46.32    5.54
  -4   7 -24  303.87   15.83
   4   7  24  266.29   14.67
  -4   7 -25   56.50    6.76
   4   7  25   46.09    6.04
  -4   7 -26  101.62    8.95
   4   7  26   86.36    7.91
  -4   7 -27    6.16    2.50
   4  -7 -27    7.95    3.74
  -4   7 -27    8.86    3.57
   4   7  27    6.83    2.84
   4  -7 -28  167.86   12.39
  -4   7 -28  165.33   11.40
   4   7  28  151.83   10.13
  -4   7 -29   30.49    5.15
   4  -7 -29   28.29    5.30
   4   7  29   29.72    4.56
  -4   7 -30  149.00   10.13
  -4  -8 -29  512.05   21.33
   4   8 -28  131.53   11.62
  -4  -8 -28  170.45   11.61
   4   8 -27    3.37    3.57
   4   8 -26  199.00   15.12
   4   8 -25  684.05   30.09
   4   8 -24  313.70   19.61
   4   8 -23   37.54    6.97
   4   8 -22  287.17   18.93
   4   8 -21  595.56   28.02
   4   8 -20  433.10   23.37
   4   8 -19  246.00   17.09
  -4   8  18  875.66   26.70
   4   8 -18 1054.08   37.55
  -4   8  17  952.34   27.98
   4   8 -17 1067.67   38.03
  -4   8  16  682.19   21.80
  -4  -8 -16  621.63   22.86
  -4   8  15  117.46    7.69
  -4  -8 -15   94.96    7.63
   4   8 -15  124.61   11.29
   4   8 -14   85.44    9.16
  -4   8  14   64.58    5.68
   4   8 -13  618.94   25.95
  -4   8  13  607.33   19.66
   4   8 -12    7.91    3.33
  -4   8  12   18.02    3.07
  -4   8  11  303.52   13.01
  -4   8  10  630.01   20.77
  -4   8  10  629.49   19.46
  -4   8   9 1192.21   32.35
  -4   8   9 1141.80   30.01
  -4   8   8  845.37   25.42
  -4   8   8  817.60   23.16
   4  -8   7  321.23   14.76
  -4   8   7  360.43   13.08
  -4   8   6 1160.36   31.43
  -4   8   6 1141.03   28.63
   4  -8   5 1116.27   32.11
   4   8  -5 1109.43   31.20
  -4   8   5 1170.02   29.19
   4   8  -4  349.62   14.02
  -4   8   4  380.92   15.13
  -4   8   4  377.70   12.85
   4   8  -3  215.73   10.14
  -4   8   3  225.17   11.17
  -4   8   3  221.66    9.14
   4   8  -2  804.36   23.36
  -4   8   2  870.00   22.14
   4   8  -1  302.06   11.82
  -4   8   1  292.91   10.51
   4   8   0  272.41   11.02
  -4   8   0  275.41   12.41
  -4   8   0  288.28   10.11
   4   8   1  312.71   11.77
  -4   8  -1  311.73   10.51
  -4   8  -1  308.45   13.30
   4   8   2  784.94   21.89
  -4   8  -2  822.07   24.53
   4   8   3  237.82    9.79
  -4   8  -3  236.20   11.35
  -4   8  -4  335.10   13.98
  -4   8  -5 1160.19   31.83
  -4   8  -6 1102.72   30.70
  -4   8  -7  303.02   12.79
  -4   8  -7  287.87   12.93
  -4   8  -8  801.81   23.74
  -4   8  -8  740.01   23.59
  -4   8  -9 1020.79   25.43
  -4   8  -9  971.95   28.83
  -4   8 -10  586.87   17.21
  -4   8 -10  620.70   20.19
  -4   8 -10  555.52   19.46
  -4   8 -11  324.79   13.78
  -4   8 -11  311.94   11.45
  -4   8 -11  323.05   13.29
   4   8  11  310.65   13.95
  -4   8 -12   20.37    3.17
  -4   8 -12   23.32    3.95
  -4   8 -12   34.55    3.55
  -4   8 -12   21.89    3.49
   4   8  12   25.88    4.08
  -4   8 -13  662.98   19.70
  -4   8 -13  716.29   22.22
   4   8  13  658.69   22.80
   4   8  13  680.88   22.76
  -4   8 -14   62.00    5.26
  -4   8 -14   57.95    5.77
   4   8  14   58.41    6.27
   4   8  14   55.00    5.84
  -4   8 -15  121.70    7.73
  -4   8 -15  136.45    8.97
   4   8  15  121.69    8.74
   4   8  15  118.49    9.02
  -4   8 -16  750.53   23.56
  -4   8 -16  776.10   25.09
   4   8  16  785.98   25.77
   4   8  16  731.32   26.08
  -4   8 -17 1057.49   30.31
  -4   8 -17 1068.20   31.72
   4   8  17 1081.92   32.38
   4   8  17 1039.90   32.91
  -4   8 -18  954.50   29.75
   4   8  18  965.02   30.21
   4   8  18  934.56   30.73
  -4   8 -19  222.32   12.48
   4   8  19  234.69   12.83
   4   8  19  213.00   12.83
  -4   8 -20  380.05   17.08
   4   8  20  366.18   16.56
   4   8  20  373.14   17.58
  -4   8 -21  501.73   20.45
   4   8  21  501.59   19.68
   4   8  21  485.46   20.56
  -4   8 -22  277.14   14.09
  -4   8 -22  277.38   14.68
   4   8  22  269.01   14.65
   4   8  22  248.70   13.31
  -4   8 -23   27.67    4.57
  -4   8 -23   36.62    5.38
   4   8  23   25.00    4.64
   4   8  23   28.56    4.54
  -4   8 -24  274.95   14.26
  -4   8 -24  302.02   15.73
   4   8  24  282.60   14.92
  -4   8 -25  613.62   23.73
   4   8  25  569.28   22.38
  -4   8 -26  201.59   12.61
   4   8  26  176.66   11.31
   4  -8 -27    8.42    3.63
  -4   8 -27   11.80    3.64
   4   8  27    5.96    2.96
  -4   8 -28  123.71    9.54
   4  -8 -28  137.04   10.76
   4   8  28  115.38    8.55
  -4   8 -29  441.35   18.19
   4  -8 -29  451.19   19.60
   4   8  29  397.35   16.35
  -4  -9 -28  177.86   11.54
   4   9 -24  261.56   17.23
   4   9 -23   23.97    5.74
   4   9 -22   46.51    7.79
   4   9 -21   11.36    4.44
   4   9 -20  251.80   17.35
   4   9 -19   56.13    8.36
  -4   9  18   90.28    7.15
   4   9 -18  116.10   11.60
  -4   9  17   24.00    3.85
   4   9 -17   26.34    5.91
  -4   9  16  754.81   24.01
   4   9 -16  839.91   32.76
  -4   9  15   69.69    6.10
  -4   9  14  150.41    8.92
  -4   9  11  182.35   10.24
  -4   9  11  178.86    9.37
  -4   9  10  113.02    7.95
  -4   9  10   92.62    6.57
  -4   9   9   77.27    6.59
  -4   9   9   66.05    5.42
  -4   9   8  606.98   21.00
  -4   9   8  575.98   18.51
  -4   9   7   26.86    4.09
  -4   9   7   28.25    3.49
  -4   9   6   13.95    3.13
  -4   9   6   36.89    3.85
   4   9  -5   94.88    7.29
  -4   9   5  100.38    7.67
  -4   9   5   93.86    6.03
  -4   9   4 1058.77   30.25
  -4   9   4 1010.79   26.05
   4   9  -3   39.37    4.43
  -4   9   3   43.66    5.03
  -4   9   3   49.79    4.15
   4   9  -2   11.55    2.60
  -4   9   2   11.13    2.07
   4   9  -1   73.69    5.75
  -4   9   1   69.70    4.78
  -4   9   0  899.11   22.85
  -4   9   0  919.75   27.42
   4   9   0  840.40   24.65
  -4   9  -1   62.22    4.26
  -4   9  -1   68.95    6.22
   4   9   1   58.36    5.04
  -4   9  -2   34.90    4.48
   4   9   2   14.65    2.59
  -4   9  -3   44.01    5.04
   4   9   3   38.94    4.02
  -4   9  -4  988.96   29.35
  -4   9  -5   90.32    7.21
  -4   9  -6    6.79    2.40
  -4   9  -7   35.39    4.57
  -4   9  -7   34.28    4.40
  -4   9  -8  548.12   19.84
   4   9   8  520.68   18.97
  -4   9  -9   60.35    5.80
  -4   9  -9   77.58    6.61
   4   9   9   64.53    5.99
   4   9   9   67.69    6.25
  -4   9 -10  103.61    7.74
  -4   9 -10  104.09    7.61
   4   9  10   90.33    7.27
   4   9  10   90.70    7.36
  -4   9 -11  153.81    9.64
  -4   9 -11  134.77    8.73
   4   9  11  147.11    9.45
   4   9  11  145.57    9.55
  -4   9 -12  693.82   23.71
   4   9  12  683.56   23.62
   4   9  13   85.70    7.37
  -4   9 -14  198.20   11.01
   4   9  14  193.41   11.36
  -4   9 -15   76.85    6.92
   4   9  15   74.31    7.11
   4   9  15   77.49    7.39
  -4   9 -16  782.54   25.93
   4   9  16  788.78   26.46
   4   9  16  762.91   26.64
  -4   9 -17   30.85    4.82
   4   9  17   35.22    4.97
   4   9  17   36.23    5.27
  -4   9 -18  100.04    8.34
   4   9  18  110.20    8.69
   4   9  18   96.56    8.52
  -4   9 -19   43.26    5.68
   4   9  19   43.45    5.64
   4   9  19   51.62    6.28
  -4   9 -20  259.97   13.94
   4   9  20  259.75   13.54
   4   9  20  242.58   13.82
   4   9  21   13.10    3.27
  -4   9 -21   17.89    4.05
   4   9  21   12.92    3.74
  -4   9 -22   43.65    5.77
   4   9  22   37.68    5.43
   4   9  22   35.12    4.93
  -4   9 -23   25.36    4.66
   4   9  23   20.22    3.89
   4   9  23   18.99    4.19
  -4   9 -24  248.62   13.76
   4   9  24  229.95   13.10
   4   9  24  239.69   12.35
  -4   9 -25   38.49    5.44
   4   9  25   34.48    5.11
  -4   9 -26   78.38    7.50
   4   9  26   75.39    7.01
   4   9  27    8.41    2.89
   4  -9 -28  151.99   10.85
   4   9  28  125.71    8.64
  -4  10  18  215.99   11.32
  -4  10  17  661.34   22.19
  -4  10  16  815.23   25.44
  -4  10  15  180.82    9.43
  -4  10  14  330.59   13.76
  -4  10  12  106.78    7.40
  -4  10  11  465.76   16.95
  -4  10  10  449.43   16.40
  -4  10   9  917.55   28.67
  -4  10   9  902.19   25.93
  -4  10   8 1261.62   35.69
  -4  10   8 1225.52   32.23
  -4  10   7  991.12   30.21
  -4  10   7  951.15   26.50
  -4  10   6  678.83   23.19
  -4  10   6  586.01   18.89
   4  10  -5  490.80   19.23
  -4  10   5  534.27   20.07
  -4  10   5  517.07   16.77
   4  10  -4   29.12    4.19
  -4  10   4   28.39    4.41
  -4  10   4   30.08    3.48
   4  10  -3  526.43   19.37
  -4  10   3  589.08   21.28
  -4  10   3  569.69   17.34
   4  10  -2  331.67   14.25
  -4  10   2  346.69   12.31
   4  10  -1  407.73   15.97
  -4  10   1  434.00   13.98
  -4  10   0  614.04   17.63
  -4  10   0  629.36   22.35
   4  10   0  601.61   20.20
  -4  10  -1  421.77   17.46
  -4  10  -1  429.85   13.49
   4  10   1  414.45   15.83
  -4  10  -2  348.55   15.77
   4  10   2  369.15   14.43
  -4  10  -3  561.97   20.71
   4  10   3  539.21   18.46
  -4  10  -4   34.48    4.73
   4  10   4   39.00    4.37
  -4  10  -5  495.14   19.14
   4  10   5  479.79   17.30
  -4  10  -6  531.94   20.10
   4  10   6  506.27   18.17
  -4  10  -7  877.75   28.52
   4  10   7  896.29   27.19
  -4  10  -8 1176.90   33.44
  -4  10  -8 1120.76   33.13
   4  10   8 1110.07   31.78
  -4  10  -9  791.63   26.44
  -4  10  -9  871.79   27.22
   4  10   9  832.74   26.02
   4  10   9  810.62   26.37
  -4  10 -10  464.58   18.52
   4  10  10  444.34   17.71
   4  10  10  437.94   18.09
  -4  10 -11  504.81   19.56
   4  10  11  459.62   18.38
   4  10  11  456.14   18.75
  -4  10 -12  113.73    8.99
   4  10  12  110.13    8.52
   4  10  12  115.89    8.75
   4  10  13  355.28   16.10
   4  10  13  334.10   15.79
  -4  10 -14  228.30   11.40
   4  10  14  293.68   14.35
   4  10  15  185.40   11.55
   4  10  16  914.10   29.69
   4  10  17  697.75   24.98
   4  10  17  707.46   25.38
   4  10  18  231.04   12.99
   4  10  18  225.90   13.14
   4  10  19  141.74   10.38
   4  10  19  148.81   10.13
   4  10  20   28.48    4.55
   4  10  20   25.67    4.75
   4  10  21  146.72   10.39
   4  10  21  158.98   10.27
   4  10  22  208.95   12.42
   4  10  22  211.68   11.83
   4  10  23   21.42    4.21
   4  10  23   23.00    4.02
   4  10  24  512.28   20.34
   4  10  24  525.31   19.16
   4  10  25  247.34   11.82
   4  10  25  236.62   12.67
   4  10  26  125.10    8.69
   4  10  27    3.35    2.34
  -4  11  17  198.63   10.95
  -4  11  15   37.55    4.44
  -4  11  14   73.24    6.25
  -4  11  13   30.37    4.33
  -4  11  13   27.50    3.99
  -4  11  12  319.84   14.73
  -4  11  12  322.76   13.91
  -4  11  11   37.13    4.52
  -4  11  10   70.78    6.01
  -4  11   9   65.93    5.74
  -4  11   8  383.11   14.76
  -4  11   7   91.79    6.55
  -4  11   6   81.02    5.96
  -4  11   5  261.24   13.94
   4  11  -5  230.92   12.98
  -4  11   5  254.32   10.97
  -4  11   4  291.93   14.76
   4  11  -4  262.52   13.56
  -4  11   4  276.07   11.34
  -4  11   3   38.27    5.37
   4  11  -3   31.47    4.65
  -4  11   3   35.53    3.75
   4  11  -2   27.71    4.21
  -4  11   2   32.41    3.50
  -4  11   1  178.25    8.33
   4  11  -1  171.04   10.15
  -4  11   0  169.93    7.96
   4  11   0  173.29   10.14
  -4  11   0  168.58   10.98
  -4  11  -1  186.06    8.16
   4  11   1  182.98   10.34
  -4  11  -1  205.66   12.05
   4  11   1  173.43    9.02
   4  11   2   23.49    3.82
  -4  11  -2   26.56    4.55
   4  11   2   24.75    3.47
   4  11   3   40.02    4.77
  -4  11  -3   41.11    5.49
   4  11   3   35.59    4.15
   4  11   4  226.24   11.46
  -4  11  -4  241.12   13.24
   4  11   4  222.58   10.93
   4  11   5  246.61   11.89
  -4  11  -5  265.35   13.81
   4  11   5  240.40   11.59
   4  11   5  231.13   12.02
   4  11   6   66.91    6.04
  -4  11  -6   77.87    7.20
   4  11   6   65.84    5.99
   4  11   6   76.13    6.75
  -4  11  -7   97.33    8.16
   4  11   7   81.55    6.75
  -4  11  -8  402.37   17.36
   4  11   8  366.63   15.58
  -4  11  -9   65.00    6.80
   4  11   9   71.12    6.48
  -4  11 -10   60.73    6.74
   4  11  10   59.73    6.18
   4  11  10   56.95    6.16
  -4  11 -11   67.01    7.15
   4  11  11   55.25    6.15
   4  11  11   55.58    5.98
  -4  11 -12  341.30   16.41
   4  11  12  332.21   15.46
   4  11  12  318.32   15.05
  -4  11 -13   34.12    4.57
   4  11  13   48.48    5.83
   4  11  13   53.59    5.95
   4  11  14   77.95    7.42
   4  11  14   70.13    6.90
   4  11  15   46.69    5.93
   4  11  15   36.69    5.39
   4  11  16  252.96   13.80
   4  11  17  189.11   11.71
   4  11  18  110.91    8.81
   4  11  19   63.87    6.54
   4  11  19   71.08    7.08
   4  11  20  165.54   10.89
   4  11  20  171.61   10.66
   4  11  21   83.13    7.58
   4  11  21   94.92    7.75
   4  11  22   22.70    4.29
   4  11  22   28.42    4.26
   4  11  23   16.06    3.40
   4  11  23   15.48    3.58
   4  11  24  177.31   10.62
   4  11  24  186.30   10.09
   4  11  25   74.40    6.59
   4  11  25   88.38    6.59
   4  11  26   40.47    4.86
  -4  12  15   69.90    6.41
  -4  12  14  216.78   11.35
  -4  12  14  216.10   11.37
  -4  12  13   80.14    6.73
  -4  12  13   67.16    6.42
  -4  12  12   45.29    5.06
  -4  12  12   49.58    5.71
  -4  12  11  176.89   11.04
  -4  12  11  182.98   10.14
  -4  12  10  150.40   10.25
  -4  12  10  146.63    8.87
  -4  12   9  309.73   13.31
  -4  12   8 1466.41   37.55
  -4  12   7   50.80    5.06
  -4  12   6  405.43   15.05
   4  12  -5  230.54   13.54
  -4  12   5  251.52   11.09
  -4  12   4    4.11    1.80
   4  12  -4    2.05    2.62
  -4  12   3   93.22    6.19
   4  12  -3   99.27    8.29
  -4  12   2  218.35    9.62
   4  12  -2  193.89    9.16
   4  12  -2  202.64   11.85
  -4  12   1   47.28    4.20
   4  12  -1   40.64    4.12
   4  12  -1   45.74    5.63
  -4  12   0 1181.88   28.88
   4  12   0 1165.50   33.75
   4  12   0 1086.24   29.65
   4  12   1   68.78    6.61
   4  12   1   62.53    5.31
   4  12   1   67.84    6.12
   4  12   2  194.50   11.27
   4  12   2  203.39   10.03
   4  12   2  204.00   10.99
   4  12   3   88.53    7.32
   4  12   3   87.34    6.44
   4  12   3   83.20    6.99
   4  12   4    7.81    2.58
   4  12   4    3.71    2.12
   4  12   4   10.96    2.65
  -4  12  -5  235.49   13.30
   4  12   5  232.59   12.19
   4  12   5  229.67   11.35
   4  12   5  253.93   12.85
   4  12   6  378.36   15.99
  -4  12  -6  406.84   17.92
   4  12   6  378.45   15.50
   4  12   6  384.48   16.55
  -4  12  -7   39.95    5.71
   4  12   7   41.12    5.34
   4  12   7   47.65    5.31
  -4  12  -8 1432.42   40.82
   4  12   8 1403.27   38.04
  -4  12  -9  290.06   15.23
   4  12   9  291.58   13.82
  -4  12 -10  153.95   10.86
  -4  12 -10  137.49    9.84
   4  12  10  142.42    9.48
  -4  12 -11  187.80   12.19
  -4  12 -11  147.12   10.08
   4  12  11  178.49   11.15
   4  12  11  180.58   10.75
  -4  12 -12   45.02    6.21
  -4  12 -12   33.26    4.83
   4  12  12   39.43    5.41
   4  12  12   49.34    5.66
  -4  12 -13   63.11    6.23
   4  12  13   76.70    7.27
   4  12  13   82.99    7.33
   4  12  14  230.82   12.83
   4  12  14  215.91   12.15
   4  12  15   71.01    7.19
   4  12  15   77.74    7.29
   4  12  16 1163.91   34.87
   4  12  16 1162.08   34.57
   4  12  17  222.37   12.55
   4  12  17  198.29   11.81
   4  12  18  164.69   10.60
   4  12  19   59.60    6.18
   4  12  20    1.62    2.00
   4  12  21   67.45    6.59
   4  12  21   76.39    6.74
   4  12  22  259.34   13.14
   4  12  22  278.56   13.05
   4  12  23   13.49    3.17
   4  12  23   15.24    3.41
   4  12  24  456.46   16.51
   4  12  24  438.80   17.03
   4  12  25  143.90    8.81
  -4  13  15   42.33    4.95
  -4  13  14    1.42    1.96
  -4  13  14    2.26    1.94
  -4  13  13   96.22    7.69
  -4  13  13  107.63    7.84
  -4  13  12  173.09   10.75
  -4  13  12  158.32    9.57
  -4  13  11   57.95    6.38
  -4  13  11   48.74    5.21
  -4  13  10   15.14    3.52
  -4  13  10   10.28    3.02
  -4  13   9  130.98    8.39
  -4  13   9  152.93   10.67
  -4  13   8   47.36    5.00
  -4  13   8   49.13    6.24
  -4  13   7  105.36    7.26
  -4  13   7  104.76    9.05
  -4  13   6   58.62    6.81
  -4  13   6   57.03    5.27
   4  13  -6   47.23    4.80
  -4  13   5  137.06    8.01
   4  13  -5  119.76    7.75
   4  13  -4   97.73    8.96
  -4  13   4  109.70    6.96
   4  13  -4  100.00    7.13
   4  13  -3  147.23   10.78
  -4  13   3  159.84    8.38
   4  13  -3  144.35    8.80
   4  13  -2   14.16    3.95
  -4  13   2   14.39    2.65
   4  13  -2   17.31    3.21
   4  13  -1  244.66   13.59
   4  13  -1  237.50   11.80
   4  13   0  206.45   12.27
   4  13   0  197.71    9.57
   4  13   0  211.28   11.11
   4  13   1  229.55   12.90
   4  13   1  226.21   10.50
   4  13   1  235.72   11.98
   4  13   2   13.31    3.51
   4  13   2   15.25    3.31
   4  13   2   16.67    3.06
   4  13   3  129.40    9.39
   4  13   3  135.32    8.17
   4  13   3  137.86    9.11
  -4  13  -4   99.27    8.84
   4  13   4   92.04    7.88
   4  13   4  101.64    7.14
   4  13   4  107.68    8.09
  -4  13  -5  118.22    9.56
   4  13   5  109.31    8.52
   4  13   5  112.50    7.68
   4  13   5  113.45    8.46
  -4  13  -6   51.60    6.41
  -4  13  -6   44.70    5.92
   4  13   6   47.88    5.56
   4  13   6   42.46    4.87
  -4  13  -7  106.95    9.13
  -4  13  -7  110.34    9.18
   4  13   7  108.00    8.37
   4  13   7  106.14    7.70
  -4  13  -8   57.01    6.84
  -4  13  -8   47.43    6.02
   4  13   8   51.87    5.90
   4  13   8   50.23    5.42
  -4  13  -9  165.54   11.39
  -4  13  -9  126.29    9.79
   4  13   9  145.12    9.87
   4  13   9  143.70    9.24
  -4  13 -10   22.09    5.10
  -4  13 -10   15.79    3.53
   4  13  10   16.96    3.51
  -4  13 -11   60.28    7.29
  -4  13 -11   43.44    5.59
   4  13  11   51.88    5.71
  -4  13 -12  161.13   11.63
  -4  13 -12  132.45    9.56
   4  13  12  173.56   10.95
   4  13  12  166.05   10.18
  -4  13 -13   76.10    6.95
   4  13  13   83.51    7.28
  -4  13 -14   -0.17    1.74
   4  13  14    1.75    2.10
   4  13  14    0.18    1.78
   4  13  15   39.27    5.37
   4  13  15   44.57    5.35
   4  13  16   27.39    4.54
   4  13  16   29.98    4.51
   4  13  17  125.85    8.96
   4  13  17  151.34    9.89
   4  13  18   15.88    3.46
   4  13  18   16.39    3.58
   4  13  19   26.07    4.25
   4  13  19   23.63    4.08
   4  13  20   17.43    3.46
   4  13  21   90.24    7.04
   4  13  22   31.87    4.22
   4  13  23    6.78    2.28
   4  13  23    8.10    2.46
   4  13  24   56.71    5.27
  -4  14  13   10.39    2.96
  -4  14  13    8.27    2.60
  -4  14  12   19.62    3.88
  -4  14  12    9.16    2.71
  -4  14  11   11.96    3.39
  -4  14  11   13.83    3.13
  -4  14  10  134.96    8.51
  -4  14  10  133.77    9.89
  -4  14   9  124.70    8.13
  -4  14   9  133.35   10.05
  -4  14   8 1120.19   34.79
  -4  14   8 1057.46   29.89
  -4  14   7   35.97    5.73
  -4  14   7   30.58    4.16
  -4  14   6  339.30   13.88
  -4  14   6  383.16   18.26
  -4  14   5   38.71    4.30
  -4  14   5   48.83    6.56
   4  14  -5   36.20    4.33
  -4  14   4  100.13    6.70
  -4  14   4  102.92    9.27
   4  14  -4   95.83    6.98
   4  14  -3   28.20    5.32
  -4  14   3   24.11    4.81
   4  14  -3   17.45    3.21
   4  14  -2  210.47   13.32
   4  14  -2  216.87   11.01
   4  14  -1   23.69    4.97
   4  14  -1   29.45    4.17
   4  14   0 1064.39   34.26
  -4  14   0 1154.87   36.27
   4  14   0 1120.89   31.57
   4  14   1   42.69    5.80
  -4  14  -1   43.24    6.25
   4  14   1   41.84    4.98
   4  14   2  221.00   12.84
  -4  14  -2  228.73   13.81
   4  14   2  213.75   11.51
   4  14   2  214.68   10.07
   4  14   3   20.74    4.34
  -4  14  -3   14.84    4.24
  -4  14  -3   17.79    4.30
   4  14   3   21.46    3.75
   4  14   3   17.17    2.99
   4  14   4   87.10    7.90
  -4  14  -4   91.53    8.77
  -4  14  -4   99.37    9.00
   4  14   4   99.20    7.73
   4  14   4   88.71    6.47
  -4  14  -5   42.36    6.22
  -4  14  -5   41.20    5.94
   4  14   5   43.31    5.33
   4  14   5   39.38    4.46
  -4  14  -6  319.98   16.56
  -4  14  -6  319.81   16.50
   4  14   6  316.57   14.87
   4  14   6  321.25   13.55
  -4  14  -7   18.33    4.84
  -4  14  -7   24.61    4.80
   4  14   7   22.66    4.35
   4  14   7   19.61    3.46
  -4  14  -8 1048.09   33.81
  -4  14  -8 1013.49   33.35
   4  14   8 1097.39   32.22
   4  14   8 1046.22   30.01
  -4  14  -9  132.15   10.42
  -4  14  -9  103.14    8.95
   4  14   9  116.17    8.73
   4  14   9  102.30    7.62
  -4  14 -10  135.65   10.65
  -4  14 -10  108.07    8.95
   4  14  10  131.65    9.36
   4  14  10  125.35    8.41
  -4  14 -11   16.87    4.72
  -4  14 -11   10.12    3.08
   4  14  11   14.16    3.19
  -4  14 -12    7.92    2.79
   4  14  12   14.26    3.14
  -4  14 -13    8.59    2.70
   4  14  13   11.03    2.96
   4  14  14  268.15   13.53
   4  14  14  254.69   12.72
   4  14  15   28.49    4.27
   4  14  15   38.08    5.05
   4  14  16  711.05   23.50
   4  14  16  740.10   24.45
   4  14  17   66.70    6.24
   4  14  17   74.06    6.61
   4  14  18   15.90    3.51
   4  14  18   13.92    3.14
   4  14  19   22.64    3.69
   4  14  19   32.19    4.38
   4  14  20   64.58    5.84
   4  14  20   72.21    6.10
   4  14  21   18.92    3.25
   4  14  21   17.73    3.15
   4  14  22  226.83   10.68
  -4  15  12    0.69    1.81
  -4  15  11  164.38   10.45
  -4  15  10   17.46    3.92
  -4  15   9  196.55   12.12
  -4  15   8   33.48    5.35
  -4  15   7   74.77    7.79
  -4  15   6    5.31    3.11
  -4  15   5  238.30   14.26
  -4  15   4    1.43    2.78
   4  15  -4    2.02    1.70
  -4  15   3  211.54   13.46
   4  15  -3  194.77   10.12
   4  15  -2   14.48    4.49
   4  15  -2   11.68    2.87
   4  15  -1  136.87   10.81
   4  15  -1  131.40    8.34
   4  15   0   28.47    5.43
  -4  15   0   30.43    5.34
   4  15   0   26.47    3.97
   4  15   1  118.89    9.72
  -4  15  -1  125.07   10.18
   4  15   1  118.79    8.16
  -4  15  -2   13.52    4.18
   4  15   2   12.79    3.95
   4  15   2   12.60    3.14
  -4  15  -2   13.02    3.97
   4  15   3  176.70   11.54
  -4  15  -3  196.36   12.97
  -4  15  -3  207.38   13.11
   4  15   3  191.47   10.74
  -4  15  -4    0.94    2.97
   4  15   4    2.18    1.88
  -4  15  -4    0.46    2.38
  -4  15  -5  201.58   13.07
  -4  15  -5  197.61   12.78
   4  15   5  212.16   11.44
   4  15   5  191.19    9.56
  -4  15  -6    3.67    3.22
  -4  15  -6    3.63    2.64
   4  15   6    3.46    2.29
   4  15   6    6.13    2.10
  -4  15  -7   71.13    7.76
  -4  15  -7   64.68    7.20
   4  15   7   75.30    6.84
   4  15   7   72.52    5.85
  -4  15  -8   19.83    4.92
  -4  15  -8   18.79    4.21
   4  15   8   21.04    3.91
   4  15   8   15.37    2.97
  -4  15  -9  205.89   12.97
  -4  15  -9  173.63   11.58
   4  15   9  205.15   11.48
   4  15   9  191.05   10.04
  -4  15 -10   11.35    3.31
   4  15  10   16.95    3.66
   4  15  10   15.39    3.09
  -4  15 -11  140.24    9.75
   4  15  11  153.78    9.00
   4  15  11  154.46    9.85
  -4  15 -12    0.36    1.77
   4  15  12    1.89    1.88
  -4  15 -13  124.57    8.51
   4  15  13  150.19    8.87
   4  15  14   11.33    2.80
   4  15  15   35.24    4.38
   4  15  15   38.79    4.75
   4  15  16   20.57    3.53
   4  15  16   16.81    3.42
   4  15  17  112.34    7.45
   4  15  17  105.07    7.49
   4  15  18    8.36    2.53
   4  15  18    8.29    2.44
   4  15  19   14.81    2.99
   4  15  19   13.62    2.83
   4  15  20    2.74    1.78
  -4  16  11    2.93    2.19
  -4  16  10   23.37    4.15
  -4  16   9   28.88    4.73
  -4  16   8  690.29   24.78
  -4  16   7   17.50    4.16
  -4  16   6  224.26   13.33
  -4  16   5    6.29    2.82
  -4  16   4   14.36    4.01
  -4  16   3    2.07    2.65
   4  16  -1   18.28    3.26
  -4  16   0  643.30   25.72
  -4  16   0  666.74   25.33
   4  16   0  627.40   20.56
  -4  16  -1   14.61    4.20
   4  16   1   22.86    4.72
  -4  16  -1   18.39    4.30
   4  16   1   15.85    3.13
  -4  16  -2  136.53   10.85
  -4  16  -2  133.04   10.40
   4  16   2  140.87    8.62
  -4  16  -3   -0.24    3.36
  -4  16  -3    2.03    2.34
   4  16   3    1.06    1.90
  -4  16  -4   11.12    3.86
  -4  16  -4   13.14    3.73
   4  16   4    9.58    2.80
  -4  16  -5   10.92    3.99
   4  16   5    6.76    2.46
  -4  16  -5   11.01    3.42
  -4  16  -6  189.86   12.38
  -4  16  -6  186.25   12.15
   4  16   6  192.41   10.51
  -4  16  -7   17.63    4.61
  -4  16  -7   15.37    3.97
   4  16   7   21.31    3.72
  -4  16  -8  632.87   23.99
  -4  16  -8  565.49   22.48
   4  16   8  622.70   21.19
  -4  16  -9   42.81    6.29
  -4  16  -9   30.36    4.86
   4  16   9   38.00    4.80
  -4  16 -10   21.24    3.98
   4  16  10   21.54    3.72
  -4  16 -11    0.52    1.78
   4  16  11    0.31    1.54
   4  16  11    0.50    1.46
  -4  16 -12    9.43    2.67
   4  16  12   14.44    3.02
   4  16  12   14.29    2.75
   4  16  13   19.15    3.18
   4  16  13   23.83    3.64
   4  16  14  244.31   10.82
   4  16  15   27.82    3.66
   4  16  16  443.51   15.40
   4  16  16  470.09   16.51
   4  16  17   16.60    2.92
  -4  17   9   94.52    7.35
  -4  17   8   18.18    3.48
  -4  17   7   56.26    6.14
  -4  17   6    6.23    2.65
  -4  17   5   70.93    7.19
  -4  17   4   23.95    4.41
  -4  17   3   83.38    8.52
  -4  17   3   96.25    8.43
  -4  17   2    6.31    3.62
  -4  17   1   57.18    7.22
  -4  17   0   20.26    4.97
  -4  17   0   29.69    4.93
  -4  17  -1   64.54    7.47
  -4  17  -1   63.25    7.06
  -4  17  -2    6.33    3.35
  -4  17  -2    9.24    3.02
   4  17   2    6.77    2.18
  -4  17  -3   84.73    8.35
  -4  17  -3   89.40    8.07
   4  17   3   85.71    6.24
  -4  17  -4   22.79    4.95
  -4  17  -4   21.90    4.25
   4  17   4   18.91    3.16
  -4  17  -5   68.03    7.44
  -4  17  -5   69.36    7.04
   4  17   5   61.54    5.43
  -4  17  -6    4.47    2.29
   4  17   6    4.84    1.99
  -4  17  -7   59.50    6.90
  -4  17  -7   52.00    6.08
   4  17   7   52.93    5.04
  -4  17  -8   19.62    4.64
   4  17   8   10.98    2.70
  -4  17  -8   19.67    3.65
  -4  17  -9   82.98    7.15
   4  17   9  101.68    6.94
  -4  17 -10    9.92    2.85
   4  17  10   11.40    2.67
   4  17  11   43.59    4.62
   4  17  12   13.98    2.84
   4  17  13  171.42    8.88
   4  17  14    4.36    1.89
  -4  18   6   56.20    5.72
  -4  18   5   45.25    5.21
  -4  18   4   25.19    4.31
  -4  18   3   39.46    5.18
  -4  18   2   74.97    7.43
  -4  18   1   34.59    5.39
  -4  18   0  475.10   19.75
  -4  18   0  455.34   18.49
  -4  18  -1   41.19    5.68
  -4  18  -1   34.50    5.01
  -4  18  -2   77.88    7.70
  -4  18  -2   82.55    7.28
  -4  18  -3   49.35    6.26
  -4  18  -3   38.42    5.04
  -4  18  -4   33.30    5.49
  -4  18  -4   19.76    3.85
  -4  18  -5   53.39    6.37
  -4  18  -5   42.94    5.12
  -4  18  -6   58.50    5.86
   4  18   6   63.94    5.06
   4  18   7   35.65    3.89
  -5   0   0    1.61    0.97
  -5   0   0    0.83    0.89
  -5   0  -1   19.48    2.65
  -5   0   1   16.29    2.18
  -5   0  -1   15.85    2.12
  -5   0   1   17.41    2.55
  -5   0  -2  898.96   21.44
  -5   0   2  852.77   22.39
  -5   0  -2  890.27   23.53
  -5   0   2  882.24   23.79
  -5   0   3   15.03    2.14
  -5   0  -3    9.41    1.94
  -5   0   3   11.42    2.12
  -5   0  -4   16.47    1.95
   5   0   4   14.33    2.29
  -5   0  -4   20.13    2.72
  -5   0  -5   70.04    4.12
   5   0   5   70.36    5.01
  -5   0  -5   73.59    5.11
  -5   0  -6  512.44   14.33
   5   0   6  479.69   15.96
  -5   0  -7   61.68    4.00
   5   0   7   61.34    4.87
  -5   0  -7   59.65    4.75
  -5   0  -8  186.58    7.59
   5   0   8  165.70    8.47
  -5   0  -9    3.08    1.18
  -5   0  -9    3.63    1.05
   5   0   9    4.22    1.57
  -5   0 -10   13.45    2.12
  -5   0 -10   10.79    1.67
   5   0  10    7.87    2.07
  -5   0 -11   93.21    5.64
  -5   0 -11   84.01    4.83
   5   0 -11   76.57    5.72
   5   0  11   87.48    6.46
  -5   0 -12    7.60    1.89
   5   0 -12   11.84    2.53
  -5   0 -12    9.64    1.87
  -5   0  13  207.48    7.97
  -5   0 -13  182.70    8.31
  -5   0 -13  191.19    9.12
   5   0 -13  167.02    9.61
  -5   0 -14    7.29    1.96
   5   0 -14    8.47    2.55
  -5   0 -15   39.11    4.03
   5   0 -15   33.09    4.62
   5   0  15   41.08    4.54
  -5   0 -16   28.42    3.69
   5   0 -16   29.28    4.63
   5   0  16   26.27    3.73
  -5   0 -17   37.48    4.35
   5   0 -17   35.71    5.27
   5   0  17   37.17    4.45
  -5   0 -18   11.99    2.75
   5   0 -18    2.10    2.05
  -5   0 -19   36.08    4.78
   5   0 -19   37.84    5.83
  -5   0 -20    1.84    1.88
   5   0 -20    7.47    3.25
  -5   0 -21   88.85    7.93
   5   0 -21   97.77   10.02
  -5   0 -22   15.85    3.84
   5   0 -22   14.96    4.61
   5   0 -23   22.45    5.37
  -5   0 -23   21.44    4.37
  -5   0 -24    3.82    2.68
   5   0 -24    1.99    3.02
  -5   0 -25    2.86    2.54
   5   0 -25    3.32    3.34
  -5   0 -26   13.26    4.06
   5   0 -26   16.61    5.27
  -5   0 -27  170.27   11.95
   5   0 -27  175.40   14.05
  -5   0 -28   15.76    4.07
   5   0 -28   13.60    4.67
  -5   0 -29   28.52    4.80
   5   0 -29   28.91    5.52
  -5   0 -30    2.04    2.68
   5   0 -30    1.31    2.82
  -5   0 -31    1.90    2.45
  -5   0 -31    2.92    3.02
  -5   0 -32    4.85    2.73
  -5  -1 -32    5.66    3.23
  -5  -1 -31   55.63    6.30
  -5  -1 -31   55.51    7.32
  -5  -1 -30   16.50    4.08
   5   1 -30   21.12    5.00
   5   1 -29  433.37   21.96
  -5  -1 -29  423.35   18.90
   5   1 -28  112.13   11.25
  -5  -1 -28  114.37    9.66
   5   1 -27 1997.88   58.91
  -5  -1 -27 1991.57   53.91
   5   1 -26   69.02    9.36
  -5  -1 -26   68.03    7.86
   5   1 -25  125.33   12.15
  -5  -1 -25  131.32   10.55
  -5  -1 -24   68.72    7.52
   5   1 -24   68.26    9.09
  -5  -1 -23  357.24   17.29
   5   1 -23  347.34   20.02
  -5  -1 -22   79.54    7.70
   5   1 -22   90.74    9.88
  -5  -1 -21 1020.47   32.22
   5   1 -21 1063.37   37.10
  -5  -1 -20  221.47   12.43
   5   1 -20  206.12   14.20
  -5  -1 -19 2953.84   68.39
   5   1 -19 2864.24   73.28
  -5  -1 -18  125.81    8.57
   5   1 -18  149.15   11.27
  -5  -1 -17  112.56    7.66
   5   1 -17  126.46    9.99
   5   1 -16   77.02    7.53
   5   1 -15  727.79   25.42
   5   1 -14   42.65    5.14
  -5  -1 -13 3624.03   83.09
   5   1 -13 3682.26   86.13
  -5  -1 -12  617.58   19.51
   5   1 -12  617.99   21.08
  -5  -1 -11 9828.64  198.58
   5   1 -11 9227.31  200.09
   5  -1  11 9338.36  200.60
  -5   1  10  179.24    7.41
  -5  -1 -10  163.57    7.89
  -5  -1  -9    7.78    1.68
  -5  -1  -8  111.32    6.01
  -5  -1  -7  247.37    9.35
  -5  -1  -7  240.99   10.29
  -5  -1  -6  141.76    6.62
  -5  -1  -6  145.07    7.50
  -5  -1  -5 6479.44  128.19
  -5  -1  -5 6535.07  130.17
  -5  -1  -4  719.38   19.00
  -5  -1  -4  742.53   20.82
  -5  -1  -3 9999.00  191.56
  -5  -1  -3 9764.86  193.52
  -5  -1  -2  440.91   13.29
  -5   1   2  431.82   13.66
  -5  -1  -2  472.14   15.06
  -5   1   1  112.91    5.84
  -5  -1  -1  112.70    5.82
  -5  -1   0   20.09    2.75
  -5  -1   0   19.83    2.34
  -5   1   0   15.96    2.18
  -5  -1   1   78.93    4.91
  -5  -1   1   84.15    5.65
  -5   1  -1   90.79    5.11
  -5   1  -2  466.41   12.49
  -5  -1   2  435.90   13.84
  -5  -1   2  460.98   15.21
  -5   1  -3 9717.12  185.20
  -5  -1   3 9706.85  188.19
  -5  -1   3 9475.74  189.33
  -5   1  -4  654.46   16.23
  -5   1  -5 6191.07  118.18
   5   1   5 5840.42  121.67
  -5   1  -6   95.74    4.62
   5   1   6  106.18    6.24
  -5   1  -7  248.14    8.40
   5   1   7  239.03   10.25
  -5   1  -8   95.31    4.89
   5   1   8   89.06    6.00
  -5   1  -9   11.24    1.76
  -5   1  -9    7.06    1.33
   5   1   9    7.48    1.90
  -5   1 -10  219.20    9.24
  -5   1 -10  241.17    8.96
  -5   1 -10  233.26    8.26
   5   1  10  216.54   10.26
  -5   1 -11 8987.72  184.45
  -5   1 -11 9292.45  182.90
   5   1  11 9072.52  187.54
  -5   1 -12  567.37   17.47
  -5   1 -12  589.77   16.94
  -5   1 -13 3747.02   77.54
   5  -1 -14   17.35    3.27
  -5   1 -14   12.60    2.33
   5   1  15  677.82   22.47
   5  -1 -15  678.55   23.44
  -5   1 -15  699.77   20.52
   5  -1 -16   78.78    7.34
   5   1  16   80.83    6.75
  -5   1 -16   84.94    6.15
   5  -1 -17  130.86   10.08
  -5   1 -17  130.49    8.15
   5   1  17  150.07    9.31
   5  -1 -18  124.65   10.13
  -5   1 -18  134.80    8.57
   5   1  18  109.04    8.12
   5  -1 -19 2932.76   70.51
  -5   1 -19 2936.11   65.12
   5  -1 -20  219.65   14.31
  -5   1 -20  206.89   11.93
   5   1  20  197.68   11.06
   5  -1 -21 1059.07   36.79
  -5   1 -21 1055.53   32.66
   5  -1 -22   96.40   10.11
  -5   1 -22   98.31    8.50
   5  -1 -23  380.05   20.81
  -5   1 -23  337.76   16.82
   5  -1 -24   69.25    9.16
  -5   1 -24   69.88    7.52
   5  -1 -25  108.48   11.28
  -5   1 -25  113.96    9.63
   5  -1 -26   57.79    8.44
  -5   1 -26   58.34    7.16
  -5   1 -27 2083.33   55.32
   5  -1 -27 2031.90   59.19
  -5   1 -28  119.20    9.84
   5  -1 -28  115.96   11.10
   5  -1 -29  422.42   21.15
  -5   1 -29  431.76   19.20
  -5   1 -30   16.76    4.12
  -5   1 -32    3.05    2.70
  -5  -2 -32    8.23    3.26
  -5  -2 -31    7.79    3.68
  -5  -2 -30    6.83    2.91
   5   2 -29   22.77    5.48
  -5  -2 -29   27.04    4.87
  -5  -2 -28    5.08    3.37
   5   2 -28    4.46    3.58
   5   2 -27  195.28   15.21
  -5  -2 -27  195.13   13.03
   5   2 -26   51.15    8.22
  -5  -2 -26   54.02    7.09
  -5  -2 -25    9.34    3.41
   5   2 -25    7.47    4.13
  -5  -2 -24    9.87    3.67
   5   2 -24   12.00    4.72
   5   2 -23   46.24    7.67
  -5  -2 -23   35.85    5.63
  -5  -2 -22   27.71    5.04
   5   2 -22   19.46    5.27
  -5  -2 -21   82.01    7.82
   5   2 -21   77.01    9.11
  -5  -2 -20   82.04    7.42
   5   2 -20   85.39    9.13
   5   2 -19   80.11    8.57
   5   2 -18   21.68    4.49
   5   2 -17   18.61    4.10
   5   2 -16   32.84    4.94
   5   2 -15    2.31    1.97
   5   2 -14   35.07    4.77
  -5   2  13   70.51    4.80
   5   2 -13   52.46    5.55
  -5   2  12   29.24    3.15
  -5  -2 -12   20.38    3.08
   5   2 -12   20.63    3.53
  -5   2  11  226.60    8.98
  -5  -2 -11  200.50    9.48
  -5   2  10   35.31    3.40
   5   2 -10   28.00    3.62
  -5  -2 -10   31.85    3.54
   5  -2  10   31.49    3.94
  -5   2   9   51.16    4.04
  -5  -2  -9   48.80    4.23
   5  -2   9   41.48    4.35
  -5  -2  -8  233.24    9.83
   5  -2   8  221.90   10.50
  -5   2   7    8.41    1.76
  -5  -2  -7    7.29    1.67
  -5  -2  -7    7.85    2.00
   5  -2   7    6.27    1.79
  -5  -2  -6    9.23    1.82
  -5  -2  -6    7.58    1.88
   5  -2   6    5.51    1.63
  -5   2   5  191.95    7.97
  -5  -2  -5  191.78    8.25
  -5   2   5  187.86    8.23
   5  -2   5  165.91    8.53
  -5  -2  -5  190.49    8.83
  -5  -2  -4   90.28    5.28
  -5   2   4   81.17    5.01
  -5  -2  -4   92.04    5.87
  -5  -2  -3   38.24    3.37
  -5   2   3   36.09    3.29
  -5   2   3   36.81    3.50
  -5  -2  -3   44.48    3.94
  -5  -2  -2   73.14    4.72
  -5  -2  -2   72.12    5.21
  -5   2   2   59.35    4.49
  -5  -2  -1   22.38    2.60
  -5   2   1   33.33    3.28
  -5  -2  -1   31.83    3.49
  -5  -2  -1   24.02    2.57
  -5  -2   0   10.05    2.06
  -5  -2   0    9.16    1.65
  -5   2   0    4.34    1.43
  -5  -2   1   24.95    2.70
  -5   2  -1   26.92    3.00
  -5   2  -2   59.99    3.16
  -5  -2   2   70.12    4.53
  -5   2  -2   68.25    4.82
  -5  -2   2   56.92    4.67
  -5   2  -3   38.59    2.39
  -5  -2   3   37.40    3.79
  -5   2  -3   32.96    3.27
  -5  -2   3   36.55    3.39
  -5   2  -4   75.12    3.49
  -5   2  -4   79.77    5.32
  -5   2  -5  155.04    7.38
  -5   2  -5  172.29    5.81
  -5   2  -5  164.59    7.92
  -5   2  -6   10.30    1.34
   5   2   6    5.30    1.58
  -5   2  -6    6.46    1.64
  -5   2  -7    9.74    2.12
   5   2   7    8.58    1.90
  -5   2  -7    6.84    1.70
  -5   2  -8  226.69    9.80
  -5   2  -8  262.12    8.42
   5   2   8  237.66   10.44
  -5   2  -8  249.45   10.73
  -5   2  -9   39.77    3.79
  -5   2  -9   42.88    3.12
  -5   2  -9   38.54    2.94
   5   2   9   40.98    4.17
  -5   2 -10   32.40    3.49
  -5   2 -10   36.79    3.07
  -5   2 -10   33.77    2.91
   5   2  10   38.50    4.06
  -5   2 -11  192.59    8.87
  -5   2 -11  210.77    8.23
   5   2  11  199.98    9.95
  -5   2 -12   23.67    2.94
   5   2  12   24.87    3.54
  -5   2 -12   23.72    2.75
  -5   2 -13   75.97    5.10
  -5   2 -14   37.49    3.77
  -5   2 -15    7.65    2.04
   5   2  15    9.32    2.68
   5   2  16   27.14    4.15
  -5   2 -16   25.99    3.46
  -5   2 -17   23.03    3.48
   5   2  17   26.30    4.20
  -5   2 -18   11.95    2.84
   5   2  18   10.28    3.01
   5  -2 -19   92.14    8.86
  -5   2 -19   83.54    7.03
   5   2  19   81.02    7.34
   5  -2 -20  102.75    9.69
  -5   2 -20   85.31    7.35
   5   2  20   82.29    7.41
   5  -2 -21  118.68   10.87
  -5   2 -21   96.71    8.08
   5   2  21   96.54    8.06
   5  -2 -22   22.75    5.37
  -5   2 -22   23.14    4.33
   5   2  22   16.46    3.65
   5  -2 -23   27.66    5.82
  -5   2 -23   34.20    5.33
   5  -2 -24   14.95    4.77
  -5   2 -24   12.31    3.82
   5  -2 -25   13.40    4.72
  -5   2 -25    9.16    3.57
  -5   2 -26   48.57    6.68
   5  -2 -26   53.79    8.33
  -5   2 -27  175.11   12.17
   5  -2 -27  173.18   13.73
   5  -2 -28    5.13    3.50
  -5   2 -28    6.42    3.39
   5  -2 -29   18.59    4.87
  -5   2 -29   17.56    4.30
  -5   2 -30    4.29    2.61
  -5   2 -31   15.33    4.19
  -5   2 -32    5.27    2.70
  -5  -3 -31   25.19    5.15
  -5  -3 -30  112.04    9.01
  -5  -3 -30  112.28   10.62
   5   3 -29  274.77   17.02
  -5  -3 -29  308.79   15.80
   5   3 -28  169.38   13.76
  -5  -3 -28  180.79   12.20
   5   3 -27 1480.00   48.68
  -5  -3 -27 1537.99   44.00
   5   3 -26  584.80   27.69
  -5  -3 -26  611.76   24.13
   5   3 -25  284.40   18.52
  -5  -3 -25  279.07   15.53
   5   3 -24  384.37   21.94
  -5  -3 -24  402.19   19.05
   5   3 -23   93.14   10.42
  -5  -3 -23   89.82    8.50
   5   3 -22  492.52   24.33
  -5  -3 -22  498.01   20.80
   5   3 -21  918.79   34.37
   5   3 -20  392.12   20.31
   5   3 -19 1724.89   50.37
   5   3 -18  450.21   20.88
   5   3 -17  116.08    9.78
   5   3 -16   35.69    5.33
   5   3 -15   56.37    6.32
   5   3 -14  605.58   22.39
  -5   3  13 3063.97   62.21
   5   3 -13 2568.83   65.93
  -5   3  12  445.63   14.26
   5   3 -12  352.70   15.67
   5   3 -11 4688.67  109.05
  -5   3  11 4919.77  107.70
   5   3 -10  557.30   19.45
  -5   3  10  576.38   18.61
  -5   3   9  316.54   11.39
   5   3  -9  244.49   11.17
  -5  -3  -9  294.24   11.79
   5  -3   9  248.17   11.71
  -5   3   8    7.30    1.79
  -5  -3  -8    5.46    1.62
  -5  -3  -8    8.46    2.14
  -5   3   7   19.95    2.66
  -5  -3  -7   16.40    2.50
   5  -3   7   18.80    3.00
  -5  -3  -7   17.04    2.73
  -5   3   6  847.18   22.23
  -5  -3  -6  792.49   22.05
  -5   3   6  803.40   21.52
   5  -3   6  745.55   22.81
  -5  -3  -6  785.50   22.35
  -5  -3  -5 6606.93  132.87
  -5   3   5 6577.56  131.70
  -5  -3  -5 6818.30  133.86
  -5   3   4  562.11   17.02
  -5  -3  -4  588.93   17.23
   5  -3   4  522.15   17.63
  -5   3   4  561.89   16.33
  -5  -3  -4  587.84   17.81
  -5   3   3 7989.56  152.19
  -5  -3  -3 7933.65  152.15
  -5   3   3 7896.21  151.05
  -5  -3  -3 7973.95  152.86
  -5  -3  -2 2056.11   45.23
  -5   3   2 1884.92   44.14
  -5  -3  -2 2146.94   46.36
  -5   3   2 1961.74   43.68
  -5  -3  -1  142.05    7.15
  -5   3   1  130.14    6.74
  -5   3   1  130.80    6.40
  -5  -3  -1  128.50    6.21
  -5  -3  -1  151.47    7.75
  -5   3   0   46.21    3.91
  -5   3   0   43.35    3.78
  -5  -3   0   54.95    3.84
  -5  -3   0   52.21    4.42
  -5   3   0   42.50    3.52
  -5   3  -1  145.75    7.30
  -5   3  -1  158.80    5.12
  -5   3  -1  142.55    7.17
  -5  -3   1  153.24    7.08
  -5  -3   1  162.78    8.11
  -5   3  -2 1912.42   43.50
  -5   3  -2 1862.72   38.51
  -5  -3   2 1962.74   42.97
  -5   3  -2 2014.50   43.68
  -5  -3   2 2053.38   44.82
  -5   3  -3 7533.48  152.06
  -5   3  -3 7638.86  146.46
  -5  -3   3 8157.85  152.07
  -5   3  -3 7614.42  151.67
  -5  -3   3 7698.33  153.08
  -5   3  -4  522.33   16.43
  -5   3  -4  546.43   12.37
  -5   3  -4  528.63   16.32
  -5   3  -5 6950.41  130.24
  -5   3  -5 6760.10  135.90
  -5   3  -6  669.55   20.19
  -5   3  -6  701.97   20.33
  -5   3  -7   38.69    3.78
  -5   3  -7   40.14    2.38
  -5   3  -7   37.89    3.79
   5   3   7   47.95    4.30
  -5   3  -8    9.15    1.55
  -5   3  -8   12.09    2.38
   5   3   8   10.84    2.17
  -5   3  -8    7.41    1.75
  -5   3  -9  235.70   10.25
  -5   3  -9  244.51    8.80
   5   3   9  243.41   10.81
  -5   3  -9  260.45   11.13
  -5   3 -10  628.10   19.49
  -5   3 -10  674.36   17.94
   5   3  10  684.08   20.94
  -5   3 -11 4961.60   97.64
   5   3  11 5024.35  101.29
  -5   3 -12  346.76   12.92
   5   3  12  365.37   14.50
  -5   3 -12  390.93   12.70
  -5   3 -13 2659.28   57.84
  -5   3 -14  599.99   18.34
  -5   3 -15   63.63    5.15
   5   3  15   65.73    6.31
   5   3  15   64.02    5.65
  -5   3 -16   34.66    4.00
   5   3  16   38.20    5.05
   5   3  16   32.78    4.17
  -5   3 -17  108.65    7.32
   5   3  17   90.44    7.70
  -5   3 -18  434.32   16.64
   5   3  18  415.04   18.07
  -5   3 -19 1732.14   43.59
   5   3  19 1604.39   45.06
  -5   3 -20  394.30   16.74
   5   3  20  370.88   17.29
  -5   3 -21  858.04   27.46
   5  -3 -21  812.39   30.49
  -5   3 -22  488.24   19.81
   5  -3 -22  501.86   23.41
  -5   3 -23   76.38    7.59
   5  -3 -23   84.43    9.52
   5   3  23   62.23    6.76
  -5   3 -24  419.69   18.80
   5  -3 -24  416.41   21.29
  -5   3 -25  279.71   15.48
   5  -3 -25  296.33   17.73
  -5   3 -26  553.57   23.03
   5  -3 -26  564.00   25.50
  -5   3 -27 1492.75   43.80
   5  -3 -27 1558.24   47.85
  -5   3 -28  195.00   12.55
   5  -3 -28  186.47   13.57
  -5   3 -29  279.40   14.91
   5  -3 -29  279.37   16.11
  -5   3 -30  117.93    8.95
  -5   3 -30   97.16    9.26
  -5   3 -31   20.26    4.34
  -5  -4 -31    4.45    2.97
  -5  -4 -30   15.31    3.99
  -5  -4 -30   15.35    4.28
   5   4 -29   37.14    6.50
  -5  -4 -29   32.15    5.37
  -5  -4 -29   32.47    5.77
  -5  -4 -28   19.16    4.42
   5   4 -28   17.11    4.84
   5   4 -27   68.68    9.06
  -5  -4 -27   85.71    8.33
   5   4 -26   35.43    6.96
  -5  -4 -26   39.07    6.11
   5   4 -25   78.18    9.78
  -5  -4 -25   74.09    8.01
  -5  -4 -24  129.58   12.20
   5   4 -24   25.58    6.16
   5   4 -23   12.29    4.55
   5   4 -22  102.13   10.83
   5   4 -21  101.86   10.52
   5   4 -20  145.92   12.25
   5   4 -19  292.53   17.20
   5   4 -18   68.38    7.97
   5   4 -17    3.53    2.42
   5   4 -16   23.46    4.74
   5   4 -15   35.12    5.26
  -5   4  14   54.55    4.29
   5   4 -14   50.54    6.00
  -5   4  13   90.39    5.66
   5   4 -13   80.38    7.39
  -5   4  12   41.13    3.90
   5   4 -12   33.18    4.66
   5   4 -11   59.47    5.85
  -5   4  11   64.92    5.29
  -5   4  10   42.95    4.13
   5   4 -10   34.22    4.24
  -5   4  10   36.72    3.82
  -5   4   9  252.69   10.46
  -5   4   9  213.25    9.47
  -5  -4  -9  237.78   10.91
  -5  -4  -9  229.79   10.72
  -5   4   8   22.04    2.99
   5   4  -8   17.35    2.83
  -5  -4  -8   20.20    3.05
  -5   4   8   23.25    2.79
  -5  -4  -8   20.86    3.10
   5  -4   8   18.75    3.09
  -5   4   7   55.20    4.72
  -5  -4  -7   58.81    4.98
  -5   4   7   53.73    4.08
  -5   4   7   58.15    4.44
   5  -4   7   53.21    5.04
  -5  -4  -7   54.39    4.75
  -5  -4  -6    8.24    1.98
  -5   4   6    5.05    1.33
  -5  -4  -6    5.78    1.79
  -5   4   6    7.42    2.03
  -5   4   6    4.68    1.44
  -5   4   5  449.20   14.86
  -5  -4  -5  441.48   14.92
  -5   4   5  397.93   12.28
   5  -4   5  386.04   14.78
  -5   4   5  409.17   13.37
  -5  -4  -5  420.84   14.67
  -5   4   4  232.30   10.05
  -5  -4  -4  227.48    9.89
  -5   4   4  222.01    7.86
   5  -4   4  208.08   10.17
  -5   4   4  220.95    8.88
  -5  -4  -4  211.91    9.45
  -5   4   3  313.81   12.04
  -5  -4  -3  313.44   12.01
  -5  -4  -3  314.48   12.11
  -5   4   3  303.08   10.70
  -5  -4  -2  132.85    7.29
  -5  -4  -2  130.83    7.22
  -5   4   2  129.11    6.34
  -5   4   2  115.39    6.24
  -5  -4  -1  245.37   10.18
  -5  -4  -1  207.46    8.23
  -5   4   1  216.96    8.67
  -5   4   1  233.14    9.19
  -5   4   0   39.04    3.86
  -5  -4   0   41.31    3.88
  -5   4   0   35.30    3.35
  -5  -4   0   39.02    3.25
  -5   4  -1  216.01    9.57
  -5   4  -1  205.19    5.27
  -5   4  -1  217.47    8.93
  -5  -4   1  228.46    9.74
  -5  -4   1  221.05    8.59
  -5   4  -2  131.96    7.11
  -5   4  -2  107.42    2.78
  -5   4  -2  106.86    2.82
  -5   4  -2  130.47    6.55
  -5  -4   2  134.13    6.46
  -5  -4   2  130.51    7.08
  -5   4  -3  300.41   11.87
  -5  -4   3  330.13   11.46
  -5   4  -3  303.70   11.20
  -5   4  -4  225.75    9.92
  -5   4  -4  209.73    8.77
  -5   4  -5  380.62   13.72
  -5   4  -5  376.39   13.09
  -5   4  -6    8.26    1.52
  -5   4  -6    6.26    1.76
  -5   4  -6    3.23    1.49
  -5   4  -7   48.26    4.44
  -5   4  -7   53.62    3.62
  -5   4  -7   50.14    3.43
  -5   4  -7   52.98    4.45
  -5   4  -8   16.94    2.76
  -5   4  -8   19.45    2.29
   5   4   8   19.18    2.83
  -5   4  -8   21.79    3.03
  -5   4  -8   18.96    2.18
  -5   4  -9  215.76   10.07
  -5   4  -9  233.56    8.81
   5   4   9  236.61   10.57
  -5   4  -9  225.86    8.44
  -5   4  -9  246.74   10.80
  -5   4 -10   40.40    4.11
  -5   4 -10   52.55    4.00
   5   4  10   45.81    4.53
  -5   4 -10   46.82    4.59
  -5   4 -11   71.48    5.50
  -5   4 -11   88.76    5.41
   5   4  11   88.28    6.42
  -5   4 -12   43.59    3.89
   5   4  12   47.94    4.90
  -5   4 -13   84.52    5.55
  -5   4 -13  119.03    6.75
  -5   4 -14   52.79    4.63
  -5   4 -15   39.87    4.22
   5   4  15   28.90    4.37
   5   4  15   31.69    4.24
  -5   4 -16   27.54    3.70
   5   4  16   26.30    4.39
   5   4  16   24.35    3.83
   5   4  17    4.01    2.03
  -5   4 -17    2.20    1.74
   5   4  17    4.71    2.46
  -5   4 -18   62.59    5.95
   5   4  18   57.62    5.78
   5   4  18   60.84    6.62
  -5   4 -19  220.27   11.72
   5   4  19  218.68   13.00
  -5   4 -20  156.54   10.12
   5   4  20  141.35   10.50
  -5   4 -21  122.15    9.10
   5   4  21  112.65    9.31
  -5   4 -22  105.07    8.80
   5   4  22  104.21    9.03
   5  -4 -23   16.16    4.78
  -5   4 -23   10.39    3.55
   5   4  23   12.14    3.64
   5  -4 -24   18.41    5.09
  -5   4 -24   21.56    4.54
   5   4  24   19.52    4.20
  -5   4 -25   75.09    7.85
   5  -4 -25   78.92    9.07
   5   4  25   67.46    7.14
  -5   4 -26   32.36    5.54
   5  -4 -26   29.72    6.05
  -5   4 -27   91.49    8.62
   5  -4 -27   78.46    8.87
   5  -4 -28   14.13    4.49
  -5   4 -28   12.54    3.72
  -5   4 -29   30.08    4.96
   5  -4 -29   31.39    5.64
  -5   4 -29   33.97    5.40
  -5   4 -30   13.96    3.59
  -5   4 -30   18.42    4.16
  -5   4 -31    6.68    2.93
  -5  -5 -30  181.54   12.80
   5   5 -29  219.19   14.51
  -5  -5 -29  202.08   14.29
   5   5 -28  115.22   10.81
  -5  -5 -28  126.97    9.77
  -5  -5 -28   92.98    9.79
   5   5 -27  818.00   31.99
  -5  -5 -27  904.66   29.62
   5   5 -26  854.73   34.08
  -5  -5 -26  942.64   31.73
   5   5 -25  341.19   20.01
  -5  -5 -25  365.27   17.92
   5   5 -24  376.44   21.14
   5   5 -23   79.54    9.55
   5   5 -22 1593.94   50.12
   5   5 -21  529.04   24.94
   5   5 -20  344.34   19.31
   5   5 -19 1339.97   43.07
   5   5 -18 1116.59   37.57
   5   5 -17  685.69   27.16
   5   5 -16  336.99   17.49
   5   5 -15   31.30    5.14
  -5   5  14 1174.31   29.39
   5   5 -14 1117.93   35.50
  -5   5  13 1436.96   34.43
   5   5 -13 1315.93   39.24
  -5   5  12  271.62   11.04
   5   5 -12  225.69   12.73
  -5   5  11 2050.58   44.47
  -5   5  11 1737.08   43.90
   5   5 -11 1772.07   47.35
  -5  -5 -11 1952.64   46.57
  -5   5  10 1020.44   26.24
  -5   5  10  889.87   25.12
   5   5 -10  862.77   27.61
  -5  -5 -10  971.34   27.40
  -5   5   9 1134.62   28.36
  -5   5   9  947.06   26.31
   5   5  -9  886.58   28.42
  -5   5   9 1154.36   27.68
  -5  -5  -9 1023.38   28.39
   5   5  -8    7.06    2.14
  -5  -5  -8    5.59    1.88
  -5   5   8    4.80    1.61
  -5   5   8    3.32    1.78
  -5   5   7   65.04    5.38
  -5   5   7   64.00    4.37
  -5   5   7   58.00    4.45
   5  -5   7   54.22    5.28
  -5  -5  -7   63.68    5.34
  -5   5   6 1938.54   44.21
  -5   5   6 1730.64   39.82
  -5  -5  -6 1835.61   44.01
  -5   5   6 1901.09   41.79
   5  -5   6 1747.24   44.34
  -5  -5  -6 1875.76   43.65
  -5   5   5 3054.59   63.31
  -5   5   5 3144.23   65.31
  -5  -5  -5 3012.71   66.81
   5  -5   5 2957.00   68.45
  -5   5   4  156.85    8.49
  -5   5   4  146.10    5.88
   5  -5   4  150.01    8.68
  -5  -5  -4  156.23    8.17
  -5   5   4  155.00    7.23
  -5   5   3 4338.17   86.19
  -5  -5  -3 4422.26   91.44
  -5   5   3 4328.76   89.38
  -5   5   2 3416.86   66.85
  -5  -5  -2 3442.27   72.67
  -5   5   2 3363.20   70.60
  -5   5   1  526.38   11.72
  -5   5   1  525.44   15.70
  -5  -5  -1  515.04   16.54
  -5   5   0   22.62    3.17
  -5  -5   0   21.33    3.10
  -5  -5   0   13.53    1.99
  -5  -5   0   16.74    2.61
  -5   5  -1  528.30   17.17
  -5  -5   1  532.54   17.18
  -5   5  -1  494.80   15.16
  -5  -5   1  490.63   15.99
  -5  -5   1  486.49   14.57
  -5   5  -2 3698.78   76.13
  -5  -5   2 3590.66   73.08
  -5   5  -3 4405.93   90.28
  -5  -5   3 4307.08   87.76
  -5   5  -3 4187.49   87.48
  -5   5  -4  141.63    7.99
  -5   5  -4  137.20    7.01
  -5   5  -5 3227.53   67.79
  -5   5  -5 2980.73   64.82
  -5   5  -6 1718.82   41.71
  -5   5  -6 1736.42   40.15
  -5   5  -7   59.68    5.18
  -5   5  -7   67.33    4.41
  -5   5  -7   57.56    4.70
  -5   5  -7   63.54    4.29
  -5   5  -8    8.66    1.79
  -5   5  -8    4.73    1.69
  -5   5  -8    9.47    1.81
  -5   5  -8    5.99    1.90
  -5   5  -9 1073.65   25.59
  -5   5  -9 1015.80   27.04
  -5   5  -9  994.73   25.02
  -5   5 -10 1071.39   26.87
  -5   5 -10 1116.69   27.03
  -5   5 -10 1163.94   29.45
  -5   5 -11 2034.78   43.76
   5   5  11 1996.33   46.25
  -5   5 -11 2081.82   46.65
  -5   5 -12  275.26   10.85
   5   5  12  261.84   11.75
  -5   5 -13 1075.25   30.32
  -5   5 -13 1458.31   32.73
  -5   5 -14 1188.43   30.66
   5   5  14 1114.09   33.48
   5   5  14 1124.23   32.16
  -5   5 -15   26.09    3.64
   5   5  15   26.29    4.36
   5   5  15   23.23    3.86
  -5   5 -16  363.52   14.60
   5   5  16  348.49   16.32
   5   5  16  372.03   15.74
  -5   5 -17  658.30   21.63
   5   5  17  632.14   22.21
   5   5  17  639.54   23.72
  -5   5 -18 1175.23   32.43
   5   5  18 1095.77   32.46
   5   5  18 1069.41   34.12
  -5   5 -19 1412.05   38.16
   5   5  19 1357.55   38.02
   5   5  19 1377.98   40.55
  -5   5 -20  396.44   16.89
   5   5  20  353.79   15.73
   5   5  20  355.22   17.39
  -5   5 -21  428.62   18.30
   5   5  21  410.56   18.98
  -5   5 -22 1714.87   45.65
   5   5  22 1578.33   45.97
  -5   5 -23   77.60    7.72
   5   5  23   64.74    7.20
  -5   5 -24  355.93   17.03
   5  -5 -24  352.13   18.72
   5   5  24  317.56   16.47
  -5   5 -25  311.55   15.94
   5  -5 -25  337.75   18.42
   5   5  25  280.46   15.26
  -5   5 -26  843.68   29.04
   5   5  26  774.71   27.80
  -5   5 -27  711.96   27.85
  -5   5 -27  847.03   28.12
   5  -5 -27  849.65   30.20
   5   5  27  740.65   25.89
  -5   5 -28  100.19    8.55
   5  -5 -28   88.45    8.85
  -5   5 -28   93.82    8.82
  -5   5 -29  259.58   13.47
  -5   5 -29  216.37   13.23
  -5   5 -30  161.56   10.69
  -5  -6 -29   37.99    5.58
  -5  -6 -29   33.35    5.48
  -5  -6 -28    1.07    2.54
   5   6 -28    0.84    2.74
  -5  -6 -28    3.76    2.75
   5   6 -27   50.80    7.65
  -5  -6 -27   59.94    7.04
  -5  -6 -27   43.69    6.83
  -5  -6 -26   27.43    5.31
   5   6 -26   19.23    5.40
  -5  -6 -26   25.85    5.55
   5   6 -25   38.72    6.94
  -5  -6 -25   33.29    6.29
   5   6 -24   26.04    5.99
   5   6 -23   21.57    5.19
   5   6 -22   90.49   10.08
   5   6 -21   47.57    7.21
   5   6 -20   26.76    5.44
   5   6 -19  107.08   10.35
   5   6 -18   86.63    9.11
   5   6 -17   30.69    5.42
   5   6 -16  107.83    9.78
   5   6 -15   40.44    5.96
  -5   6  14   57.42    4.86
   5   6 -14   52.01    6.58
  -5  -6 -14   66.39    6.39
  -5   6  13   46.63    4.53
   5   6 -13   44.82    5.95
  -5  -6 -13   37.68    4.86
   5   6 -12    1.25    1.79
  -5  -6 -12    3.22    1.94
  -5   6  12    0.76    1.32
  -5   6  11   12.80    2.46
   5   6 -11    9.54    2.88
  -5  -6 -11    9.53    2.41
  -5   6  10   32.16    3.83
   5   6 -10   30.55    4.54
  -5   6  10   24.92    3.20
  -5  -6 -10   33.28    4.07
  -5   6   9   64.19    5.39
   5   6  -9   54.56    5.64
  -5   6   9   59.33    4.58
  -5   6   9   66.30    4.93
  -5   6   8    9.92    1.85
  -5  -6  -8   10.13    2.42
  -5   6   8   14.34    2.38
  -5   6   8   12.29    2.54
  -5   6   7   29.65    3.66
  -5   6   7   27.85    2.79
  -5   6   7   26.94    3.05
  -5  -6  -7   23.83    3.39
  -5   6   6    6.01    1.31
  -5   6   6    8.11    2.00
   5  -6   6    5.37    1.93
  -5   6   6    6.37    1.60
  -5   6   5  174.64    9.22
  -5   6   5  157.02    6.37
   5  -6   5  163.97    9.57
  -5  -6  -5  167.64    8.74
  -5   6   5  186.02    8.12
  -5   6   4   17.63    2.90
  -5   6   4   12.37    1.49
  -5  -6  -4   12.45    2.37
  -5   6   4   12.88    2.12
  -5   6   3  167.97    9.13
  -5  -6  -3  149.82    8.64
  -5   6   3  148.89    5.15
  -5  -6  -3  150.68    7.96
  -5  -6  -2   79.48    6.11
  -5   6   2   72.95    2.63
  -5  -6  -2   81.15    5.55
  -5  -6  -1   86.50    6.40
  -5  -6  -1   85.53    5.70
  -5  -6   0    3.86    1.66
  -5  -6   0    5.99    1.58
  -5  -6   0    4.70    1.24
  -5   6   0    4.32    1.83
  -5   6   0    4.61    1.30
  -5   6  -1   80.85    6.21
  -5  -6   1   77.19    6.03
  -5  -6   1   80.74    4.75
  -5   6  -1   74.53    4.78
  -5   6  -2   86.09    6.39
  -5  -6   2   83.22    6.21
  -5   6  -2   70.16    4.66
  -5  -6   2   75.42    4.77
  -5   6  -3  146.27    8.50
  -5  -6   3  151.42    7.23
  -5   6  -3  148.94    7.09
  -5   6  -4   15.98    2.74
  -5  -6   4   10.17    2.04
  -5   6  -4    9.83    1.90
  -5   6  -5  162.23    8.80
  -5   6  -5  155.94    7.51
  -5   6  -6    6.20    1.55
  -5   6  -6    6.09    1.89
  -5   6  -7   33.83    3.89
  -5   6  -7   32.53    3.37
  -5   6  -7   35.06    3.49
  -5   6  -8   13.51    2.62
  -5   6  -8   11.46    2.05
  -5   6  -8    9.79    2.15
  -5   6  -8   12.90    2.29
  -5   6  -9   53.94    4.96
  -5   6  -9   65.22    4.84
  -5   6  -9   58.60    4.64
  -5   6  -9   62.42    5.03
  -5   6 -10   34.11    3.94
  -5   6 -10   40.15    3.91
  -5   6 -10   38.68    3.88
  -5   6 -10   36.78    3.94
  -5   6 -11   17.16    2.80
  -5   6 -11   12.58    2.50
  -5   6 -12    0.82    1.40
  -5   6 -12    3.20    1.54
  -5   6 -12    1.52    1.30
  -5   6 -13   25.93    3.42
  -5   6 -13   37.29    4.45
   5   6  13   35.06    4.80
  -5   6 -13   38.35    4.10
  -5   6 -14   73.35    6.40
  -5   6 -14   75.04    5.93
   5   6  14   69.91    6.86
   5   6  14   76.97    6.76
   5   6  15   37.94    5.23
  -5   6 -15   33.27    4.07
   5   6  15   42.40    5.11
  -5   6 -16   74.59    6.22
   5   6  16   72.49    7.23
   5   6  16   82.09    7.16
  -5   6 -17   20.04    3.46
   5   6  17   19.62    3.87
  -5   6 -18   50.76    5.50
   5   6  18   57.20    6.11
   5   6  18   50.34    6.31
  -5   6 -19   86.52    7.36
   5   6  19   82.18    7.45
   5   6  19   81.84    8.04
  -5   6 -20   28.17    4.41
   5   6  20   22.91    4.19
   5   6  20   23.41    4.66
  -5   6 -21   64.26    6.68
   5   6  21   61.36    6.35
   5   6  21   59.76    7.04
  -5   6 -22   81.36    7.57
   5   6  22   78.08    8.04
  -5   6 -23   29.60    4.81
   5   6  23   23.69    4.62
  -5   6 -24   35.26    5.72
  -5   6 -24   45.34    5.80
   5   6  24   43.31    5.93
  -5   6 -25   44.02    6.42
  -5   6 -25   52.57    6.48
   5  -6 -25   52.12    7.04
   5   6  25   51.06    6.52
  -5   6 -26   25.50    4.92
   5  -6 -26   23.93    5.41
  -5   6 -26   18.96    4.41
   5   6  26   19.93    4.32
  -5   6 -27   59.42    6.89
  -5   6 -27   68.01    7.07
   5  -6 -27   63.27    7.62
   5   6  27   63.85    6.71
  -5   6 -28    5.59    2.67
  -5   6 -28    2.55    2.46
   5   6  28    2.55    2.19
  -5   6 -29   23.03    3.99
  -5  -7 -28  131.19    9.86
   5   7 -27  318.13   18.17
  -5  -7 -27  262.22   15.53
   5   7 -26  894.71   33.40
  -5  -7 -26  945.07   30.26
   5   7 -25  198.93   14.81
  -5  -7 -25  148.84   11.88
   5   7 -24  483.41   23.70
  -5  -7 -24  385.80   19.86
   5   7 -23  111.46   11.18
  -5  -7 -23   87.39    9.06
   5   7 -22  848.05   32.61
  -5  -7 -22  677.60   27.46
   5   7 -21  246.15   16.44
  -5  -7 -21  194.79   13.23
   5   7 -20  118.33   11.18
  -5  -7 -20   96.51    8.96
   5   7 -19 1079.37   37.15
  -5  -7 -19  915.17   31.77
   5   7 -18 1025.10   35.67
  -5  -7 -18  876.75   30.32
   5   7 -17  399.49   20.41
  -5  -7 -17  358.44   16.93
   5   7 -16  241.42   15.33
  -5  -7 -16  197.27   11.96
   5   7 -15  181.85   12.95
  -5  -7 -15  151.11   10.11
  -5   7  14 3122.35   65.48
   5   7 -14 3007.74   74.09
   5   7 -13  331.86   17.36
  -5  -7 -13  305.17   14.29
  -5   7  12  316.15   13.10
   5   7 -12  281.94   15.34
  -5  -7 -12  270.51   13.02
  -5   7  11 1070.64   28.87
  -5  -7 -11  915.76   28.35
  -5   7  10 2126.33   49.27
  -5  -7 -10 1946.75   49.04
  -5   7   9 1694.48   41.76
  -5   7   9 1691.92   40.15
  -5   7   9 1658.02   38.90
  -5  -7  -9 1592.30   41.38
  -5   7   8  237.37   11.46
  -5   7   8  233.49   10.29
  -5   7   8  236.24    9.86
  -5  -7  -8  224.64   10.85
  -5   7   7  518.96   18.23
  -5   7   7  506.81   16.42
  -5  -7  -7  476.11   17.12
  -5   7   7  511.31   15.96
  -5   7   6 2454.36   56.30
  -5  -7  -6 2310.95   54.58
  -5   7   6 2447.83   52.81
  -5   7   5 1393.54   36.21
  -5  -7  -5 1358.00   34.57
  -5   7   4  186.82   10.01
  -5  -7  -4  195.68    9.40
  -5   7   3 1503.79   37.51
  -5  -7  -3 1388.14   34.98
  -5  -7  -2 1917.63   44.20
  -5  -7  -1  867.17   23.52
  -5   7   0   57.49    5.28
   5   7   0   59.62    4.69
  -5   7  -1  929.66   26.24
  -5   7  -1  864.71   22.40
  -5   7  -2 2007.38   46.91
  -5   7  -2 1903.47   42.63
  -5   7  -3 1379.13   35.56
  -5  -7   3 1368.05   32.34
  -5   7  -3 1368.31   31.93
  -5   7  -4  142.72    8.52
  -5   7  -4  141.71    6.87
  -5  -7   4  155.01    7.47
  -5   7  -5 1370.75   36.26
  -5  -7   5 1449.70   34.52
  -5   7  -5 1390.74   32.92
  -5   7  -6 2261.57   53.22
  -5   7  -6 2268.96   49.69
  -5   7  -7  433.87   16.58
  -5   7  -7  484.93   15.91
  -5   7  -7  455.36   14.63
  -5   7  -8  241.29   11.55
  -5   7  -8  228.30    9.56
  -5   7  -8  252.41   10.79
  -5   7  -9 1633.96   38.09
  -5   7  -9 1532.96   36.80
  -5   7 -10 2192.39   47.62
  -5   7 -10 2028.97   46.97
  -5   7 -10 2103.98   47.74
  -5   7 -11 1078.33   27.68
  -5   7 -11 1033.65   27.75
  -5   7 -12  317.28   12.82
   5   7  12  324.16   15.12
  -5   7 -12  355.82   13.57
  -5   7 -13  260.88   11.67
  -5   7 -13  296.22   12.43
   5   7  13  265.59   13.78
   5   7  13  291.08   13.82
  -5   7 -14 3208.85   72.23
  -5   7 -14 3349.09   72.33
   5   7  14 3223.82   75.85
   5   7  14 3245.63   74.91
  -5   7 -15  190.95   10.44
  -5   7 -15  188.35   10.13
   5   7  15  166.49   11.11
   5   7  15  192.23   11.33
  -5   7 -16  243.15   12.33
  -5   7 -16  243.64   11.99
   5   7  16  237.71   12.87
   5   7  16  225.54   13.23
  -5   7 -17  400.74   16.98
  -5   7 -17  412.56   16.59
   5   7  17  398.27   17.50
   5   7  17  404.94   18.59
  -5   7 -18 1126.79   33.44
  -5   7 -18 1097.99   32.20
   5   7  18 1106.72   33.62
   5   7  18 1125.38   35.17
  -5   7 -19 1074.76   33.00
  -5   7 -19 1072.21   31.95
   5   7  19 1125.07   33.46
   5   7  19 1043.58   34.10
  -5   7 -20  117.80    9.26
  -5   7 -20  116.43    8.78
   5   7  20  126.83    9.31
   5   7  20  121.26    9.81
  -5   7 -21  203.24   12.46
  -5   7 -21  207.90   12.01
   5   7  21  201.49   11.79
   5   7  21  197.04   12.72
  -5   7 -22  807.03   28.26
  -5   7 -22  832.71   27.59
   5   7  22  836.30   26.92
   5   7  22  799.47   28.63
  -5   7 -23  108.77    9.16
  -5   7 -23  111.39    8.88
   5   7  23  106.30    9.12
  -5   7 -24  412.51   18.62
  -5   7 -24  441.38   18.79
   5   7  24  413.52   18.83
  -5   7 -25  197.23   12.17
  -5   7 -25  207.74   12.36
   5   7  25  186.13   12.05
  -5   7 -26  726.49   25.95
  -5   7 -26  833.01   27.45
   5  -7 -26  833.42   29.40
   5   7  26  735.74   26.40
  -5   7 -27  351.61   16.20
   5  -7 -27  349.55   17.52
   5   7  27  325.34   15.48
  -5   7 -28   98.34    8.10
   5   7  28   93.43    7.67
  -5  -8 -27   22.69    4.58
   5   8 -24    8.47    3.97
   5   8 -23   49.35    7.40
   5   8 -22   50.56    7.64
   5   8 -21   12.44    4.44
   5   8 -20    9.19    3.85
  -5  -8 -20    7.15    2.91
   5   8 -19   23.15    5.41
  -5  -8 -19   11.58    3.37
   5   8 -18   15.97    4.85
  -5  -8 -18   12.92    3.31
   5   8 -17   17.86    4.91
  -5  -8 -17   23.98    4.22
   5   8 -16  115.14   10.62
  -5  -8 -16   91.00    7.59
   5   8 -15    2.76    2.69
  -5  -8 -15    1.94    1.45
  -5  -8 -14   51.44    5.58
  -5   8  14   61.12    5.43
  -5   8  13   27.10    3.87
  -5   8  12   79.93    6.54
  -5   8  11    9.85    2.53
  -5   8  10    9.55    2.68
  -5   8  10    9.04    2.33
  -5   8   9   41.19    4.78
  -5   8   9   30.37    3.77
  -5   8   8  144.60    8.11
  -5   8   8  149.73    9.37
  -5   8   7   23.20    3.22
  -5   8   7   26.21    4.02
  -5   8   6   34.91    4.55
  -5   8   6   35.01    3.82
  -5   8   5  135.73    8.78
  -5   8   5  130.67    7.29
  -5   8   4   78.56    6.63
  -5   8   3   38.92    4.71
   5   8  -1  131.12    7.59
   5   8   0   14.78    2.64
  -5   8   0   18.04    3.30
  -5   8  -1  145.57    9.07
  -5   8  -2    8.02    2.49
  -5   8  -3   35.00    4.42
  -5   8  -4   80.54    6.63
  -5   8  -5  117.19    8.05
  -5   8  -6   29.55    3.04
  -5   8  -6   27.49    3.94
  -5   8  -7   16.56    3.03
  -5   8  -7   15.98    2.39
  -5   8  -7   22.50    3.68
  -5   8  -8  132.25    6.90
  -5   8  -8  146.83    8.44
  -5   8  -8  136.80    8.90
  -5   8  -9   24.30    3.61
  -5   8  -9   24.56    3.01
  -5   8  -9   26.06    3.93
  -5   8 -10    8.82    2.66
  -5   8 -10    7.02    1.78
  -5   8 -11   12.46    2.24
  -5   8 -11   15.22    3.29
  -5   8 -11   13.79    2.97
  -5   8 -12   69.35    6.14
  -5   8 -12   82.33    5.89
   5   8  12   88.29    7.73
   5   8  12   91.44    7.61
  -5   8 -13   15.22    3.00
  -5   8 -13   22.74    3.32
  -5   8 -13   20.62    3.43
   5   8  13   23.89    4.33
   5   8  13   18.43    3.79
  -5   8 -14   50.98    4.93
  -5   8 -14   44.25    4.71
   5   8  14   60.65    6.56
  -5   8 -14   63.69    5.85
   5   8  14   59.54    6.35
   5   8  15    1.76    2.25
  -5   8 -15    5.49    1.86
  -5   8 -15    4.34    2.16
   5   8  15    0.41    2.21
  -5   8 -16  124.46    8.10
  -5   8 -16  138.80    9.09
   5   8  16  126.72    9.39
   5   8  16  129.19   10.04
  -5   8 -17   22.52    3.67
  -5   8 -17   26.56    4.22
   5   8  17   27.82    4.85
   5   8  17   28.09    4.99
   5   8  18   19.10    3.95
  -5   8 -18   14.63    3.34
  -5   8 -18   13.04    3.36
   5   8  18   15.50    4.05
   5   8  19   19.36    4.12
  -5   8 -19   19.64    3.56
  -5   8 -19   21.29    4.11
   5   8  19   21.79    4.56
   5   8  20    6.06    2.72
  -5   8 -20   11.52    2.94
  -5   8 -20    7.88    2.76
   5   8  20    6.81    3.06
  -5   8 -21   12.56    3.19
  -5   8 -21   20.09    3.84
   5   8  21   11.34    3.61
   5   8  21   19.67    3.99
  -5   8 -22   80.07    7.14
  -5   8 -22   86.19    7.74
   5   8  22   78.24    7.12
   5   8  22   83.62    8.12
  -5   8 -23   46.16    5.42
  -5   8 -23   51.72    6.15
   5   8  23   42.72    5.32
   5   8  23   46.43    6.19
  -5   8 -24    8.69    2.99
   5   8  24    8.28    3.05
  -5   8 -25   38.92    5.30
   5   8  25   34.66    5.30
  -5   8 -26   44.59    5.65
   5  -8 -26   49.02    6.40
   5   8  26   46.12    5.78
   5   8  27   14.60    3.40
   5   8  28    8.69    2.84
  -5   9  12  119.31    7.98
  -5   9  12  130.25    8.65
  -5   9  11  334.25   14.58
  -5   9  11  295.67   13.07
  -5   9  10 1295.69   36.10
  -5   9  10 1295.39   34.15
  -5   9   9 1316.03   36.84
  -5   9   9 1323.02   34.39
  -5   9   8   99.20    6.83
  -5   9   8  100.81    8.04
  -5   9   7  795.00   26.17
  -5   9   7  800.18   23.41
  -5   9   6 1822.36   47.73
  -5   9   6 1895.63   44.19
  -5   9   5  807.12   26.30
  -5   9   5  788.01   22.70
  -5   9   4   64.68    6.48
  -5   9   3  532.29   20.31
   5   9  -1  820.54   24.31
  -5   9   0   67.60    6.52
   5   9   0   58.13    5.17
  -5   9  -1  877.03   27.07
   5   9   1  786.23   23.29
  -5   9  -2 1403.86   38.62
  -5   9  -3  489.74   19.04
  -5   9  -4   51.50    5.70
  -5   9  -5  762.69   25.20
  -5   9  -6 1683.91   44.17
  -5   9  -7  692.35   24.14
  -5   9  -7  769.40   23.76
  -5   9  -8  149.91    9.81
  -5   9  -8  155.10    9.32
  -5   9  -9 1062.18   32.71
   5   9   9 1113.86   32.85
  -5   9 -10 1271.75   33.69
   5   9  10 1206.89   34.59
  -5   9 -11  331.08   14.40
   5   9  11  318.06   15.08
  -5   9 -12  119.14    8.51
  -5   9 -12  105.81    7.83
   5   9  12  105.17    8.52
  -5   9 -13  164.95    9.83
   5   9  13  212.17   12.22
   5   9  14  903.78   30.03
   5   9  14  939.23   30.07
   5   9  15  641.39   23.71
   5   9  15  646.87   24.31
   5   9  16  195.44   11.99
   5   9  16  191.87   12.36
   5   9  17  420.90   18.61
   5   9  17  429.04   19.41
   5   9  18  732.12   25.88
   5   9  18  708.48   26.23
   5   9  19  231.56   13.13
   5   9  19  231.26   13.67
   5   9  20  272.41   14.22
   5   9  20  266.60   14.77
   5   9  21  168.33   10.70
   5   9  21  165.33   11.39
   5   9  22  462.71   18.57
   5   9  22  434.34   19.37
   5   9  23  380.26   17.73
   5   9  23  410.09   16.86
   5   9  24  208.34   12.46
   5   9  25  164.90   10.73
   5   9  26  438.36   17.82
   5   9  27   43.43    5.14
  -5  10  15   52.69    5.13
  -5  10  12    5.82    2.30
  -5  10  11   33.73    4.37
  -5  10  11   33.57    4.79
  -5  10  10   23.91    3.72
  -5  10  10   27.91    4.33
  -5  10   9   11.02    2.71
  -5  10   9   12.40    3.15
  -5  10   8   16.90    3.55
  -5  10   8   14.22    2.91
  -5  10   7   95.84    8.08
  -5  10   7   93.69    6.67
  -5  10   6   49.35    5.92
  -5  10   6   48.59    4.68
  -5  10   5   33.32    4.99
  -5  10   5   29.90    3.61
  -5  10   4    9.62    2.99
  -5  10   3   17.39    3.66
   5  10  -2    9.30    2.64
   5  10  -1    5.19    2.14
  -5  10   0    4.89    2.23
   5  10   0    4.37    1.95
  -5  10  -1    6.62    2.63
   5  10   1    4.85    1.95
  -5  10  -2   12.61    3.15
  -5  10  -3   13.64    3.39
  -5  10  -4   11.32    2.93
  -5  10  -5   33.64    4.86
  -5  10  -6   39.89    5.23
  -5  10  -6   40.32    5.01
  -5  10  -7   85.23    7.52
   5  10   7   72.77    6.63
  -5  10  -7   88.30    7.32
  -5  10  -8   13.67    3.15
   5  10   8   18.20    3.55
  -5  10  -8   12.19    3.20
   5  10   9   16.17    3.71
  -5  10  -9   20.20    3.93
  -5  10  -9   12.01    3.17
   5  10   9   17.94    3.71
  -5  10 -10   31.90    4.79
  -5  10 -10   25.83    4.11
   5  10  10   31.03    4.72
   5  10  10   26.57    4.46
  -5  10 -11   34.52    4.99
  -5  10 -11   28.62    4.37
   5  10  11   29.66    4.77
   5  10  11   33.14    4.98
  -5  10 -12    8.43    3.19
   5  10  12    4.22    2.57
   5  10  12    6.29    2.95
   5  10  13   23.90    4.50
   5  10  14   90.89    8.15
   5  10  15   52.16    6.39
   5  10  16    1.89    2.61
   5  10  16    0.87    2.38
   5  10  17    6.29    3.03
   5  10  17    5.19    3.08
   5  10  18   27.12    4.75
   5  10  18   26.32    4.82
   5  10  19   10.22    3.29
   5  10  19    5.64    2.88
   5  10  20   13.52    3.48
   5  10  20    9.67    3.31
   5  10  21    3.74    2.13
   5  10  21    4.61    2.83
   5  10  22   15.04    3.51
   5  10  22   14.92    3.80
   5  10  23   46.03    5.97
   5  10  23   45.47    5.22
   5  10  24   10.39    2.66
   5  10  24   11.73    3.21
   5  10  25   19.28    3.76
   5  10  26   21.30    3.82
  -5  11  15  987.13   28.07
  -5  11  14  791.06   24.81
  -5  11  13   46.26    5.37
  -5  11  11   28.47    4.08
  -5  11  10  629.20   20.98
  -5  11   9 1227.83   33.11
  -5  11   8  147.19   10.50
  -5  11   8  140.98    8.54
  -5  11   7 1266.07   37.60
  -5  11   7 1258.52   33.23
  -5  11   6  940.33   30.59
  -5  11   6  903.63   25.92
  -5  11   5  100.69    8.70
  -5  11   4    1.69    1.86
  -5  11   3   29.35    4.78
   5  11  -1 1816.25   46.35
   5  11   0  165.48    9.89
  -5  11   0  162.94   11.23
   5  11   1 1758.58   45.44
  -5  11  -1 1964.05   50.05
  -5  11  -2  707.61   25.42
  -5  11  -3   46.86    5.87
  -5  11  -4    5.15    2.35
   5  11   4   12.31    2.94
  -5  11  -5   98.25    8.49
   5  11   5  107.81    7.92
  -5  11  -6  867.56   27.32
  -5  11  -6  786.97   27.59
   5  11   6  809.44   26.08
  -5  11  -7 1167.87   35.74
  -5  11  -7 1238.33   35.27
   5  11   7 1179.51   34.16
  -5  11  -8  129.85    9.79
  -5  11  -8  132.76    9.49
   5  11   8  121.96    8.94
  -5  11  -9 1173.34   34.67
   5  11   9 1165.10   34.33
   5  11   9 1209.25   35.52
  -5  11 -10  677.82   23.61
   5  11  10  612.60   22.73
   5  11  10  645.99   23.83
  -5  11 -11   27.43    5.04
   5  11  11   26.70    4.40
   5  11  11   24.26    4.57
   5  11  12   12.91    3.66
   5  11  12   14.99    3.71
   5  11  13   40.10    5.67
   5  11  13   38.14    5.54
   5  11  14  835.26   27.19
   5  11  14  823.20   26.97
   5  11  15 1041.39   32.99
   5  11  16  120.76    9.56
   5  11  17 1129.32   34.70
   5  11  18  290.58   14.77
   5  11  18  260.31   14.30
   5  11  19    5.13    2.59
   5  11  19    2.07    2.35
   5  11  20   42.47    5.37
   5  11  20   34.48    5.20
   5  11  21   14.52    3.41
   5  11  21   14.14    3.69
   5  11  22   95.51    8.06
   5  11  22  108.56    8.01
   5  11  23  679.42   23.68
   5  11  23  663.14   22.05
   5  11  24  195.58   11.17
   5  11  24  196.99   10.15
   5  11  25  265.87   12.71
  -5  12  14   25.60    4.00
  -5  12  13   22.70    3.95
  -5  12  12   11.30    3.22
  -5  12  11   17.22    3.72
  -5  12   3   15.54    3.96
   5  12  -3   11.94    2.52
   5  12  -2    2.84    1.60
   5  12  -1   19.28    3.92
   5  12  -1   12.54    2.68
   5  12   0    6.34    2.66
  -5  12   0    3.16    2.77
   5  12   0    4.33    1.92
  -5  12  -1   19.17    4.19
   5  12   1   15.73    3.52
   5  12   1   26.94    3.75
  -5  12  -2    7.40    3.08
   5  12   2    9.06    2.52
  -5  12  -3   15.85    3.93
   5  12   3   16.28    3.27
   5  12   4    1.48    2.08
   5  12   4    3.07    2.02
  -5  12  -5   27.77    4.73
   5  12   5   27.38    4.21
   5  12   5   26.91    4.51
  -5  12  -6   19.22    4.10
   5  12   6   22.75    3.94
   5  12   6   22.48    4.15
  -5  12  -7    3.77    2.63
   5  12   7    2.74    2.30
   5  12   7    4.02    2.29
  -5  12  -8   12.62    3.57
   5  12   8    9.29    2.88
  -5  12  -9   29.13    4.90
   5  12   9   23.82    4.23
  -5  12 -10    9.06    3.79
   5  12  10    7.70    2.98
   5  12  10    7.99    2.74
  -5  12 -11   18.81    4.62
   5  12  11   15.39    3.70
   5  12  11   14.71    3.62
   5  12  12    9.43    3.05
  -5  12 -12    7.37    2.80
   5  12  12    9.04    3.12
  -5  12 -13   14.93    3.34
   5  12  13   22.59    4.37
   5  12  13   16.13    3.81
  -5  12 -14   19.76    3.61
   5  12  14   21.31    4.33
   5  12  14   28.38    4.75
   5  12  15   12.83    3.67
   5  12  15   10.93    3.30
   5  12  16    4.10    2.62
   5  12  16    2.97    2.28
   5  12  17   19.66    4.18
   5  12  18   12.39    3.44
   5  12  19    3.50    2.29
   5  12  20    6.16    2.47
   5  12  20    4.05    2.48
   5  12  21    2.68    2.12
   5  12  21    4.86    2.61
   5  12  22   12.44    3.07
   5  12  22    9.81    2.93
   5  12  23   64.42    6.13
   5  12  23   64.89    5.76
   5  12  24    4.64    2.28
  -5  13  14  305.45   13.52
  -5  13  13    4.59    2.44
  -5  13  12    3.28    2.42
  -5  13  11   22.45    4.35
  -5  13  10  194.26   11.80
  -5  13   9  862.15   29.11
   5  13  -7 1322.30   35.19
   5  13  -6  279.43   12.76
   5  13  -5    6.05    2.28
   5  13  -4   11.14    2.84
   5  13  -3   16.49    3.44
   5  13  -2  206.83   11.26
   5  13  -1 1185.84   31.65
   5  13  -1 1268.39   34.84
   5  13   0   98.52    8.42
   5  13   0  111.13    7.32
   5  13   0  116.98    8.58
   5  13   1 1248.71   33.51
   5  13   1 1303.72   36.37
   5  13   2  210.15   10.73
   5  13   2  231.28   12.41
   5  13   3    8.60    2.90
   5  13   3   10.89    2.78
  -5  13  -4    7.11    3.14
   5  13   4    8.57    3.01
   5  13   4    6.45    2.36
  -5  13  -5    7.29    3.08
   5  13   5    9.68    3.17
   5  13   5   11.25    3.01
  -5  13  -6  267.54   14.46
   5  13   6  279.68   13.44
   5  13   6  285.64   14.43
  -5  13  -7 1352.55   39.78
   5  13   7 1410.76   38.20
   5  13   7 1403.03   39.48
  -5  13  -8   94.37    8.45
   5  13   8   96.60    8.30
   5  13   8   90.13    7.56
  -5  13  -9  853.92   28.32
   5  13   9  861.38   27.08
  -5  13 -10  197.58   12.19
   5  13  10  192.72   11.29
  -5  13 -11   20.87    4.73
  -5  13 -11   17.01    3.86
   5  13  11   13.32    3.66
   5  13  11   16.38    3.64
  -5  13 -12    5.45    2.45
   5  13  12    3.65    2.59
   5  13  12    7.98    3.02
  -5  13 -13    3.88    2.23
   5  13  13    1.81    2.34
   5  13  13    3.73    2.51
   5  13  14  329.24   15.95
   5  13  14  325.55   15.25
   5  13  15 1008.37   31.34
   5  13  15  968.50   30.31
   5  13  16   80.18    7.46
   5  13  16   89.37    7.57
   5  13  17  499.33   19.63
   5  13  17  488.74   19.22
   5  13  18  120.19    8.74
   5  13  18  125.08    8.85
   5  13  19   58.29    5.92
   5  13  19   56.74    5.92
   5  13  20   10.98    2.91
   5  13  21    6.13    2.46
   5  13  22   86.06    6.63
   5  13  23  771.53   23.53
  -5  14  13   13.39    3.05
  -5  14  12   13.96    3.31
  -5  14  11   15.64    3.60
  -5  14  10   15.76    3.75
  -5  14   9   16.17    3.63
  -5  14   8    7.74    3.04
  -5  14   7    6.83    2.73
  -5  14   6    8.78    3.21
   5  14  -6    4.09    1.95
  -5  14   5    2.56    2.52
   5  14  -5    1.66    1.78
  -5  14   4    3.06    2.74
   5  14  -4    2.19    1.75
  -5  14   3    3.08    2.46
   5  14  -3    0.32    1.80
   5  14  -2   19.34    3.36
   5  14  -1    9.31    2.85
   5  14   0   -0.17    1.83
   5  14   1   15.13    3.31
   5  14   1   14.46    2.87
   5  14   2   13.92    3.47
   5  14   2   14.06    2.83
  -5  14  -3    2.63    2.24
   5  14   3   -0.55    1.96
  -5  14  -3    2.79    2.48
   5  14   3    0.57    1.47
  -5  14  -4    0.22    3.39
  -5  14  -4    1.15    2.69
   5  14   4    1.50    2.00
   5  14   4    2.99    1.91
  -5  14  -5    1.71    2.89
  -5  14  -5    2.06    2.44
   5  14   5    1.13    2.04
   5  14   5    0.46    1.60
  -5  14  -6    4.66    2.83
  -5  14  -6    4.91    2.93
   5  14   6    5.70    2.56
   5  14   6    5.19    2.28
  -5  14  -7    1.90    2.64
  -5  14  -7    4.63    2.57
   5  14   7    1.92    2.45
   5  14   7    1.29    1.72
  -5  14  -8    7.29    3.50
  -5  14  -8    5.24    2.74
   5  14   8    7.94    2.82
   5  14   8    6.61    2.59
  -5  14  -9   23.24    4.91
   5  14   9   15.79    3.70
  -5  14  -9   18.54    3.94
   5  14   9   19.63    3.67
  -5  14 -10   15.53    4.30
  -5  14 -10   13.73    3.62
   5  14  10   10.72    2.93
  -5  14 -11   12.27    3.32
   5  14  11   15.35    3.31
  -5  14 -12   14.12    3.40
   5  14  12   14.11    3.26
  -5  14 -13    7.27    2.52
   5  14  13   12.34    3.43
   5  14  13   11.29    3.00
   5  14  14    5.58    2.69
   5  14  14    7.77    2.78
   5  14  15   14.81    3.48
   5  14  15   15.73    3.46
   5  14  16    1.91    2.04
   5  14  16    2.29    2.02
   5  14  17    9.76    2.80
   5  14  17    7.79    2.60
   5  14  18    2.55    1.83
   5  14  18    1.24    1.93
   5  14  19    5.18    2.22
   5  14  19    5.53    2.34
   5  14  20    1.26    1.74
   5  14  20    0.71    1.64
   5  14  21    1.59    1.69
  -5  15  12    1.88    1.91
  -5  15  11   33.83    4.72
  -5  15  10    5.83    2.58
  -5  15   9  451.01   18.79
  -5  15   8   91.77    8.18
  -5  15   7  925.90   30.59
  -5  15   6   13.60    3.80
  -5  15   5    7.35    3.34
  -5  15   4   23.37    4.76
   5  15  -4   23.69    3.67
   5  15  -3    4.13    2.07
  -5  15   3    2.55    2.60
   5  15  -2   10.98    2.83
   5  15  -1  918.23   27.48
  -5  15   0   99.41    9.05
   5  15   0   86.98    7.07
  -5  15  -1  894.98   30.69
  -5  15  -1  888.90   30.73
   5  15   1  884.74   27.33
  -5  15  -2   11.25    3.78
  -5  15  -2   14.95    3.98
   5  15   2   19.28    3.63
  -5  15  -3    0.22    3.11
  -5  15  -3    0.46    2.43
   5  15   3    2.27    2.03
  -5  15  -4   12.17    3.88
  -5  15  -4   13.30    3.94
   5  15   4   22.76    4.08
  -5  15  -5    7.49    3.44
  -5  15  -5   10.71    3.51
   5  15   5    7.95    2.86
   5  15   5    9.33    2.45
  -5  15  -6   11.57    3.73
  -5  15  -6   14.45    3.77
   5  15   6   18.45    3.84
   5  15   6   10.23    2.67
  -5  15  -7  950.06   30.53
  -5  15  -7  860.89   30.02
   5  15   7  965.27   29.51
   5  15   7  928.46   26.92
  -5  15  -8   66.08    7.27
  -5  15  -8   62.77    6.95
   5  15   8   75.08    7.00
   5  15   8   67.40    5.98
  -5  15  -9  469.12   19.69
  -5  15  -9  423.39   18.88
   5  15   9  498.37   19.28
   5  15   9  476.46   17.43
  -5  15 -10   13.19    4.18
  -5  15 -10    5.97    2.62
   5  15  10    9.78    3.02
   5  15  10    9.50    2.70
  -5  15 -11   29.05    4.57
   5  15  11   35.39    4.94
   5  15  11   30.40    4.18
  -5  15 -12    2.20    1.95
   5  15  12    3.34    2.15
   5  15  13    2.41    1.85
   5  15  14   41.81    4.84
   5  15  14   45.69    5.32
   5  15  15  903.27   26.81
   5  15  15  939.86   27.76
   5  15  16   44.99    4.86
   5  15  16   40.99    4.84
   5  15  17  263.53   12.27
   5  15  17  261.05   11.83
   5  15  18    7.11    2.36
   5  15  18    8.72    2.43
  -5  16  11    5.58    2.31
  -5  16  10    2.08    1.96
  -5  16   9    5.18    2.54
  -5  16   8    1.10    2.28
  -5  16   7    5.03    2.65
  -5  16   6    4.00    2.62
  -5  16   5    1.24    2.15
  -5  16   4    5.12    2.80
  -5  16   3    4.54    2.60
  -5  16   1   -0.23    3.15
   5  16  -1    1.42    1.36
  -5  16   0   -1.35    3.45
  -5  16   0   -0.22    2.49
   5  16   0   -0.29    1.61
  -5  16  -1    0.45    3.13
  -5  16  -1    1.52    2.35
   5  16   1    0.91    1.59
  -5  16  -2    6.34    3.21
  -5  16  -2    8.21    3.33
   5  16   2   11.02    2.86
  -5  16  -3    3.21    2.74
  -5  16  -3    0.64    2.09
   5  16   3    2.86    1.95
  -5  16  -4    4.00    3.05
   5  16   4    7.95    2.66
  -5  16  -4    6.76    2.99
  -5  16  -5   -0.82    3.07
  -5  16  -5    0.42    2.25
   5  16   5    0.33    1.73
  -5  16  -6    4.99    3.34
  -5  16  -6    2.42    2.48
   5  16   6    3.80    2.25
  -5  16  -7    6.69    3.72
  -5  16  -7    1.39    2.17
   5  16   7    3.80    2.29
  -5  16  -8    4.67    3.43
  -5  16  -8    1.92    2.08
   5  16   8    1.81    1.92
  -5  16  -9    6.73    3.52
  -5  16  -9    2.95    2.22
   5  16   9    2.78    2.15
  -5  16 -10    2.61    2.09
   5  16  10    3.52    2.21
  -5  16 -11    4.70    2.24
   5  16  11    4.06    2.28
   5  16  11    4.76    1.94
  -5  16 -12    1.60    1.67
   5  16  12    1.05    1.80
   5  16  12   -0.13    1.43
   5  16  13    3.53    1.85
   5  16  14    6.59    2.22
   5  16  15   14.53    2.99
   5  16  16    2.05    1.74
  -5  17  10   34.59    4.16
  -5  17   9  308.77   13.20
  -5  17   8   46.06    5.24
  -5  17   7  500.24   18.84
  -5  17   6   36.11    5.00
  -5  17   5   36.01    5.01
  -5  17   4    4.97    3.06
  -5  17   4    6.36    2.75
  -5  17   3    1.46    3.12
  -5  17   3    5.16    2.42
  -5  17   2   36.35    5.62
  -5  17   1  601.05   23.05
  -5  17   0   51.17    6.56
  -5  17   0   61.53    6.63
  -5  17  -1  584.38   22.37
  -5  17  -1  560.49   21.62
  -5  17  -2   24.33    4.72
  -5  17  -2   28.15    4.72
   5  17   2   26.30    3.67
  -5  17  -3    4.14    2.96
  -5  17  -3    1.71    2.08
   5  17   3    0.41    1.52
  -5  17  -4    5.56    3.17
  -5  17  -4    3.93    2.46
   5  17   4    5.91    2.24
  -5  17  -5   40.08    5.65
  -5  17  -5   41.33    5.26
   5  17   5   39.64    4.41
  -5  17  -6   38.39    5.52
  -5  17  -6   29.68    4.57
   5  17   6   34.75    4.35
  -5  17  -7  529.70   19.94
   5  17   7  510.13   17.71
  -5  17  -8   49.96    5.65
   5  17   8   59.83    5.43
  -5  17  -9  258.97   12.64
   5  17   9  312.70   12.82
  -5  17 -10   40.40    4.75
   5  17  10   40.16    4.50
   5  17  11    8.86    2.25
   5  17  12    8.96    2.43
  -5  18   7   -0.16    2.22
  -5  18   6    0.16    2.14
  -5  18   5    3.20    2.07
  -5  18   5   -0.50    2.47
  -5  18   4    1.21    1.70
  -5  18   4   -2.41    2.79
  -5  18   3    1.57    1.96
  -5  18   3   -0.17    2.65
  -5  18   2    0.96    1.76
  -5  18   2   -0.18    2.51
  -5  18   1    1.60    2.53
  -5  18   0    0.98    1.79
  -5  18   0   -0.53    2.62
  -5  18  -1    3.72    2.27
  -5  18  -1    3.86    2.67
  -5  18  -2    1.44    1.87
  -5  18  -2    3.63    2.82
  -5  18  -3    0.32    1.89
  -5  18  -3    2.03    2.62
  -5  18  -4    1.85    1.83
  -5  18  -4    4.55    2.88
  -5  18  -5    2.85    1.97
  -5  18  -5    4.79    3.00
  -5  18  -6    1.30    1.79
  -6   0   0  863.14   23.95
  -6   0   0  775.99   21.80
  -6   0  -1    0.48    0.66
  -6   0   1    1.88    1.10
  -6   0  -1    3.76    1.25
  -6   0   1    2.36    1.25
  -6   0  -1    2.34    1.31
  -6   0  -2 1258.66   29.60
  -6   0  -2 1279.95   32.43
  -6   0   2 1204.49   30.73
  -6   0   2 1302.43   32.72
  -6   0  -3  365.41   11.84
  -6   0   3  375.94   14.16
  -6   0   3  381.61   13.32
  -6   0  -3  378.50   14.00
  -6   0  -4 6321.02  120.88
  -6   0   4 6135.39  122.97
  -6   0  -5  305.27   10.60
  -6   0   5  319.86   12.27
  -6   0  -5  309.95   12.41
  -6   0  -6  549.20   15.46
  -6   0  -6  521.75   17.44
  -6   0  -7   10.80    1.86
  -6   0  -7   11.60    2.50
  -6   0  -8  466.43   14.39
   6   0   8  442.66   16.68
  -6   0  -8  454.05   16.08
  -6   0  -9    9.34    1.91
  -6   0  -9   10.06    2.33
  -6   0 -10 2061.35   46.11
  -6   0 -10 2048.54   49.36
  -6   0 -11  601.16   17.96
  -6   0 -11  571.89   20.18
  -6   0 -12 5171.71  104.70
  -6   0 -12 5457.74  102.64
  -6   0  13   65.73    4.61
  -6   0 -13   48.48    4.40
  -6   0 -13   59.64    5.02
  -6   0 -13   61.87    4.46
  -6   0  14  475.47   14.77
  -6   0 -14  447.41   14.88
  -6   0 -15    4.44    1.57
  -6   0 -16   13.68    2.70
   6   0  16   20.62    3.71
   6   0  17   61.94    6.18
  -6   0 -17   63.36    5.54
  -6   0 -18 1883.39   46.53
  -6   0 -19  235.58   12.12
  -6   0 -20 3569.34   80.68
  -6   0 -21   44.17    5.50
  -6   0 -22   97.17    8.15
  -6   0 -23   62.63    6.60
  -6   0 -24   11.28    3.40
  -6   0 -25  118.37    9.20
  -6   0 -26  850.13   28.48
  -6   0 -27   95.33    8.21
  -6   0 -27   87.71    9.53
  -6   0 -28 1057.76   37.17
  -6   0 -29    4.93    3.33
  -6   0 -30    9.36    3.64
  -6   0 -31    9.35    3.10
  -6  -1 -31    5.88    3.02
  -6  -1 -30   24.24    4.98
  -6  -1 -29  277.31   16.66
  -6  -1 -28   65.01    8.34
  -6  -1 -27    4.98    2.64
  -6  -1 -27    5.79    3.58
  -6  -1 -26  150.15   10.34
  -6  -1 -25  481.69   20.00
  -6  -1 -24   54.92    6.53
  -6  -1 -23  269.51   14.37
  -6  -1 -22   41.28    5.42
  -6  -1 -21  726.95   24.96
  -6  -1 -20   89.78    7.58
  -6  -1 -19   67.64    6.24
  -6  -1 -18  125.97    8.28
  -6  -1 -17  289.41   12.67
  -6  -1 -16    6.61    2.13
  -6  -1 -15  151.90    8.27
  -6   1  14   32.05    3.42
  -6  -1 -14   31.08    3.49
  -6   1  13 1137.51   28.38
  -6  -1 -13 1121.66   28.15
  -6   1  12  121.86    6.69
  -6  -1 -12  124.75    6.31
  -6  -1 -12  121.74    8.52
  -6   1  11  277.27   10.39
  -6  -1 -11  245.46   10.77
  -6  -1 -11  246.02   12.13
  -6   1  10  250.47    9.69
  -6  -1 -10  234.50   10.18
  -6  -1 -10  227.19   11.30
  -6  -1  -9   63.54    4.85
  -6  -1  -9   53.75    5.08
  -6  -1  -8   26.40    3.07
  -6  -1  -8   23.25    3.27
  -6  -1  -7  177.52    8.17
  -6  -1  -7  164.10    8.88
  -6  -1  -6  195.34    8.48
  -6  -1  -6  187.47    9.45
  -6  -1  -5   79.14    5.10
  -6  -1  -5   79.53    5.85
  -6  -1  -4  299.30   10.68
  -6  -1  -4  257.94   11.17
  -6  -1  -3  805.53   21.43
  -6   1   3  802.07   22.37
  -6  -1  -3  829.44   23.66
  -6  -1  -2   83.78    5.17
  -6  -1  -2   83.82    6.02
  -6   1   2   70.65    4.98
  -6  -1  -1  500.47   14.96
  -6  -1  -1  507.05   16.92
  -6   1   1  463.76   15.12
  -6  -1  -1  442.56   14.80
  -6  -1   0   92.52    6.44
  -6  -1   0   83.73    5.42
  -6   1   0   82.52    5.33
  -6   1  -1  512.04   14.16
  -6  -1   1  527.80   17.39
  -6   1  -2   98.17    5.01
  -6  -1   2   90.16    5.81
  -6  -1   2  100.89    6.74
  -6   1  -3  835.88   20.72
  -6  -1   3  852.63   23.35
  -6  -1   3  870.50   24.76
  -6   1  -4  235.19    8.38
  -6  -1   4  243.51   10.31
  -6   1  -5   23.31    2.36
  -6  -1   5   50.36    4.36
  -6   1  -6  225.31    8.25
  -6   1  -7  186.04    7.41
   6   1   7  170.80    9.43
  -6   1  -8   29.37    2.78
   6   1   8   28.26    3.83
  -6   1  -9   35.96    3.22
   6   1   9   39.44    4.54
  -6   1 -10  262.44   11.19
  -6   1 -10  296.52   10.49
  -6   1 -11  197.15    9.57
  -6   1 -11  226.84    9.17
  -6   1 -12  117.77    7.18
  -6   1 -12  138.84    7.23
  -6   1 -12  135.15    6.42
  -6   1 -13  834.43   24.56
  -6   1 -13 1002.61   24.40
  -6   1 -14   34.82    3.58
  -6   1 -15  171.70    8.55
  -6   1 -16    6.76    2.10
   6   1  16    4.66    2.31
   6   1  17  279.00   14.34
  -6   1 -17  297.43   12.66
  -6   1 -18  130.40    8.29
   6   1  18  130.76    9.51
  -6   1 -19   53.76    5.45
   6   1  19   52.92    6.12
  -6   1 -20   93.49    7.51
  -6   1 -21  702.98   24.04
  -6   1 -22   50.33    5.81
  -6   1 -23  257.94   13.76
  -6   1 -24   52.66    6.34
  -6   1 -25  477.89   19.83
  -6   1 -26  156.59   10.60
  -6   1 -27    3.23    2.55
  -6   1 -31    3.22    2.75
  -6  -2 -31   19.98    4.31
  -6  -2 -30    2.52    2.86
  -6  -2 -29  130.51   11.26
  -6  -2 -28  790.72   31.06
  -6  -2 -27  123.96    9.37
  -6  -2 -27  104.21   10.55
  -6  -2 -26  847.82   27.73
  -6  -2 -26  671.95   29.70
  -6  -2 -25  276.25   14.77
  -6  -2 -24   34.45    5.31
  -6  -2 -23   42.13    5.65
  -6  -2 -22  123.16    9.21
  -6  -2 -21  425.63   17.94
  -6  -2 -20 3517.99   79.88
  -6  -2 -19  209.13   11.57
  -6  -2 -18 1744.05   44.26
  -6  -2 -17  507.84   18.07
  -6  -2 -16   43.72    4.58
  -6   2  14  341.61   12.46
  -6   2  13  162.71    8.08
  -6   2  12 4889.51   94.28
  -6  -2 -12 4088.30   97.05
  -6   2  11  395.68   13.35
  -6  -2 -11  328.67   14.62
  -6  -2 -10 1469.70   37.71
  -6  -2 -10 1433.34   38.85
  -6  -2  -9  244.49   10.84
  -6  -2  -9  228.91   11.06
  -6   2   8  260.70   10.26
  -6  -2  -8  232.88   10.38
  -6  -2  -8  234.27   10.94
  -6   2   7  223.77    9.37
  -6  -2  -7  215.42    9.67
  -6   2   7  233.89   10.18
   6  -2   7  195.29   10.47
  -6  -2  -7  212.47   10.37
  -6   2   6  821.59   21.65
  -6  -2  -6  779.68   22.00
   6  -2   6  729.92   23.71
  -6   2   6  806.92   22.40
  -6  -2  -6  768.22   23.11
  -6   2   5  285.64   10.85
  -6  -2  -5  298.79   11.42
  -6   2   5  282.31   11.24
  -6  -2  -5  278.43   11.89
  -6  -2  -4 5053.58  101.30
  -6   2   4 4918.43  101.36
  -6  -2  -4 4901.22  102.69
  -6  -2  -3  840.87   22.44
  -6  -2  -3  842.52   24.04
  -6   2   3  772.48   22.79
  -6  -2  -2 2054.71   45.45
  -6  -2  -2 2027.84   47.17
  -6   2   2 1901.26   45.74
  -6  -2  -1  266.83   10.51
  -6  -2  -1  272.23   11.71
  -6  -2  -1  230.16    9.75
  -6   2   1  262.98   11.00
  -6  -2   0  980.14   25.87
  -6   2   0  999.13   27.07
  -6   2  -1  262.17    8.45
  -6   2  -1  244.32   10.69
  -6  -2   1  234.50    9.86
  -6  -2   1  259.97   11.51
  -6   2  -2 1869.41   40.18
  -6   2  -2 1888.75   44.61
  -6  -2   2 1941.29   44.09
  -6   2  -3  752.37   18.50
  -6  -2   3  805.35   22.22
  -6   2  -3  773.69   22.44
  -6  -2   4 5161.43  101.75
  -6   2  -4 5077.80  101.78
  -6   2  -5  225.84    7.49
  -6  -2   5  237.40   10.36
  -6   2  -5  221.72   10.10
  -6   2  -6  783.26   18.69
  -6   2  -6  815.24   23.09
  -6   2  -7  189.94    9.13
  -6   2  -7  203.98    7.31
  -6   2  -7  208.93   10.06
  -6   2  -8  236.11   10.65
   6   2   8  235.19   11.58
  -6   2  -8  251.60   11.33
  -6   2  -9  232.07   10.64
  -6   2  -9  254.75    8.75
   6   2   9  224.29   11.37
  -6   2  -9  233.25   11.02
  -6   2 -10 1373.95   36.59
  -6   2 -10 1452.11   38.13
  -6   2 -11  390.59   14.66
  -6   2 -11  440.53   16.80
  -6   2 -12 4425.34   85.82
  -6   2 -12 4226.20   91.80
  -6   2 -13  111.01    6.95
  -6   2 -13  130.46    6.72
  -6   2 -14  303.27   11.63
  -6   2 -15   15.51    2.70
  -6   2 -16   11.62    2.53
   6   2  16   11.44    3.17
  -6   2 -17  475.71   16.91
   6   2  17  467.54   19.83
  -6   2 -18 1623.52   40.71
   6   2  18 1563.93   44.28
  -6   2 -19  206.74   11.03
   6   2  19  202.72   12.57
  -6   2 -20 3226.68   72.22
   6   2  20 3026.33   74.45
  -6   2 -21  405.41   17.00
   6   2  21  375.24   17.58
  -6   2 -22  118.28    8.86
  -6   2 -23   44.88    5.72
  -6   2 -24   19.60    4.22
  -6   2 -25  305.31   15.33
  -6   2 -26  829.66   27.24
  -6   2 -26  667.58   28.45
  -6   2 -27   88.83    9.34
  -6   2 -28  795.29   30.04
  -6   2 -29  125.58   10.43
  -6   2 -30    2.50    2.68
  -6   2 -31   18.91    4.00
  -6  -3 -30   28.69    5.26
  -6  -3 -29  142.50   11.55
  -6  -3 -28   71.08    8.57
  -6  -3 -27    8.11    3.88
  -6  -3 -26  172.76   11.32
  -6  -3 -26  130.63   11.95
  -6  -3 -25  302.01   15.20
  -6  -3 -25  244.66   16.57
  -6  -3 -24  256.38   13.95
  -6  -3 -23   92.70    8.15
  -6  -3 -22    7.95    3.16
  -6  -3 -21  592.03   22.23
  -6  -3 -20  261.84   13.40
  -6  -3 -19   25.10    4.20
  -6   3  14   46.88    4.33
  -6   3  13  647.14   19.16
  -6  -3 -13  558.37   21.32
  -6   3  12  519.59   16.37
  -6  -3 -12  401.09   17.13
  -6   3  11  204.34    9.34
  -6  -3 -11  163.91    9.80
  -6   3  10  104.51    6.48
  -6   3  10   91.44    6.26
  -6  -3 -10   87.00    6.67
  -6   3   9  134.95    7.34
  -6  -3  -9   92.49    6.84
  -6   3   8  297.77   11.66
  -6  -3  -8  290.88   12.28
  -6  -3  -8  272.46   12.23
  -6   3   7  327.45   12.47
  -6  -3  -7  330.27   12.98
  -6   3   7  319.09   12.36
  -6  -3  -7  308.32   13.12
  -6   3   6  216.66    9.70
  -6  -3  -6  215.53    9.96
   6  -3   6  197.51   10.71
  -6   3   6  212.66    9.53
  -6  -3  -6  200.12   10.06
  -6   3   5  677.76   19.66
  -6  -3  -5  682.82   20.16
  -6   3   5  631.87   19.09
  -6  -3  -5  601.61   19.73
  -6   3   4  996.72   26.10
  -6  -3  -4  985.18   26.25
  -6   3   4  937.72   25.29
  -6  -3  -4  969.46   27.10
  -6   3   3  288.02   11.38
  -6  -3  -3  283.79   11.48
  -6  -3  -3  303.49   12.49
  -6   3   3  278.07   10.83
  -6  -3  -2   13.75    2.43
  -6   3   2   10.71    2.03
  -6   3   2   13.83    2.36
  -6  -3  -1   46.58    4.27
  -6  -3  -1   43.97    4.47
  -6   3   1   50.99    4.14
  -6  -3  -1   38.23    3.62
  -6   3   1   43.06    4.08
  -6   3   0 1265.66   32.63
  -6  -3   0 1439.32   33.92
  -6  -3   0 1452.75   35.21
  -6   3   0 1312.72   33.12
  -6  -3   0 1290.64   32.18
  -6   3  -1   84.39    5.79
  -6   3  -1   91.53    4.05
  -6   3  -1   94.16    6.11
  -6  -3   1   91.14    5.67
  -6   3  -2   17.76    2.70
  -6   3  -2   17.00    1.55
  -6   3  -2   20.01    2.82
  -6  -3   2   15.00    2.43
  -6  -3   2   22.18    3.16
  -6   3  -3  223.52   10.12
  -6   3  -3  246.07    7.15
  -6   3  -3  240.39   10.48
  -6   3  -4  883.85   25.15
  -6   3  -4  941.34   20.47
  -6  -3   4  939.53   25.47
  -6   3  -4  948.08   25.67
  -6   3  -5  562.80   18.68
  -6   3  -5  588.24   18.61
  -6   3  -6  214.93   10.19
  -6   3  -6  247.70    7.25
  -6   3  -6  219.82   10.31
  -6   3  -7  332.89    9.08
  -6   3  -7  318.85   12.93
  -6   3  -8  262.12   11.72
  -6   3  -8  280.79   12.20
  -6   3  -9   96.40    6.64
  -6   3  -9   93.20    6.67
  -6   3 -10   88.41    6.43
  -6   3 -10   97.54    6.98
  -6   3 -11  162.00    8.97
  -6   3 -11  192.78    7.93
  -6   3 -11  184.08   10.19
  -6   3 -12  415.19   15.51
  -6   3 -12  462.92   14.30
  -6   3 -12  446.07   17.48
  -6   3 -13  571.09   20.68
  -6   3 -13  602.31   17.31
  -6   3 -14   29.07    4.55
  -6   3 -14   29.35    3.43
  -6   3 -15  337.75   12.92
   6   3  15  321.64   14.40
  -6   3 -16  284.01   12.06
   6   3  16  285.17   14.84
   6   3  16  269.46   13.25
   6   3  17  201.52   12.60
  -6   3 -17  222.31   10.77
  -6   3 -18  115.69    7.86
   6   3  18  110.16    9.28
  -6   3 -19   11.68    3.28
   6   3  19   12.99    3.82
  -6   3 -20  265.92   13.14
   6   3  20  255.21   14.75
  -6   3 -21  578.57   21.24
   6   3  21  559.58   22.89
  -6   3 -22    4.84    2.31
   6   3  22    4.75    2.72
  -6   3 -23   81.46    7.53
   6   3  23   70.49    7.39
  -6   3 -24  250.09   13.70
  -6   3 -25  283.97   14.49
  -6   3 -25  227.40   14.97
  -6   3 -26  146.86   10.21
  -6   3 -26  112.17   10.40
  -6   3 -27   10.46    3.53
  -6   3 -28   58.65    7.23
  -6   3 -29  137.46   10.55
  -6   3 -30   28.09    4.80
  -6  -4 -30   26.66    4.98
  -6  -4 -29  153.17   11.61
  -6  -4 -28  644.70   26.50
  -6  -4 -27  146.52   12.09
  -6  -4 -26  768.42   25.79
  -6  -4 -26  603.07   27.29
  -6  -4 -25  388.07   17.28
  -6  -4 -25  315.18   18.79
  -6  -4 -24   41.79    5.55
  -6  -4 -24   27.14    5.81
  -6  -4 -23   91.59    8.30
  -6  -4 -23   77.55    8.96
  -6  -4 -22  185.79   11.42
  -6  -4 -22  136.88   11.88
  -6  -4 -21 1239.86   36.00
  -6  -4 -16  126.70    9.78
  -6  -4 -15   29.91    4.73
  -6   4  14  316.08   11.86
  -6  -4 -14  269.51   14.07
  -6   4  13  320.84   12.28
  -6  -4 -13  276.39   13.91
  -6   4  12 4067.34   79.93
  -6  -4 -12 3256.32   80.63
  -6   4  11  591.83   18.36
  -6  -4 -11  468.16   18.30
  -6   4  10  968.19   27.14
  -6  -4 -10  973.11   28.96
  -6   4   9  528.26   17.26
  -6  -4  -9  554.39   19.36
  -6   4   8    6.27    1.67
  -6  -4  -8   10.72    2.56
  -6   4   8    7.08    2.02
  -6   4   7  860.65   23.35
  -6  -4  -7  904.70   26.48
  -6   4   6  743.14   20.31
  -6   4   6  785.62   22.21
  -6  -4  -6  762.13   23.21
  -6   4   5  575.04   18.24
  -6  -4  -5  555.36   18.41
  -6   4   5  539.30   16.96
  -6  -4  -5  532.20   18.26
  -6   4   4 4511.73   91.48
  -6  -4  -4 4480.56   91.79
  -6  -4  -4 4296.33   91.99
  -6   4   3 1169.30   30.53
  -6  -4  -3 1219.46   31.15
  -6  -4  -3 1204.38   31.47
  -6   4   3 1113.52   29.06
  -6  -4  -2  995.24   26.49
  -6  -4  -2  953.97   26.60
  -6   4   2  935.59   24.45
  -6  -4  -1 1239.88   31.51
  -6  -4  -1 1234.74   31.61
  -6   4   0  460.92   16.00
  -6   4   0  473.51   11.49
  -6  -4   0  450.33   14.81
  -6   4   0  476.93   15.72
  -6  -4   0  495.51   16.90
  -6   4  -1 1066.96   28.59
  -6   4  -1 1042.62   22.18
  -6   4  -1 1105.54   28.08
  -6  -4   1 1092.77   27.34
  -6  -4   1 1127.83   29.40
  -6   4  -2  954.91   26.25
  -6   4  -2  941.49   19.61
  -6   4  -2  966.83   25.81
  -6  -4   2  971.72   25.35
  -6  -4   2 1003.52   27.08
  -6   4  -3 1070.94   27.27
  -6   4  -3 1106.41   26.89
  -6  -4   3 1143.17   26.98
  -6   4  -4 4143.57   89.02
  -6  -4   4 4236.96   88.34
  -6   4  -4 4293.15   88.49
  -6   4  -5  489.59   16.91
  -6  -4   5  496.15   16.64
  -6   4  -5  465.16   16.12
  -6   4  -6  786.13   23.40
  -6   4  -6  779.60   22.61
  -6   4  -7  883.26   25.86
  -6   4  -7  920.50   25.77
  -6   4  -8    5.98    1.88
  -6   4  -8    3.17    1.70
  -6   4  -9  536.60   18.68
  -6   4  -9  582.56   19.17
  -6   4 -10 1122.88   26.21
  -6   4 -10 1068.54   29.72
  -6   4 -11  508.88   17.96
  -6   4 -11  531.67   15.71
  -6   4 -11  523.07   18.63
  -6   4 -12 3886.41   74.97
  -6   4 -12 3669.42   79.43
  -6   4 -13  259.68   12.88
  -6   4 -13  264.57   10.52
  -6   4 -14  289.28   14.23
  -6   4 -14  295.38   11.78
  -6   4 -15   36.22    5.04
  -6   4 -15   34.81    3.92
   6   4  15   29.92    4.82
   6   4  15   31.19    4.45
  -6   4 -16  116.23    9.15
   6   4  16  125.34    9.68
  -6   4 -16  126.75    7.79
   6   4  16  125.92    8.87
  -6   4 -17  797.53   28.07
  -6   4 -17  840.21   24.98
   6   4  17  826.06   28.76
   6   4  17  814.49   26.58
  -6   4 -18 1132.72   31.62
   6   4  18 1118.55   35.60
  -6   4 -19  248.98   12.45
   6   4  19  263.02   15.08
  -6   4 -20 1997.94   49.60
   6   4  20 1911.24   53.15
  -6   4 -21 1173.04   33.73
   6   4  21 1082.19   35.69
  -6   4 -22  139.58   11.29
  -6   4 -22  151.82   10.16
   6   4  22  157.32   11.39
  -6   4 -23   81.81    8.68
  -6   4 -23   87.25    7.80
   6   4  23   82.17    8.19
  -6   4 -24   29.36    5.55
  -6   4 -24   31.80    4.99
   6   4  24   27.59    5.01
  -6   4 -25  389.06   17.03
   6   4  25  360.09   16.98
  -6   4 -26  699.78   23.96
  -6   4 -26  575.81   24.74
  -6   4 -27  134.22   10.71
  -6   4 -28  669.50   25.39
  -6   4 -29  148.66   10.47
  -6   4 -30   26.21    4.53
  -6  -5 -29  112.01    9.82
  -6  -5 -28   87.32    8.89
  -6  -5 -27    4.71    2.79
  -6  -5 -26  144.47   11.75
  -6  -5 -25   92.27    8.16
  -6  -5 -25   64.81    8.17
  -6  -5 -24   73.05    7.36
  -6  -5 -24   38.81    6.55
  -6  -5 -23   75.22    7.31
  -6  -5 -23   61.23    7.84
  -6  -5 -22   40.24    6.58
  -6  -5 -21  276.23   16.48
  -6  -5 -20   65.92    7.80
   6   5 -19  110.56    9.70
  -6  -5 -19   80.21    8.39
   6   5 -18  133.54   10.56
  -6  -5 -18  129.30   10.38
  -6  -5 -17  115.16    9.47
  -6  -5 -16  247.73   13.87
  -6  -5 -15  298.35   14.99
  -6   5  14   36.68    4.00
  -6  -5 -14   26.04    4.39
  -6   5  13  363.94   13.62
  -6  -5 -13  305.56   14.66
  -6   5  12  700.32   20.82
  -6  -5 -12  619.60   22.03
  -6   5  11   24.01    3.40
  -6  -5 -11   25.90    3.90
  -6   5  10   42.98    4.52
  -6  -5 -10   30.84    4.19
  -6   5   9   63.55    4.88
  -6  -5  -9   70.52    6.19
  -6   5   8  505.95   16.10
  -6  -5  -8  541.25   19.17
  -6   5   7   57.51    5.18
  -6   5   7   46.46    3.77
  -6  -5  -7   58.00    5.30
  -6   5   6    7.29    1.50
  -6   5   6    6.56    2.23
  -6  -5  -6    8.71    2.30
  -6   5   5  314.27   12.96
  -6   5   5  276.35    9.49
  -6  -5  -5  306.79   12.93
  -6   5   5  284.30   11.33
  -6   5   4 1200.87   31.33
  -6   5   4 1119.10   25.83
  -6  -5  -4 1135.30   30.96
  -6   5   4 1144.56   29.04
  -6   5   3  241.91   11.21
  -6   5   3  230.28    7.48
  -6  -5  -3  258.38   11.45
  -6   5   3  229.91    9.83
  -6   5   2   65.55    3.17
  -6  -5  -2   72.78    5.72
  -6   5   1  127.16    4.13
  -6   5   1  120.18    3.89
  -6   5   1  132.60    7.11
  -6  -5  -1  140.13    8.00
  -6   5   0  482.58   17.00
  -6   5   0  475.38   15.51
  -6  -5   0  469.10   15.07
  -6  -5   0  509.02   16.98
  -6   5  -1  130.40    7.94
  -6  -5   1  135.93    7.86
  -6  -5   1  127.19    6.83
  -6   5  -1  129.60    7.09
  -6   5  -2   49.17    4.84
  -6   5  -2   51.72    4.39
  -6  -5   2   53.78    4.38
  -6   5  -3  252.35   11.60
  -6   5  -3  263.15   10.81
  -6  -5   3  261.37   10.85
  -6   5  -4 1170.36   31.60
  -6  -5   4 1185.13   30.37
  -6   5  -4 1148.69   29.88
  -6   5  -5  306.83   13.11
  -6  -5   5  304.67   12.39
  -6   5  -5  296.05   11.92
  -6   5  -6    5.89    2.11
  -6   5  -6    5.86    1.47
  -6   5  -6    6.88    1.93
  -6   5  -7   56.40    5.33
  -6   5  -7   52.71    4.67
  -6   5  -8  551.23   19.30
  -6   5  -8  565.48   18.60
  -6   5  -9   91.25    6.96
  -6   5  -9  101.52    5.61
  -6   5  -9   88.01    6.56
  -6   5 -10   22.76    3.55
  -6   5 -10   23.58    3.56
  -6   5 -11   14.52    2.27
  -6   5 -11   11.69    2.64
  -6   5 -12  734.28   20.24
  -6   5 -12  737.39   22.92
  -6   5 -13  360.01   15.10
  -6   5 -13  385.83   13.34
  -6   5 -14   22.28    3.85
  -6   5 -14   31.56    3.66
  -6   5 -15  344.50   15.99
  -6   5 -15  383.79   14.23
   6   5  15  354.30   17.16
   6   5  15  366.78   16.28
  -6   5 -16  257.44   13.80
  -6   5 -16  269.21   11.92
   6   5  16  262.27   14.63
   6   5  16  276.97   13.96
  -6   5 -17  147.61   10.42
   6   5  17  146.27   10.88
  -6   5 -17  153.16    8.90
   6   5  17  148.25   10.04
  -6   5 -18   99.63    8.76
  -6   5 -18   99.65    7.38
   6   5  18  103.80    8.30
   6   5  18   94.41    8.85
  -6   5 -19  108.60    9.31
  -6   5 -19  110.02    7.99
   6   5  19  109.40    8.59
   6   5  19  114.47    9.82
  -6   5 -20   29.78    5.28
  -6   5 -20   21.74    4.02
   6   5  20   25.03    5.20
  -6   5 -21  326.73   17.15
  -6   5 -21  322.38   14.89
   6   5  21  308.86   16.69
  -6   5 -22   47.51    6.49
  -6   5 -22   44.38    5.52
   6   5  22   41.85    6.12
  -6   5 -23   68.16    7.73
  -6   5 -23   79.12    7.25
   6   5  23   79.78    8.19
  -6   5 -24   43.49    6.22
  -6   5 -24   54.52    6.08
   6   5  24   50.41    6.50
  -6   5 -25   59.04    7.12
  -6   5 -25   64.13    6.63
   6   5  25   67.25    7.25
  -6   5 -26  177.88   12.01
   6   5  26  177.88   11.36
  -6   5 -27    7.56    2.96
  -6   5 -28   89.57    8.01
  -6   5 -29  104.19    8.45
  -6  -6 -28  380.50   18.63
  -6  -6 -27   49.76    6.66
  -6  -6 -26  304.70   16.89
  -6  -6 -25  640.20   23.06
  -6  -6 -25  436.52   21.52
  -6  -6 -24   90.58    8.09
  -6  -6 -24   58.56    7.48
  -6  -6 -23   38.62    6.12
  -6  -6 -22  184.80   13.06
  -6  -6 -21  773.92   29.05
  -6  -6 -20  791.31   29.12
   6   6 -19  271.55   15.77
  -6  -6 -19  239.61   14.36
   6   6 -18 1049.62   34.33
  -6  -6 -18  918.13   31.68
   6   6 -17  788.34   28.35
  -6  -6 -17  700.73   26.06
   6   6 -16  382.01   18.14
  -6  -6 -16  327.75   16.06
  -6  -6 -15   26.09    4.30
  -6   6  14  318.19   12.82
  -6  -6 -14  260.30   13.67
  -6   6  13  933.99   25.74
  -6  -6 -13  790.15   26.81
  -6   6  12 1285.18   32.69
  -6  -6 -12 1106.48   33.64
  -6   6  11  502.56   17.31
  -6  -6 -11  437.39   17.87
  -6   6  10  744.73   22.39
  -6  -6 -10  668.00   23.04
  -6   6   9  567.09   18.85
  -6  -6  -9  529.52   19.39
  -6   6   8  238.67   11.29
  -6  -6  -8  221.20   11.11
  -6   6   7  362.53   14.54
  -6  -6  -7  332.03   14.27
  -6   6   6  430.24   16.36
  -6  -6  -6  409.82   16.03
  -6   6   5  663.30   21.69
  -6  -6  -5  604.16   20.45
  -6   6   4 1848.86   44.80
  -6  -6  -4 1702.09   43.23
  -6   6   3 1279.55   33.94
  -6  -6  -3 1188.14   32.28
  -6  -6  -2 1012.00   27.96
  -6  -6  -1  690.36   21.21
  -6   6   0  117.40    7.89
  -6   6   0  106.05    6.30
  -6  -6   0  119.28    7.32
  -6   6  -1  747.11   22.86
  -6   6  -1  694.15   19.67
  -6   6  -2 1045.95   29.20
  -6  -6   2  976.68   25.85
  -6   6  -2  982.97   25.91
  -6   6  -3 1180.58   32.39
  -6   6  -3 1161.77   29.29
  -6  -6   3 1129.92   29.31
  -6   6  -4 1698.96   42.79
  -6   6  -4 1638.40   39.46
  -6  -6   4 1690.97   40.21
  -6   6  -5  620.44   20.98
  -6  -6   5  594.96   19.02
  -6   6  -5  587.29   18.37
  -6   6  -6  464.38   17.54
  -6  -6   6  510.94   17.33
  -6   6  -6  469.73   14.88
  -6   6  -6  461.80   15.87
  -6   6  -7  316.52   13.83
  -6   6  -7  322.45   12.75
  -6   6  -7  340.93   11.91
  -6   6  -8  184.18   10.15
  -6   6  -8  211.71    8.89
  -6   6  -8  201.62    9.60
  -6   6  -9  503.04   18.38
  -6   6  -9  561.66   18.16
  -6   6 -10  631.92   21.47
  -6   6 -10  742.84   22.20
  -6   6 -11  464.21   14.89
  -6   6 -11  428.71   16.22
  -6   6 -12 1282.08   30.72
  -6   6 -12 1210.36   32.60
  -6   6 -13  884.73   26.23
  -6   6 -13  963.44   24.88
  -6   6 -14  326.36   14.23
   6   6  14  312.11   15.82
  -6   6 -14  331.62   12.93
   6   6  14  325.86   15.21
   6   6  15   11.02    3.24
  -6   6 -15    9.64    2.84
  -6   6 -15   17.45    2.96
   6   6  15   11.06    3.67
  -6   6 -16  381.96   16.75
   6   6  16  390.94   18.55
  -6   6 -16  416.67   15.65
   6   6  16  389.15   17.49
  -6   6 -17  864.09   28.67
  -6   6 -17  922.19   26.95
   6   6  17  929.57   29.70
   6   6  17  881.48   30.77
  -6   6 -18 1038.31   33.21
  -6   6 -18 1129.35   31.56
   6   6  18 1143.06   34.02
   6   6  18 1107.53   35.75
  -6   6 -19  268.29   14.61
  -6   6 -19  293.74   13.66
   6   6  19  307.91   15.10
   6   6  19  301.07   16.38
  -6   6 -20  883.91   30.77
  -6   6 -20  990.73   29.44
   6   6  20  999.94   30.86
   6   6  20  973.81   32.86
  -6   6 -21  939.93   31.63
  -6   6 -21  967.04   29.47
   6   6  21  969.59   32.79
  -6   6 -22  202.21   12.80
  -6   6 -22  209.88   11.82
   6   6  22  210.37   13.44
  -6   6 -23   42.50    6.04
  -6   6 -23   53.96    6.08
   6   6  23   47.03    6.29
  -6   6 -24   77.92    7.77
  -6   6 -24   78.56    7.29
   6   6  24   75.31    7.80
  -6   6 -25  509.89   21.08
   6   6  25  515.23   21.07
  -6   6 -26  325.20   16.01
   6   6  26  335.33   15.98
  -6   6 -27   50.33    6.04
   6   6  27   49.02    5.77
  -6   6 -28  356.05   16.12
  -6  -7 -26   56.90    6.99
  -6  -7 -25   43.54    6.29
  -6  -7 -24  170.27   12.19
  -6  -7 -23    8.79    3.32
  -6  -7 -22   92.55    8.79
  -6  -7 -21   78.45    8.11
  -6  -7 -20  174.45   11.81
   6   7 -19   18.81    4.32
  -6  -7 -19   22.36    4.25
   6   7 -18  258.45   15.24
  -6  -7 -18  225.76   13.35
   6   7 -17   75.24    8.03
  -6  -7 -17   74.43    7.42
  -6  -7 -16  174.43   11.21
  -6   7  15  101.52    6.78
  -6  -7 -15   89.13    7.82
  -6   7  14   76.55    6.13
  -6  -7 -14   61.50    6.39
  -6   7  13   49.29    5.11
  -6  -7 -13   42.17    5.24
  -6   7  12  185.14   10.06
  -6  -7 -12  157.47   10.17
  -6   7  11   29.19    3.99
  -6  -7 -11   21.89    3.84
  -6   7  10   75.98    6.36
  -6  -7 -10   60.41    5.93
  -6   7   9   19.70    3.41
  -6  -7  -9   15.64    3.25
  -6   7   8  247.55   12.03
  -6  -7  -8  243.75   12.21
  -6   7   7   34.87    4.49
  -6  -7  -7   35.38    4.46
  -6   7   6   41.24    4.75
  -6  -7  -6   37.70    4.53
  -6   7   5   32.74    4.24
  -6  -7  -5   27.64    3.90
  -6   7   4  770.28   24.19
  -6  -7  -4  766.05   23.50
  -6   7   3   31.89    4.30
  -6  -7  -3   30.47    3.89
  -6  -7  -2   26.59    3.52
  -6  -7  -1   25.65    3.49
  -6   7   0  312.02   13.77
  -6   7  -1   35.23    4.39
  -6   7  -1   36.21    3.50
  -6   7  -2   27.15    3.87
  -6   7  -2   25.75    2.99
  -6   7  -3   29.60    3.98
  -6   7  -3   23.44    2.92
  -6   7  -4  742.38   23.99
  -6   7  -4  803.74   21.79
  -6   7  -5   40.87    4.68
  -6   7  -5   29.86    3.40
  -6   7  -6   37.04    4.49
  -6   7  -6   43.93    4.10
  -6   7  -6   47.63    4.38
  -6   7  -7   23.15    3.74
  -6   7  -7   25.44    3.27
  -6   7  -7   24.65    3.23
  -6   7  -8  241.20   12.20
  -6   7  -8  253.63   10.98
  -6   7  -9   17.48    3.27
  -6   7  -9   17.90    2.84
  -6   7  -9   18.64    2.89
  -6   7 -10   68.80    6.21
  -6   7 -10   69.04    5.46
  -6   7 -11   16.82    3.19
  -6   7 -11   19.84    3.14
  -6   7 -12  138.22    8.85
  -6   7 -12  164.71    9.19
  -6   7 -13   61.31    5.71
  -6   7 -13   78.78    6.43
   6   7  13   87.24    8.12
  -6   7 -14   61.64    5.66
  -6   7 -14   91.13    7.09
  -6   7 -14   86.98    6.41
   6   7  14   87.11    8.26
   6   7  14   91.01    8.01
  -6   7 -15  108.97    8.01
  -6   7 -15  120.79    7.82
   6   7  15  122.72    9.95
   6   7  15  117.03    9.26
  -6   7 -16  188.00   10.92
   6   7  16  202.60   13.01
  -6   7 -16  208.34   10.78
   6   7  16  193.75   12.02
  -6   7 -17  122.13    8.92
  -6   7 -17  129.47    8.58
   6   7  17  139.22    9.99
   6   7  17  128.01   10.35
  -6   7 -18  295.91   14.58
  -6   7 -18  319.54   14.30
   6   7  18  315.72   15.63
   6   7  18  307.36   16.62
  -6   7 -19   30.98    4.64
  -6   7 -19   24.38    3.89
   6   7  19   25.31    4.56
   6   7  19   23.94    4.89
  -6   7 -20  214.98   12.45
  -6   7 -20  224.78   12.03
   6   7  20  212.87   12.53
   6   7  20  222.51   13.89
  -6   7 -21   83.34    7.76
  -6   7 -21   90.15    7.55
   6   7  21   82.69    7.58
   6   7  21   93.99    8.87
  -6   7 -22   80.49    7.67
  -6   7 -22   93.79    7.82
   6   7  22   87.73    8.61
  -6   7 -23   11.08    3.51
  -6   7 -23   12.69    3.42
   6   7  23    9.57    3.58
  -6   7 -24  181.96   11.49
   6   7  24  199.80   12.51
  -6   7 -25   60.75    6.55
   6   7  25   56.59    6.55
   6   7  26   74.05    7.21
   6   7  27   23.09    4.20
  -6  -8 -19  112.81    9.09
  -6  -8 -18  598.96   22.77
  -6  -8 -17  680.94   24.43
  -6  -8 -16  287.84   14.51
  -6  -8 -15   34.96    4.99
  -6   8  15   39.21    4.39
  -6   8  14  467.81   16.70
  -6  -8 -14  366.70   16.56
  -6   8  13  701.66   21.93
  -6  -8 -13  533.73   20.68
  -6   8  12  261.73   12.41
  -6  -8 -12  193.76   11.15
  -6   8  11  423.79   16.65
  -6  -8 -11  347.65   15.67
  -6   8  10 1203.93   34.04
  -6   8   9  780.38   25.25
  -6   8   8  859.06   26.94
  -6   8   7  387.26   16.31
  -6   8   6  696.37   23.61
  -6   8   5  623.40   22.03
  -6   8   4  340.96   15.15
  -6   8   3  694.03   23.43
  -6   8   0  381.39   16.12
  -6   8  -1  832.38   26.29
  -6   8  -2  454.76   17.89
  -6   8  -3  604.70   21.30
  -6   8  -3  586.37   17.25
  -6   8  -4  280.89   13.61
  -6   8  -4  295.06   10.89
  -6   8  -5  534.62   19.97
  -6   8  -5  548.93   16.56
  -6   8  -6  699.97   24.01
  -6   8  -6  705.59   20.30
  -6   8  -7  372.54   16.21
  -6   8  -7  369.57   13.34
  -6   8  -7  417.37   15.05
  -6   8  -8  747.16   25.33
  -6   8  -8  780.67   22.30
  -6   8  -9  794.69   26.52
  -6   8  -9  825.73   23.52
  -6   8 -10  976.68   30.87
  -6   8 -10 1063.90   28.41
  -6   8 -11  343.85   15.51
  -6   8 -11  373.06   14.13
  -6   8 -12  244.48   10.84
   6   8  12  232.32   13.54
  -6   8 -13  480.17   18.90
  -6   8 -13  540.43   18.16
   6   8  13  626.49   23.70
   6   8  13  649.13   23.36
  -6   8 -14  428.75   15.80
   6   8  14  480.54   20.27
   6   8  14  481.16   19.66
  -6   8 -15   45.37    4.91
   6   8  15   62.88    7.31
   6   8  15   50.42    6.18
  -6   8 -16  377.35   15.65
   6   8  16  413.95   18.50
   6   8  16  408.20   19.13
  -6   8 -17  814.64   26.07
   6   8  17  876.49   29.23
   6   8  17  888.58   30.74
  -6   8 -18  660.56   22.75
   6   8  18  700.91   25.30
   6   8  18  677.75   26.33
  -6   8 -19  139.21    9.30
   6   8  19  146.78   10.42
   6   8  19  144.46   11.12
  -6   8 -20  159.41   10.09
   6   8  20  167.07   11.03
   6   8  20  168.35   11.88
  -6   8 -21  784.73   25.79
   6   8  21  798.23   26.71
   6   8  21  798.14   28.71
   6   8  22  234.83   12.45
   6   8  22  243.17   14.26
   6   8  23   81.17    7.94
   6   8  24  301.07   15.33
   6   8  25  488.86   19.90
   6   8  26  213.05   11.93
   6   8  27   35.32    4.69
  -6   9  14   15.23    3.16
  -6   9  13   66.77    6.19
  -6   9  12  948.60   28.76
  -6   9  11   61.48    6.27
  -6   9  10  210.48   11.86
  -6   9   9  102.07    8.13
  -6   9   8  489.98   19.47
  -6   9   7   28.74    4.56
  -6   9   6   14.59    3.40
  -6   9   5   17.79    3.68
  -6   9   4  479.17   19.33
  -6   9   3   37.42    4.98
  -6   9   0  470.44   19.00
  -6   9  -1  116.66    8.70
  -6   9  -2   54.79    5.97
  -6   9  -3   31.75    4.62
  -6   9  -4  439.93   18.20
  -6   9  -5   26.54    4.31
  -6   9  -6    8.70    2.65
  -6   9  -6   14.85    3.43
  -6   9  -7   38.60    4.60
  -6   9  -7   34.56    4.88
  -6   9  -8  459.11   16.80
  -6   9  -8  391.75   17.44
  -6   9  -9   92.99    7.00
  -6   9  -9   79.69    7.35
  -6   9 -10  183.94   10.02
  -6   9 -10  156.08   10.35
  -6   9 -11   92.38    7.17
  -6   9 -11   68.91    6.69
  -6   9 -12  747.07   25.61
   6   9  12  911.36   29.25
  -6   9 -13   48.15    5.47
   6   9  13   68.70    7.48
   6   9  13   71.93    7.47
  -6   9 -14   15.53    3.23
   6   9  14   18.66    4.16
   6   9  14   25.96    4.94
   6   9  15   34.18    5.55
   6   9  15   30.96    5.15
   6   9  16  218.15   13.03
   6   9  16  216.82   13.75
   6   9  17  250.62   14.10
   6   9  17  245.48   14.58
   6   9  18   47.81    6.15
   6   9  18   46.69    6.42
   6   9  19   29.16    4.94
   6   9  19   27.14    5.07
   6   9  20   88.94    8.00
   6   9  20   98.21    8.91
   6   9  21   51.70    6.00
   6   9  21   49.83    6.49
   6   9  22   64.91    6.42
   6   9  22   72.43    7.46
   6   9  23    8.57    3.37
   6   9  24  136.45    9.76
   6   9  25   87.44    7.61
   6   9  26   44.32    5.29
  -6  10  12   13.53    3.27
  -6  10  11  383.07   16.75
  -6  10  10  323.03   15.21
  -6  10   9  952.94   30.27
  -6  10   8 1154.87   34.79
  -6  10   7  412.54   18.29
  -6  10   6  415.14   18.38
  -6  10   5  343.21   16.36
  -6  10   4   50.77    6.09
  -6  10   3  358.95   16.83
  -6  10   0 1485.54   41.77
  -6  10  -1  701.93   25.12
  -6  10  -2  290.16   14.92
  -6  10  -3  328.41   15.97
  -6  10  -4   67.10    6.93
  -6  10  -5  290.16   14.78
  -6  10  -6  359.68   17.14
  -6  10  -6  415.80   16.47
  -6  10  -7  416.09   18.61
  -6  10  -7  447.30   17.35
  -6  10  -8 1043.98   33.20
  -6  10  -8 1130.75   31.77
  -6  10  -9  973.73   28.07
   6  10   9  917.73   29.67
  -6  10 -10  339.14   14.74
   6  10  10  329.74   16.10
   6  10  10  330.46   16.24
  -6  10 -11  323.74   15.75
  -6  10 -11  369.89   15.77
   6  10  11  380.61   17.57
   6  10  11  380.06   17.72
  -6  10 -12   19.25    3.86
   6  10  12   23.26    4.54
   6  10  13  227.33   13.58
   6  10  14  508.28   21.37
   6  10  15  297.61   15.52
   6  10  15  254.60   14.88
   6  10  16  984.03   32.16
   6  10  16  970.94   32.55
   6  10  17  481.73   20.35
   6  10  17  462.70   20.68
   6  10  18  340.15   16.53
   6  10  18  308.79   16.36
   6  10  19   80.58    7.69
   6  10  19   84.97    8.28
   6  10  20   29.10    4.84
   6  10  20   25.81    4.86
   6  10  21  304.85   14.51
   6  10  21  302.60   15.54
   6  10  22  253.35   12.68
   6  10  22  255.43   13.95
   6  10  23   88.69    7.84
   6  10  23   87.66    6.94
   6  10  24  381.97   16.67
   6  10  25  217.07   11.66
  -6  11  10   24.93    4.36
  -6  11   9  210.17   12.45
  -6  11   8  110.59    9.04
  -6  11   7   16.59    3.60
  -6  11   6   23.77    4.40
  -6  11   5   89.81    8.21
  -6  11   4  317.81   16.19
  -6  11   3   85.33    8.09
  -6  11   0  167.98   11.48
  -6  11  -1  221.49   13.23
  -6  11  -2   18.85    4.02
  -6  11  -3   76.81    7.65
  -6  11  -4  301.48   15.62
  -6  11  -5   77.02    7.62
  -6  11  -5   87.69    7.45
  -6  11  -6   14.37    3.57
  -6  11  -6   15.13    3.66
   6  11   6   21.15    4.10
  -6  11  -7    6.37    2.69
  -6  11  -7   14.30    3.56
   6  11   7   14.13    3.53
  -6  11  -8  111.07    8.36
  -6  11  -8   97.92    8.55
   6  11   8  115.26    9.03
   6  11   8  110.57    9.07
  -6  11  -9  202.13   11.51
  -6  11  -9  196.30   12.24
   6  11   9  207.43   12.32
   6  11   9  215.14   12.98
  -6  11 -10   27.27    4.59
  -6  11 -10   30.53    4.77
   6  11  10   28.65    4.92
   6  11  10   32.36    5.20
  -6  11 -11  134.58    9.37
   6  11  11  128.78    9.83
   6  11  11  129.88   10.04
   6  11  12  223.97   13.21
   6  11  12  228.08   13.57
   6  11  13   38.27    5.66
   6  11  13   29.82    5.14
   6  11  14   69.07    7.43
   6  11  15   11.45    3.75
   6  11  16   95.09    8.54
   6  11  17   77.88    7.66
   6  11  18   89.83    8.08
   6  11  18   91.51    8.33
   6  11  19   14.05    3.60
   6  11  19    9.10    3.41
   6  11  20  109.90    8.40
   6  11  20  104.89    8.73
   6  11  21   71.27    6.59
   6  11  21   68.96    7.02
   6  11  22   55.37    6.14
   6  11  22   53.70    5.60
   6  11  23    3.20    2.03
   6  11  23    6.56    2.89
   6  11  24   93.96    7.49
  -6  12  14  344.41   14.51
  -6  12  13  159.14    9.71
  -6  12   6  274.47   15.10
  -6  12   5  165.17   11.45
  -6  12   4    6.37    3.01
  -6  12   3  236.57   14.00
  -6  12   0 1559.97   44.77
  -6  12  -1  252.44   14.67
  -6  12  -2  219.82   13.47
   6  12   2  226.78   12.05
  -6  12  -3  222.76   13.53
   6  12   3  222.38   12.10
  -6  12  -4   14.99    3.65
  -6  12  -4    8.33    3.01
   6  12   4    5.52    2.54
  -6  12  -5  137.63   10.56
  -6  12  -5  145.48    9.93
   6  12   5  160.04   10.33
  -6  12  -6  263.26   13.60
  -6  12  -6  243.80   14.37
   6  12   6  283.21   14.20
   6  12   6  271.19   14.58
  -6  12  -7   90.63    7.87
   6  12   7   98.77    8.22
  -6  12  -8 1375.46   38.36
   6  12   8 1345.58   38.80
  -6  12  -9  334.93   15.49
   6  12   9  337.02   16.09
   6  12   9  345.66   16.89
  -6  12 -10  249.35   13.16
   6  12  10  233.32   13.21
   6  12  10  236.79   13.77
  -6  12 -11  186.79   11.39
   6  12  11  178.27   11.54
   6  12  11  188.49   12.20
   6  12  12   14.23    3.81
   6  12  12    7.77    3.15
  -6  12 -13  120.33    8.77
   6  12  13  152.53   10.81
   6  12  13  156.56   10.81
   6  12  14  391.23   18.12
   6  12  14  378.46   17.54
   6  12  15  157.82   10.94
   6  12  15  163.16   10.99
   6  12  16  847.56   28.43
   6  12  16  789.00   27.42
   6  12  17  185.00   11.64
   6  12  18   41.89    5.44
   6  12  19   36.90    5.03
   6  12  20   18.54    3.88
   6  12  20   20.07    3.77
   6  12  21  109.03    7.89
   6  12  21  109.41    8.26
   6  12  22  270.42   13.09
   6  12  22  248.40   11.73
   6  12  23   76.52    6.60
  -6  13  13   40.66    4.89
  -6  13  12    8.03    2.70
  -6  13  11   47.84    5.49
  -6  13  10   54.06    6.04
   6  13  -1  192.23   10.25
   6  13   0   41.36    4.82
   6  13   1  210.05   11.08
   6  13   1  187.84   11.65
   6  13   2   38.47    4.89
   6  13   2   36.55    5.20
  -6  13  -3  236.29   13.34
   6  13   3  249.01   12.64
   6  13   3  271.08   14.36
  -6  13  -4   62.60    6.63
   6  13   4   57.41    5.97
   6  13   4   60.37    6.69
  -6  13  -5   92.09    8.13
   6  13   5  108.04    8.27
   6  13   5  116.22    9.28
  -6  13  -6   20.85    4.28
   6  13   6   21.33    4.04
   6  13   6   25.52    4.60
  -6  13  -7   24.18    4.58
   6  13   7   28.48    4.55
   6  13   7   26.43    4.81
  -6  13  -8   15.87    3.97
   6  13   8   15.04    3.57
  -6  13  -9  105.75    8.59
   6  13   9  106.65    8.54
  -6  13 -10   43.12    5.83
  -6  13 -10   32.53    5.08
   6  13  10   41.19    5.45
  -6  13 -11   36.95    5.03
   6  13  11   45.53    5.88
   6  13  11   43.93    5.55
  -6  13 -12    5.73    2.47
   6  13  12    8.80    3.23
   6  13  12    5.27    2.65
  -6  13 -13   39.68    4.97
   6  13  13   56.84    6.52
   6  13  13   58.05    6.40
   6  13  14   53.12    6.36
   6  13  14   54.68    6.15
   6  13  15   24.49    4.49
   6  13  15   22.56    4.27
   6  13  16   22.16    4.35
   6  13  16   25.66    4.42
   6  13  17  103.35    8.35
   6  13  17  105.57    8.26
   6  13  18   13.01    3.36
   6  13  18   12.34    3.10
   6  13  19   15.61    3.42
   6  13  20   19.20    3.63
  -6  14  12   41.92    4.95
  -6  14  11   35.10    4.73
  -6  14  10   97.75    7.87
  -6  14   9   94.59    7.96
  -6  14   8  980.80   30.87
  -6  14   7   75.61    7.63
  -6  14   6  262.98   14.42
   6  14  -6  255.47   12.52
   6  14  -5   21.26    3.73
   6  14  -4   69.68    6.51
   6  14  -3    5.47    2.53
   6  14  -2  238.15   12.63
   6  14  -1   67.08    6.65
   6  14   0 1318.18   37.57
   6  14   1   76.03    6.33
   6  14   1   84.58    7.67
  -6  14  -2  209.18   12.64
   6  14   2  221.56   11.17
   6  14   2  221.49   12.62
  -6  14  -3    2.83    2.63
   6  14   3    2.62    2.29
   6  14   3    5.10    2.32
  -6  14  -4   59.65    6.62
   6  14   4   65.35    6.18
   6  14   4   72.40    7.17
  -6  14  -5   15.50    3.95
   6  14   5   18.30    3.99
   6  14   5   20.47    3.67
  -6  14  -6  253.20   13.57
  -6  14  -6  230.96   13.74
   6  14   6  280.01   13.40
   6  14   6  269.08   14.23
  -6  14  -7   54.66    6.33
  -6  14  -7   52.00    6.43
   6  14   7   61.19    6.74
   6  14   7   55.59    5.95
  -6  14  -8  982.94   30.58
   6  14   8 1074.52   32.40
   6  14   8 1073.99   30.90
  -6  14  -9   90.70    7.91
  -6  14  -9   75.25    7.37
   6  14   9   92.26    7.59
  -6  14 -10   99.76    8.28
  -6  14 -10   85.09    7.71
   6  14  10  106.47    8.11
  -6  14 -11   30.98    4.71
   6  14  11   32.95    4.72
  -6  14 -12   31.41    4.58
   6  14  12   37.95    5.39
   6  14  12   34.10    4.82
   6  14  13   33.54    4.90
   6  14  13   37.04    4.97
   6  14  14  330.12   15.38
   6  14  14  310.55   14.48
   6  14  15   48.23    5.64
   6  14  15   44.25    5.30
   6  14  16  705.30   23.67
   6  14  16  675.16   22.88
   6  14  17   23.98    4.01
   6  14  17   32.08    4.52
   6  14  18   13.08    3.09
   6  14  18   13.93    3.01
   6  14  19   15.87    3.22
   6  14  19    9.75    2.70
  -6  15  11   20.25    3.53
  -6  15  10    2.12    2.08
  -6  15   9  155.36    9.83
  -6  15   8   14.18    3.44
  -6  15   7   28.33    4.75
  -6  15   6   17.67    3.89
  -6  15   5  128.24    9.69
  -6  15   4   11.41    3.64
   6  15  -4   10.20    2.72
  -6  15   3   70.44    7.35
   6  15  -3   69.39    6.30
   6  15  -2    6.97    2.52
   6  15  -1   55.11    5.80
  -6  15   0    4.25    3.01
  -6  15   0    8.85    3.21
   6  15   0    7.72    2.74
  -6  15  -1   43.38    5.96
  -6  15  -1   45.40    6.02
   6  15   1   57.16    5.98
  -6  15  -2    7.33    3.16
  -6  15  -2    8.78    3.23
   6  15   2    8.94    2.96
  -6  15  -3   73.64    7.38
  -6  15  -3   66.32    7.07
   6  15   3   80.32    7.20
  -6  15  -4   10.71    3.31
   6  15   4    7.86    2.99
  -6  15  -4    9.08    3.10
  -6  15  -5  137.15    9.72
  -6  15  -5  116.55    9.33
   6  15   5  131.84    9.39
   6  15   5  133.26    8.29
  -6  15  -6   18.57    4.28
  -6  15  -6   13.47    3.52
   6  15   6   21.89    4.18
   6  15   6   18.07    3.35
  -6  15  -7   35.09    5.28
  -6  15  -7   26.48    4.61
   6  15   7   33.56    4.96
   6  15   7   29.82    4.16
  -6  15  -8   23.50    4.50
  -6  15  -8   16.01    3.75
   6  15   8   18.15    3.84
   6  15   8   16.21    3.28
  -6  15  -9  171.16   10.57
  -6  15  -9  146.12   10.15
   6  15   9  180.05   10.94
   6  15   9  179.97   10.05
   6  15  10    5.91    2.81
  -6  15 -10    6.54    2.63
   6  15  10    7.08    2.53
  -6  15 -11   12.98    3.18
   6  15  11   14.69    3.21
  -6  15 -12    7.79    2.52
   6  15  12    7.07    2.52
   6  15  13  132.86    9.03
   6  15  13  127.49    8.32
   6  15  14   25.18    4.08
   6  15  14   24.90    3.97
   6  15  15    6.98    2.67
   6  15  15    4.41    2.22
   6  15  16   28.43    3.97
   6  15  16   26.15    4.01
   6  15  17  170.16    9.42
  -6  16  10   57.48    5.40
  -6  16   9   13.97    3.05
  -6  16   8  598.90   20.89
  -6  16   7   55.62    5.84
  -6  16   6  111.92    8.41
  -6  16   5   10.94    2.95
  -6  16   4   46.25    5.63
  -6  16   3    2.34    2.19
  -6  16   2  122.75    9.50
  -6  16   1   47.85    6.16
   6  16  -1   52.40    5.44
  -6  16   0  882.91   29.11
  -6  16   0  840.59   28.70
  -6  16  -1   44.88    5.85
  -6  16  -1   49.43    5.96
   6  16   1   58.06    5.77
  -6  16  -2  130.64    9.45
  -6  16  -2  113.18    8.91
   6  16   2  139.02    8.95
  -6  16  -3   -1.13    2.91
  -6  16  -3    1.96    1.78
   6  16   3    2.98    1.77
  -6  16  -4   39.94    5.53
  -6  16  -4   40.05    5.41
   6  16   4   49.28    5.47
  -6  16  -5   11.49    3.55
  -6  16  -5    9.14    2.94
   6  16   5    6.77    2.63
  -6  16  -6  110.00    8.37
  -6  16  -6   97.99    8.11
   6  16   6  125.44    8.62
  -6  16  -7   60.98    6.37
  -6  16  -7   49.32    5.73
   6  16   7   62.15    6.17
  -6  16  -8  612.25   21.37
   6  16   8  679.90   22.18
  -6  16  -9   13.95    3.27
   6  16   9   14.03    3.27
  -6  16 -10   48.69    5.34
   6  16  10   60.89    5.89
  -6  16 -11    2.47    1.82
   6  16  11    2.18    2.01
  -6  17   8   17.47    3.15
  -6  17   7   18.04    3.36
  -6  17   6   22.16    3.74
  -6  17   5   88.17    7.42
  -6  17   5   86.28    6.95
  -6  17   4   10.63    3.20
  -6  17   4   10.90    3.05
  -6  17   3   53.97    6.09
  -6  17   3   58.62    5.99
  -6  17   2    3.38    2.65
  -6  17   2    8.46    2.72
  -6  17   1    7.97    3.00
  -6  17   0    2.63    2.57
  -6  17   0    6.51    2.19
  -6  17  -1   16.78    3.82
  -6  17  -1   13.01    3.31
  -6  17  -2    3.91    2.75
  -6  17  -2    4.76    2.21
   6  17   2    4.45    2.04
  -6  17  -3   57.33    6.14
  -6  17  -3   49.87    5.55
  -6  17  -4   14.83    3.61
  -6  17  -4    8.81    2.90
   6  17   4   15.82    3.15
  -6  17  -5  104.42    7.76
   6  17   5  107.95    7.35
  -6  17  -6   19.64    3.97
  -6  17  -6   12.42    3.06
   6  17   6   18.24    3.34
  -6  17  -7   17.85    3.49
   6  17   7   29.36    4.08
  -6  17  -8   18.99    3.44
   6  17   8   23.02    3.63
   6  17   9  166.01    9.13
  -7   0   0    1.25    0.96
  -7   0   0    0.14    1.63
  -7   0  -1  115.45    6.38
  -7   0  -1  117.42    7.79
  -7   0   1  119.22    7.92
  -7   0  -2 2532.22   55.28
  -7   0  -2 2527.29   58.85
  -7   0   2 2650.61   59.45
  -7   0  -3  252.55    9.88
  -7   0  -3  248.63   11.74
  -7   0   3  273.74   12.39
  -7   0  -4   42.07    3.67
  -7   0  -4   35.30    4.18
  -7   0  -5   65.60    4.63
  -7   0  -5   66.95    5.72
  -7   0  -6 1137.47   28.10
  -7   0  -6 1111.50   30.49
  -7   0  -7   34.79    3.42
  -7   0  -7   32.61    4.08
  -7   0  -8    4.42    1.43
  -7   0  -8    3.50    1.98
  -7   0  -9  133.10    7.08
  -7   0  -9  128.36    8.52
  -7   0 -10  988.89   25.74
  -7   0 -10  902.17   28.12
  -7   0 -11   77.30    6.72
  -7   0 -12  295.21   12.76
  -7   0 -12  314.96   14.75
  -7   0 -13   72.24    5.81
  -7   0 -13   80.23    7.27
  -7   0  14 1605.66   37.03
  -7   0 -14 1381.32   41.39
  -7   0 -15   10.23    3.06
   7   0  16  738.20   25.62
  -7   0 -16  640.62   25.44
  -7   0 -17  163.70   11.92
  -7   0 -18 1290.20   40.85
  -7   0 -19  134.63   11.28
  -7   0 -20  579.97   25.43
  -7   0 -21   99.09   10.18
  -7   0 -22 1357.63   44.04
  -7   0 -23    3.56    3.17
  -7   0 -24  161.31   12.87
  -7   0 -25  139.53   11.98
  -7   0 -26  507.22   23.23
  -7   0 -27   69.32    8.09
  -7   0 -28  455.65   21.06
  -7   0 -29   22.64    4.67
  -7   0 -30  423.95   19.19
  -7  -1 -30    6.55    3.24
  -7  -1 -29  222.16   13.89
  -7  -1 -28    9.97    3.78
  -7  -1 -27  690.32   27.58
  -7  -1 -26  239.75   15.51
  -7  -1 -25  215.33   14.89
  -7  -1 -24   31.06    6.16
  -7  -1 -23  112.77   10.92
  -7  -1 -22   15.27    4.62
  -7  -1 -21  386.94   20.64
  -7  -1 -20   21.15    5.13
  -7  -1 -19 1027.71   35.82
  -7  -1 -18  169.71   12.60
  -7  -1 -17    7.18    3.28
  -7  -1 -16   38.57    5.78
  -7  -1 -15  226.82   13.38
  -7   1  14  114.26    6.76
  -7  -1 -14   93.96    8.14
  -7   1  13 1062.64   26.81
  -7  -1 -13  864.67   29.17
  -7   1  12  192.49    8.95
  -7  -1 -12  146.34    9.76
  -7   1  11 1556.63   35.67
  -7  -1 -11 1287.23   37.78
  -7   1  10  262.81   10.69
  -7  -1 -10  238.67   12.25
  -7   1   9  561.65   17.00
  -7  -1  -9  482.12   18.53
  -7  -1  -8   94.37    6.17
  -7  -1  -8   88.62    6.96
  -7  -1  -7   21.74    2.94
  -7  -1  -7   18.07    3.08
  -7  -1  -6   11.15    2.17
  -7  -1  -6   12.40    2.62
  -7  -1  -5 1314.85   32.53
  -7  -1  -5 1322.97   34.99
  -7  -1  -4  213.53    9.47
  -7  -1  -4  219.23   10.88
  -7  -1  -3 1526.10   36.71
  -7  -1  -3 1558.74   39.46
  -7  -1  -2  271.30   10.87
  -7  -1  -2  275.12   12.55
  -7  -1  -1  336.54   12.40
  -7  -1  -1  324.82   13.87
  -7   1   0    0.85    0.82
  -7  -1   0    2.49    1.25
  -7  -1   0    3.23    1.41
  -7  -1   0    2.66    1.53
  -7   1  -1  331.84   11.45
  -7  -1   1  364.77   14.76
  -7   1  -2  255.24    9.42
  -7  -1   2  281.74   12.74
  -7   1  -3 1515.63   34.80
  -7  -1   3 1592.23   40.18
  -7   1  -4  218.35    8.44
  -7   1  -5 1342.45   31.07
  -7   1  -6   16.92    2.22
  -7   1  -7   26.28    2.75
  -7   1  -8   72.88    4.69
  -7   1  -9  471.73   16.71
  -7   1  -9  492.83   14.94
  -7   1 -10  190.13    9.80
  -7   1 -11 1353.97   35.36
  -7   1 -12  159.97    8.99
  -7   1 -13  811.79   24.16
  -7  -1  14  118.14    6.65
   7   1  16   41.78    5.91
   7   1  17    6.14    3.09
   7   1  18  185.29   12.09
  -7   1 -30    7.50    3.17
  -7  -2 -30  313.15   16.19
  -7  -2 -29    4.38    2.83
  -7  -2 -28  171.13   12.43
  -7  -2 -27  146.04   11.70
  -7  -2 -26  513.50   23.37
  -7  -2 -25  159.82   12.75
  -7  -2 -24  162.92   13.01
  -7  -2 -23   94.21    9.90
  -7  -2 -22 1085.69   38.20
  -7  -2 -21   78.63    8.93
  -7  -2 -20  301.43   17.75
  -7  -2 -19  397.69   20.18
  -7  -2 -18  695.98   27.53
  -7  -2 -17   82.85    8.42
  -7  -2 -16  158.78   11.45
  -7  -2 -15  123.13    9.66
  -7   2  14 1307.45   31.74
  -7  -2 -14 1080.23   34.75
  -7   2  13  123.52    7.29
  -7  -2 -13  114.35    8.71
  -7   2  12   80.83    5.77
  -7  -2 -12   65.18    6.34
  -7   2  11  481.29   15.76
  -7  -2 -11  393.49   17.00
  -7   2  10 1482.69   35.07
  -7  -2 -10 1257.61   36.77
  -7   2   9  188.21    9.07
  -7  -2  -9  161.85    9.81
  -7   2   8   66.54    5.19
  -7  -2  -8   57.53    5.60
  -7   2   7  393.84   13.76
  -7  -2  -7  329.23   14.23
  -7   2   6 1972.58   43.91
  -7  -2  -6 1866.06   44.16
  -7   2   5   92.65    6.00
  -7  -2  -5   91.23    6.22
  -7  -2  -5   95.08    7.05
  -7   2   4   32.95    3.58
  -7  -2  -4   38.15    3.94
  -7  -2  -4   35.14    4.32
  -7   2   3  292.81   11.68
  -7  -2  -3  308.63   12.22
  -7  -2  -3  326.70   13.77
  -7  -2  -2 2343.65   52.84
  -7  -2  -2 2377.64   55.24
  -7   2   2 2285.73   53.92
  -7  -2  -1  339.94   13.20
  -7  -2  -1  366.19   14.77
  -7   2   1  341.27   13.88
  -7   2   0    9.14    1.64
  -7  -2   0   10.18    2.16
  -7  -2   0   12.91    2.46
  -7   2   0    8.78    2.27
  -7  -2   0   10.84    2.62
  -7   2  -1  358.45   11.18
  -7   2  -1  353.04   14.06
  -7  -2   1  336.92   13.18
  -7  -2   1  371.63   15.03
  -7   2  -2 2416.82   54.79
  -7  -2   2 2569.42   56.63
  -7   2  -3  246.59   10.83
  -7   2  -3  272.16    9.06
  -7   2  -4   42.14    4.23
  -7   2  -4   53.89    5.13
  -7   2  -5   90.86    6.24
  -7   2  -5   91.01    4.66
  -7   2  -5   94.85    6.91
  -7   2  -6 1832.56   38.30
  -7   2  -6 1761.72   43.28
  -7   2  -7  311.01   13.08
  -7   2  -7  347.15   10.67
  -7   2  -7  324.20   13.71
  -7   2  -8   86.61    6.52
  -7   2  -8   95.05    7.08
  -7   2  -9  157.18    9.06
  -7   2  -9  165.38    9.74
  -7   2 -10 1272.44   34.48
  -7   2 -10 1325.58   36.06
  -7   2 -11  389.60   15.43
  -7   2 -11  413.00   16.85
  -7   2 -12   85.18    6.59
  -7   2 -12   85.44    7.24
  -7   2 -13   95.51    6.90
  -7   2 -13  113.77    8.52
  -7   2 -14 1133.94   34.10
  -7   2 -15  142.84   10.26
  -7   2 -16  152.75   11.03
   7   2  16  188.88   12.40
  -7   2 -17   85.67    8.35
   7   2  17   83.30    8.30
  -7   2 -18  674.98   26.85
   7   2  18  763.27   27.66
  -7   2 -19  408.19   20.08
   7   2  19  460.65   20.42
  -7   2 -20  314.09   17.66
   7   2  20  369.46   17.92
  -7   2 -21   79.04    8.76
  -7   2 -22 1064.77   36.60
  -7   2 -23   94.37    9.51
  -7   2 -24  154.44   12.03
  -7   2 -25  132.01   10.98
  -7   2 -26  510.66   22.48
  -7   2 -27  131.40   10.62
  -7   2 -28  154.43   11.22
  -7   2 -29    6.80    2.88
  -7   2 -30  309.37   15.33
  -7  -3 -29  303.89   16.29
  -7  -3 -28   22.07    4.66
  -7  -3 -27  519.84   23.24
  -7  -3 -26  211.00   14.36
  -7  -3 -25  127.28   11.09
  -7  -3 -24   31.05    5.94
  -7  -3 -23  124.20   11.29
  -7  -3 -22   79.61    8.93
  -7  -3 -21  365.90   19.59
  -7  -3 -20   57.16    7.44
  -7  -3 -19  998.27   34.68
  -7  -3 -18  307.98   16.98
  -7  -3 -17   39.10    5.80
  -7  -3 -16   85.41    8.20
  -7  -3 -15  152.33   10.54
  -7   3  14   45.84    4.60
  -7  -3 -14   39.29    5.23
  -7   3  13  930.44   24.77
  -7  -3 -13  712.02   26.02
  -7   3  12  250.49   10.98
  -7  -3 -12  212.47   12.07
  -7   3  11 1641.53   38.30
  -7  -3 -11 1364.00   39.78
  -7   3  10  212.50   10.05
  -7  -3 -10  191.11   10.94
  -7   3   9  209.13    9.94
  -7  -3  -9  187.03   10.67
  -7   3   8   28.76    3.56
  -7  -3  -8   22.92    3.67
  -7   3   7   29.67    3.65
  -7  -3  -7   28.77    3.79
  -7   3   6  104.87    6.82
  -7  -3  -6   98.84    7.27
  -7   3   5 1619.57   38.63
  -7  -3  -5 1499.19   39.86
  -7   3   4  356.02   13.53
  -7  -3  -4  340.23   14.48
  -7   3   3 1274.67   32.71
  -7  -3  -3 1283.48   34.64
  -7  -3  -2  169.84    9.67
  -7   3   2  156.98    8.76
  -7  -3  -1  532.32   18.67
  -7   3   1  486.28   17.12
  -7   3   0   74.50    5.65
  -7   3   0   77.64    4.12
  -7  -3   0   70.64    5.40
  -7   3   0   71.37    5.78
  -7  -3   0   78.85    6.47
  -7   3  -1  444.94   15.65
  -7   3  -1  430.45   11.99
  -7   3  -1  477.04   16.50
  -7  -3   1  444.98   15.57
  -7  -3   1  491.26   17.59
  -7   3  -2  154.19    8.47
  -7   3  -2  153.03    5.79
  -7   3  -2  170.85    9.15
  -7  -3   2  181.86    9.95
  -7   3  -3 1244.48   26.99
  -7   3  -3 1326.88   33.42
  -7   3  -4  264.84   11.78
  -7   3  -4  276.39    8.21
  -7   3  -4  285.53   12.39
  -7   3  -5 1445.47   37.92
  -7   3  -5 1615.52   39.25
  -7   3  -6  112.20    7.50
  -7   3  -6  120.71    7.83
  -7   3  -7   24.13    3.51
  -7   3  -7   23.08    3.40
  -7   3  -8   37.88    4.45
  -7   3  -8   51.13    5.12
  -7   3  -9  178.13    9.88
  -7   3  -9  168.89    9.90
  -7   3 -10  193.70   10.46
  -7   3 -10  194.67   10.87
  -7   3 -11 1421.17   38.06
  -7   3 -11 1514.60   39.96
  -7   3 -12  224.61   11.33
  -7   3 -12  254.96   12.88
  -7   3 -13  677.65   22.28
  -7   3 -13  779.38   25.38
  -7   3 -14   35.36    4.93
  -7   3 -15  179.03   11.28
  -7   3 -16   73.91    7.49
   7   3  16   90.07    8.63
  -7   3 -17   90.59    8.47
   7   3  17   93.76    9.00
  -7   3 -18  294.62   16.07
   7   3  18  317.63   16.94
  -7   3 -19 1026.11   35.05
   7   3  19 1176.78   36.82
  -7   3 -20   76.42    8.31
   7   3  20   90.77    8.91
  -7   3 -21  355.05   18.60
   7   3  21  397.31   18.93
  -7   3 -22   59.34    7.29
   7   3  22   60.77    7.15
  -7   3 -23   98.88    9.29
  -7   3 -24   49.78    6.70
  -7   3 -25  118.95   10.15
  -7   3 -26  180.87   12.45
  -7   3 -27  492.51   21.23
  -7   3 -28   14.12    3.96
  -7   3 -29  324.00   15.81
  -7  -4 -29    5.64    3.19
  -7  -4 -28  182.09   12.51
  -7  -4 -27  336.67   17.91
  -7  -4 -26  139.08   11.39
  -7  -4 -25   82.84    8.98
  -7  -4 -24   96.09    9.53
  -7  -4 -23  245.88   15.43
  -7  -4 -22  428.37   20.95
  -7  -4 -21   48.18    6.75
  -7  -4 -20  114.16   10.01
  -7  -4 -19  286.14   16.15
  -7  -4 -18  413.76   19.47
  -7  -4 -17  235.94   13.99
  -7  -4 -16  113.49    9.27
  -7  -4 -15  482.99   20.21
  -7   4  14  730.80   21.30
  -7  -4 -14  636.27   24.10
  -7   4  13  335.14   13.31
  -7  -4 -13  291.68   14.78
  -7   4  12  110.63    7.30
  -7  -4 -12   88.87    7.72
  -7   4  11  604.17   19.21
  -7  -4 -11  503.14   20.01
  -7   4  10  375.92   14.43
  -7  -4 -10  325.18   15.01
  -7   4   9  431.41   15.58
  -7  -4  -9  359.45   15.69
  -7   4   8   87.76    6.46
  -7  -4  -8   78.59    6.58
  -7   4   7  869.67   24.71
  -7  -4  -7  755.81   24.93
  -7   4   6 1267.27   32.24
  -7  -4  -6 1093.51   32.46
  -7   4   5  849.03   24.42
  -7  -4  -5  772.23   24.92
  -7   4   4  267.12   11.82
  -7  -4  -4  255.35   12.35
  -7   4   3 1000.22   27.91
  -7  -4  -3 1015.52   29.37
  -7  -4  -2  652.22   21.66
  -7   4   1  678.96   16.71
  -7   4   1  713.02   21.55
  -7  -4   0  119.38    7.06
  -7   4   0  115.79    7.25
  -7  -4   0  117.90    7.88
  -7   4   0  106.71    7.13
  -7  -4   1  737.67   23.06
  -7   4  -1  728.65   21.75
  -7   4  -2  641.28   20.13
  -7   4  -2  607.02   20.02
  -7   4  -3 1063.67   28.44
  -7   4  -3  951.44   27.86
  -7   4  -4  223.14   10.80
  -7   4  -4  236.87   11.28
  -7   4  -5  835.32   24.61
  -7   4  -5  785.06   24.53
  -7   4  -6 1193.03   31.68
  -7   4  -6 1087.84   31.30
  -7   4  -7  781.59   24.05
  -7   4  -7  769.90   24.34
  -7   4  -8  102.13    7.21
  -7   4  -8  102.92    7.56
  -7   4  -9  383.45   15.43
  -7   4  -9  352.71   15.12
  -7   4 -10  357.83   15.27
  -7   4 -10  352.58   15.10
  -7   4 -11  578.74   20.57
  -7   4 -11  509.17   19.07
  -7   4 -12  143.68    9.57
  -7   4 -12  137.92    8.83
  -7   4 -13  302.60   14.44
  -7   4 -13  245.38   11.95
  -7   4 -14  744.55   24.29
  -7   4 -14  531.43   18.78
  -7   4 -15  503.00   20.33
  -7   4 -16  124.10    9.51
   7   4  16  149.45   11.33
   7   4  16  138.83    9.77
  -7   4 -17  243.79   13.93
   7   4  17  265.56   15.48
   7   4  17  270.34   13.97
  -7   4 -18  496.41   21.37
   7   4  18  590.53   24.10
  -7   4 -19  287.32   15.70
   7   4  19  324.92   17.40
  -7   4 -20  151.68   11.20
   7   4  20  166.25   12.18
  -7   4 -21   53.89    6.85
   7   4  21   63.54    7.55
  -7   4 -22  414.75   19.99
   7   4  22  521.70   21.85
  -7   4 -23  260.76   15.29
   7   4  23  305.76   15.99
  -7   4 -24   69.70    7.79
   7   4  24   77.43    7.68
  -7   4 -25  107.83    9.48
  -7   4 -26  130.98   10.25
  -7   4 -27  358.78   17.30
  -7   4 -28  157.05   10.64
  -7   4 -29    1.69    2.33
  -7  -5 -28   29.75    5.19
  -7  -5 -27  378.31   18.69
  -7  -5 -26  172.14   12.54
  -7  -5 -25  176.48   12.81
  -7  -5 -24   60.97    7.64
  -7  -5 -23  119.26   10.50
  -7  -5 -22   12.37    3.58
  -7  -5 -21  402.22   19.83
  -7  -5 -20   61.99    7.42
  -7  -5 -19  488.35   21.66
  -7  -5 -18  237.28   14.24
  -7  -5 -17  193.85   12.50
  -7  -5 -16    7.69    2.67
  -7  -5 -15   35.73    5.16
  -7   5  15   37.18    4.08
  -7  -5 -14  176.22   11.45
  -7   5  14  196.99    9.68
  -7  -5 -13  528.27   20.98
  -7   5  13  560.83   18.40
  -7  -5 -12   72.58    6.99
  -7   5  12   81.24    6.18
  -7  -5 -11  705.27   25.22
  -7   5  11  852.99   24.46
  -7  -5 -10  252.84   13.04
  -7   5  10  320.48   13.50
  -7  -5  -9  294.59   13.90
  -7   5   9  336.41   13.99
  -7  -5  -8   30.74    4.40
  -7   5   8   31.59    4.18
  -7  -5  -7  314.77   14.43
  -7   5   7  336.95   14.07
  -7  -5  -6  324.33   14.57
  -7   5   6  354.68   14.50
  -7  -5  -5  911.47   28.15
  -7   5   5  997.18   28.14
  -7  -5  -4  140.62    8.99
  -7   5   4  164.29    9.32
  -7  -5  -3  821.07   25.38
  -7   5   3  817.02   24.96
  -7  -5  -2  369.49   15.11
  -7   5   1  423.61   15.32
  -7  -5  -1  457.15   16.99
  -7   5   0   46.02    4.48
  -7  -5   0   46.70    4.87
  -7   5   0   51.02    5.08
  -7  -5   1  444.30   16.72
  -7   5  -1  432.51   15.46
  -7   5  -1  432.99   16.49
  -7   5  -2  341.87   13.30
  -7   5  -2  324.01   13.93
  -7   5  -3  824.63   23.96
  -7   5  -3  808.06   25.04
  -7   5  -4  105.77    7.04
  -7   5  -4  105.79    7.59
  -7   5  -5  957.06   26.84
  -7   5  -5  911.12   27.73
  -7   5  -6  329.51   13.64
  -7   5  -6  322.30   14.34
  -7   5  -7  326.39   13.70
  -7   5  -7  314.98   14.26
  -7   5  -8   34.44    4.28
  -7   5  -8   37.87    4.76
  -7   5  -9  326.98   13.88
  -7   5  -9  320.76   14.59
  -7   5 -10  280.73   13.04
  -7   5 -10  297.46   14.03
  -7   5 -11  788.62   24.91
  -7   5 -11  730.00   24.18
  -7   5 -12   94.93    7.63
  -7   5 -12   83.07    6.70
  -7   5 -13  555.94   20.15
  -7   5 -13  416.95   16.43
  -7   5 -14  225.58   12.31
  -7   5 -14  151.02    8.91
  -7   5 -15   40.99    5.43
   7   5  15   35.24    5.71
   7   5  15   44.35    5.67
  -7   5 -16   18.91    3.79
   7   5  16   13.72    3.58
   7   5  16   13.67    4.05
  -7   5 -17  251.45   14.04
   7   5  17  261.80   15.50
   7   5  17  263.83   14.07
  -7   5 -18  284.12   15.29
   7   5  18  313.16   15.29
   7   5  18  312.41   17.07
  -7   5 -19  586.51   23.62
   7   5  19  641.17   25.79
  -7   5 -20   84.38    8.32
   7   5  20   84.40    8.73
  -7   5 -21  494.26   21.58
   7   5  21  551.96   23.18
  -7   5 -22    7.52    2.86
   7   5  22    3.40    2.89
  -7   5 -23  137.52   10.60
   7   5  23  140.70   10.75
  -7   5 -24   67.62    7.52
   7   5  24   78.17    7.74
  -7   5 -25  205.66   12.80
   7   5  25  190.77   11.71
  -7   5 -26  149.46   10.66
  -7   5 -27  381.15   17.24
  -7   5 -28   20.44    4.08
  -7  -6 -27  414.12   18.75
  -7  -6 -26   10.98    3.76
  -7  -6 -25   65.20    7.59
  -7  -6 -24   64.69    7.79
  -7  -6 -23  451.08   20.92
  -7  -6 -22  109.23    9.76
  -7  -6 -21   97.94    9.28
  -7  -6 -20  156.60   11.62
  -7  -6 -19  533.30   22.64
  -7  -6 -18  107.63    9.31
  -7  -6 -17  166.36   11.44
  -7  -6 -16  125.42    9.73
  -7  -6 -15  781.55   28.18
  -7   6  15  917.20   25.41
  -7  -6 -14  102.25    8.52
  -7   6  14  111.36    7.33
  -7  -6 -13  329.08   15.97
  -7   6  13  391.88   14.99
  -7  -6 -12  152.90   10.12
  -7   6  12  179.08    9.64
  -7  -6 -11  467.21   19.02
  -7   6  11  566.36   18.84
  -7  -6 -10   44.91    5.29
  -7   6  10   67.34    5.81
  -7  -6  -9  563.97   21.15
  -7   6   9  599.22   20.10
  -7  -6  -8  165.00   10.31
  -7   6   8  182.36   10.07
  -7  -6  -7 1280.78   36.93
  -7   6   7 1450.89   37.39
  -7   6   6    5.10    2.33
  -7  -6  -6    9.33    2.70
  -7  -6  -5 1409.58   38.90
  -7   6   5 1557.34   39.85
  -7  -6  -4  255.43   12.53
  -7   6   4  275.39   13.03
  -7  -6  -3 1413.39   37.96
  -7   6   3 1483.95   38.82
  -7  -6  -2   90.82    6.94
  -7  -6  -1  801.36   24.74
  -7   6   0  141.78    7.88
  -7  -6   0  148.50    8.92
  -7   6   0  148.49    9.27
  -7   6  -1  807.84   23.18
  -7   6  -1  812.70   25.66
  -7   6  -2   80.36    5.81
  -7   6  -2   78.97    6.75
  -7   6  -3 1411.11   35.61
  -7   6  -3 1439.66   38.35
  -7   6  -4  300.18   12.46
  -7   6  -4  317.66   14.42
  -7   6  -5 1391.06   35.00
  -7   6  -5 1314.23   37.06
  -7   6  -6   13.83    3.36
  -7   6  -6    8.59    2.50
  -7   6  -7 1387.32   35.69
  -7   6  -7 1353.27   37.73
  -7   6  -8  178.34    9.66
  -7   6  -8  161.90   10.06
  -7   6  -9  575.11   19.51
  -7   6  -9  514.42   19.60
  -7   6 -10   53.67    5.29
  -7   6 -10   59.88    5.81
  -7   6 -11  553.91   19.13
  -7   6 -11  478.69   18.55
  -7   6 -12  131.33    8.61
  -7   6 -12  109.40    7.92
  -7   6 -13  403.27   16.34
  -7   6 -13  321.06   14.34
  -7   6 -14  124.34    8.80
  -7   6 -14   90.29    6.91
  -7   6 -15  906.54   29.59
   7   6  15 1010.73   33.64
   7   6  15  982.79   31.63
  -7   6 -16  133.80    9.67
   7   6  16  140.74   11.20
   7   6  16  137.49   10.20
  -7   6 -17  202.92   12.21
   7   6  17  186.94   13.17
   7   6  17  221.97   12.95
  -7   6 -18  132.23    9.83
   7   6  18  129.17    9.70
   7   6  18  118.39   10.43
  -7   6 -19  635.31   24.40
   7   6  19  668.68   24.32
   7   6  19  707.56   27.28
  -7   6 -20  156.98   11.02
   7   6  20  162.26   12.11
  -7   6 -21  123.97    9.81
   7   6  21  113.28   10.01
  -7   6 -22  104.09    9.00
   7   6  22  109.69    9.54
  -7   6 -23  492.82   20.87
   7   6  23  518.13   21.76
  -7   6 -24   68.37    7.32
   7   6  24   88.11    8.11
  -7   6 -25   67.83    7.09
   7   6  25   67.96    6.91
  -7   6 -26   19.03    3.99
   7   6  26   14.70    3.53
  -7   6 -27  391.39   16.45
  -7  -7 -24   42.09    5.95
  -7  -7 -23  150.88   10.92
  -7  -7 -22   63.98    7.11
  -7  -7 -21  254.49   14.52
  -7  -7 -20   36.38    5.51
  -7  -7 -19  266.10   14.75
  -7  -7 -18  226.04   13.40
  -7  -7 -17  425.94   18.88
  -7  -7 -16   57.10    6.44
  -7  -7 -15  204.26   12.31
  -7   7  15  261.38   11.68
  -7  -7 -14   62.46    6.44
  -7   7  14   76.57    6.28
  -7  -7 -13  144.35    9.90
  -7   7  13  184.31    9.98
  -7  -7 -12   53.24    6.03
  -7   7  12   60.52    5.68
  -7  -7 -11  462.37   19.35
  -7   7  11  536.87   18.89
  -7  -7 -10   57.92    6.14
  -7   7  10   56.23    5.61
  -7  -7  -9   77.86    7.05
  -7   7   9   77.12    6.55
  -7  -7  -8   50.29    5.66
  -7   7   8   51.85    5.37
  -7  -7  -7  900.38   28.25
  -7   7   7  911.19   27.48
  -7  -7  -6  319.14   14.69
  -7   7   6  343.85   14.72
  -7  -7  -5  433.32   17.32
  -7   7   5  442.89   17.35
  -7  -7  -4   97.57    7.44
  -7   7   4   94.25    7.40
  -7  -7  -3  647.67   21.67
  -7   7   3  634.31   21.95
  -7  -7  -2  368.70   15.21
  -7   7   0   46.35    5.25
  -7   7  -1  266.44   13.02
  -7   7  -2  337.84   12.77
  -7   7  -2  328.34   14.81
  -7   7  -3  621.52   19.16
  -7   7  -3  621.95   21.80
  -7   7  -4   92.36    6.25
  -7   7  -4   91.62    7.37
  -7   7  -5  427.40   14.98
  -7   7  -5  390.20   16.54
  -7   7  -6  332.62   13.08
  -7   7  -6  317.00   14.57
  -7   7  -7  916.64   25.54
  -7   7  -7  831.04   27.04
  -7   7  -8   70.31    5.78
  -7   7  -8   63.95    6.24
  -7   7  -9   98.51    6.93
  -7   7  -9   82.96    7.27
  -7   7 -10   98.07    7.01
  -7   7 -10   75.00    6.86
  -7   7 -11  493.38   17.68
  -7   7 -11  422.37   17.66
  -7   7 -12   48.62    5.22
  -7   7 -12   42.78    5.12
  -7   7 -13  222.26   11.26
  -7   7 -13  170.51   10.26
  -7   7 -14   44.26    4.94
  -7   7 -14   60.72    5.71
   7   7  14   69.82    7.84
   7   7  14   64.36    7.18
  -7   7 -15  247.63   12.65
   7   7  15  297.22   16.49
   7   7  15  269.44   14.82
  -7   7 -16   67.58    6.43
   7   7  16   66.65    7.84
   7   7  16   65.84    7.29
  -7   7 -17  472.68   19.22
   7   7  17  521.33   21.35
   7   7  17  531.58   22.94
  -7   7 -18  270.12   13.91
   7   7  18  271.57   14.65
   7   7  18  298.81   16.62
  -7   7 -19  293.39   14.70
   7   7  19  323.31   15.81
   7   7  19  326.53   17.57
  -7   7 -20   42.83    5.52
   7   7  20   43.92    5.69
   7   7  20   51.55    6.75
  -7   7 -21  293.16   14.81
   7   7  21  337.89   17.28
  -7   7 -22   72.46    6.95
   7   7  22   82.83    8.34
  -7   7 -23  152.05   10.11
   7   7  23  161.46   11.24
   7   7  24   52.03    6.28
   7   7  25  193.82   11.48
   7   7  26  100.81    7.89
  -7  -8 -17   41.71    5.41
  -7  -8 -16  180.54   11.19
  -7  -8 -15  667.13   24.57
  -7   8  15  785.69   23.23
  -7   8  14    7.85    2.49
  -7  -8 -14    6.40    2.59
  -7  -8 -13  152.19   10.26
  -7   8  13  177.03   10.06
  -7  -8 -12  230.36   12.70
  -7   8  12  262.02   12.71
  -7  -8 -11  944.21   30.64
  -7   8  11 1139.47   31.48
  -7  -8 -10  118.61    8.76
  -7   8  10  128.46    8.77
  -7  -8  -9  316.22   14.92
  -7   8   9  332.57   14.88
  -7  -8  -8  132.38    9.16
  -7   8   8  137.03    9.23
  -7   8   7  717.98   24.30
  -7   8   6   32.28    4.67
  -7   8   5  614.42   22.00
  -7   8   4  121.66    8.79
  -7   8   3  683.55   23.70
  -7   8   0  169.66   10.39
  -7   8  -1  732.23   24.69
  -7   8  -2    5.17    2.56
  -7   8  -3  666.05   19.55
  -7   8  -3  659.82   23.23
  -7   8  -4  104.82    6.41
  -7   8  -4   99.69    8.04
  -7   8  -5  668.88   19.67
  -7   8  -5  632.22   22.88
  -7   8  -6   26.75    3.63
  -7   8  -6   19.77    3.00
  -7   8  -6   28.08    4.36
  -7   8  -7  713.99   21.12
  -7   8  -7  686.19   24.34
  -7   8  -8  127.58    7.55
  -7   8  -8  130.07    9.32
  -7   8  -9  338.73   13.27
  -7   8  -9  302.72   14.95
  -7   8 -10  133.06    7.94
  -7   8 -10  122.52    9.01
  -7   8 -11  980.49   26.97
  -7   8 -11  858.73   28.65
  -7   8 -12  335.50   13.71
  -7   8 -12  299.03   14.51
  -7   8 -13  150.13    8.85
   7   8  13  152.47   11.59
   7   8  13  164.62   11.49
  -7   8 -14    9.14    2.63
  -7   8 -14   13.23    3.05
   7   8  14   17.41    4.04
   7   8  14   14.08    4.17
   7   8  15  815.67   29.88
   7   8  15  845.56   29.10
  -7   8 -16  294.61   13.66
   7   8  16  322.13   17.44
   7   8  16  344.01   16.93
  -7   8 -17   49.89    5.34
   7   8  17   67.13    7.23
   7   8  17   53.77    7.15
  -7   8 -18   34.65    4.62
   7   8  18   36.69    5.50
   7   8  18   44.77    6.55
   7   8  19  916.26   29.68
   7   8  19  936.44   32.10
  -7   8 -20   71.96    6.53
   7   8  20   75.76    7.27
   7   8  20   80.65    8.39
   7   8  21   77.11    6.94
   7   8  21   78.76    8.18
   7   8  22    4.74    3.06
   7   8  23  439.31   19.24
   7   8  24   66.06    6.83
   7   8  25   31.54    4.70
   7   8  26   20.40    3.78
  -7   9  14  214.12   11.09
  -7   9  13  184.33   10.40
  -7   9  12   69.45    6.42
  -7   9  11  106.71    8.25
  -7   9  10  385.00   16.58
  -7   9   9  184.90   11.11
  -7   9   8   74.23    7.17
  -7   9   7 1054.00   32.15
  -7   9   6  146.14    9.98
  -7   9   5  199.20   11.77
  -7   9   4   92.64    7.91
  -7   9   3  332.64   15.74
  -7   9   0   28.03    4.65
  -7   9  -1  305.24   14.93
  -7   9  -2  254.33   13.52
  -7   9  -3  332.39   15.74
  -7   9  -4  125.31    9.30
  -7   9  -5  180.80    9.68
  -7   9  -5  168.20   10.90
  -7   9  -6  102.59    7.16
  -7   9  -6   87.72    7.92
  -7   9  -7 1063.92   28.96
  -7   9  -7  983.20   31.89
  -7   9  -8   64.75    6.96
  -7   9  -9  196.03   11.94
  -7   9 -10  341.50   16.15
  -7   9 -11   99.49    8.27
  -7   9 -12   68.06    6.73
   7   9  12   92.17    8.97
   7   9  12   88.75    8.57
   7   9  13  164.24   12.09
   7   9  13  183.17   12.31
   7   9  14  260.70   15.17
   7   9  14  266.63   14.95
   7   9  15  457.71   21.12
   7   9  15  459.21   20.48
   7   9  16   45.30    6.34
   7   9  16   55.74    7.25
   7   9  17  564.95   22.91
   7   9  17  591.05   24.58
   7   9  18  248.68   14.02
   7   9  18  237.87   14.76
   7   9  19  133.83    9.94
   7   9  19  139.65   10.97
   7   9  20   18.71    4.00
   7   9  20   22.33    4.75
   7   9  21  175.87   10.60
   7   9  21  193.98   12.51
   7   9  22   49.41    6.21
   7   9  23  221.44   12.69
   7   9  24   55.60    6.16
   7   9  25  215.61   11.56
  -7  10  13   79.02    6.82
  -7  10  12   92.93    7.55
  -7  10  11  513.13   19.63
  -7  10  10  188.30   11.23
  -7  10   9  100.63    8.31
  -7  10   8   50.47    6.01
  -7  10   7  545.43   21.41
  -7  10   6  260.21   13.99
  -7  10   5  269.69   14.39
  -7  10   4  117.48    9.25
  -7  10   3  467.95   19.82
  -7  10   0   78.64    7.70
  -7  10  -1  395.56   17.99
  -7  10  -2  223.31   13.04
  -7  10  -3  449.29   19.40
  -7  10  -4  119.65    9.44
  -7  10  -5  254.07   14.21
  -7  10  -5  282.93   12.90
  -7  10  -6  256.23   14.23
  -7  10  -6  295.06   13.15
  -7  10  -7  496.07   20.97
  -7  10  -7  564.89   19.36
  -7  10  -8   59.85    6.87
  -7  10  -8   68.85    6.15
  -7  10  -9   76.71    7.53
   7  10   9   87.38    8.41
  -7  10 -10  165.96   11.14
   7  10  10  195.76   12.78
  -7  10 -11  466.69   19.84
   7  10  11  612.83   23.80
  -7  10 -12   78.49    7.31
   7  10  12  109.33    9.53
  -7  10 -13   57.46    6.12
   7  10  13   92.95    8.72
   7  10  14   96.51    8.96
   7  10  15  368.80   18.05
   7  10  15  373.00   18.65
   7  10  16  123.48    9.96
   7  10  16  111.57    9.97
   7  10  17   34.68    5.45
   7  10  17   26.35    5.08
   7  10  18  165.71   11.14
   7  10  18  150.33   11.31
   7  10  19  483.92   19.86
   7  10  19  476.42   20.89
   7  10  20  103.81    8.22
   7  10  20  105.03    9.00
   7  10  21   68.98    6.38
   7  10  21   71.60    7.43
   7  10  22  132.46    9.79
   7  10  23  324.80   15.16
   7  10  24   59.39    6.08
  -7  11  11   68.74    6.59
  -7  11  10  187.57   11.32
  -7  11   9  365.43   16.72
  -7  11   8   36.53    5.10
  -7  11   7  450.47   19.28
  -7  11   6  117.92    9.40
  -7  11   5  120.13    9.53
  -7  11   4   46.36    6.06
  -7  11   3  214.47   13.08
  -7  11   0   52.11    6.39
  -7  11  -1  341.16   16.92
  -7  11  -2  162.83   11.43
  -7  11  -3  186.91   12.20
  -7  11  -4   60.23    6.87
  -7  11  -4   57.28    5.91
  -7  11  -5  115.21    9.45
  -7  11  -5  119.90    8.48
  -7  11  -6  103.83    8.94
  -7  11  -6  113.00    8.19
   7  11   7  527.42   21.42
  -7  11  -7  494.05   18.40
  -7  11  -8   43.48    5.86
  -7  11  -8   54.85    5.77
   7  11   8   46.46    6.29
  -7  11  -9  394.28   16.03
   7  11   9  418.39   19.04
   7  11   9  415.43   19.31
   7  11  10  213.20   13.22
   7  11  10  213.77   13.40
  -7  11 -11   67.57    6.92
   7  11  11   83.84    8.32
   7  11  11   85.46    8.51
   7  11  12   11.91    3.58
   7  11  12    9.72    3.61
   7  11  13  149.13   11.18
   7  11  14  155.92   11.30
   7  11  15  335.08   16.94
   7  11  16   34.96    5.43
   7  11  17  263.50   14.49
   7  11  17  258.13   14.66
   7  11  18  122.68    9.49
   7  11  18  130.37   10.01
   7  11  19   75.51    7.18
   7  11  19   75.85    7.66
   7  11  20   25.00    4.22
   7  11  20   24.98    4.65
   7  11  21  189.63   10.43
   7  11  21  194.11   11.69
   7  11  22   91.22    7.75
   7  11  23  170.98   10.22
  -7  12  13   50.19    5.25
  -7  12   7  166.36   11.17
  -7  12   6  587.83   22.98
  -7  12   5  166.43   11.43
  -7  12   4   55.17    6.66
  -7  12   3  283.20   15.34
  -7  12   0   26.05    4.83
  -7  12  -1  181.56   11.95
  -7  12  -2  772.99   27.77
  -7  12  -3  313.04   14.68
  -7  12  -3  290.31   15.72
   7  12   3  328.28   15.87
  -7  12  -4   45.20    6.28
  -7  12  -4   52.03    5.76
   7  12   4   55.88    6.54
  -7  12  -5  168.99   10.24
   7  12   5  184.51   11.75
  -7  12  -6  587.40   21.09
  -7  12  -6  541.09   22.65
  -7  12  -7  185.03   10.72
   7  12   7  204.14   12.54
  -7  12  -8   16.81    4.09
  -7  12  -8   13.73    3.48
   7  12   8   13.79    4.00
   7  12   8    9.39    3.26
  -7  12  -9   64.66    6.37
   7  12   9   77.23    7.80
   7  12   9   67.77    7.60
   7  12  10  382.73   17.90
   7  12  10  363.32   18.02
   7  12  11  257.83   14.49
   7  12  11  261.30   14.89
   7  12  12   49.26    6.49
   7  12  12   53.30    6.55
   7  12  13   42.16    6.07
   7  12  13   47.51    6.24
   7  12  14  291.57   15.56
   7  12  14  287.05   15.43
   7  12  15  221.13   13.18
   7  12  15  210.69   12.92
   7  12  16   36.28    5.48
   7  12  17    3.43    2.53
   7  12  18  216.24   12.31
   7  12  19  231.57   12.36
   7  12  19  242.32   13.01
   7  12  20   40.70    4.92
   7  12  20   45.07    5.46
   7  12  21   71.08    6.65
  -7  13  12    4.40    2.01
  -7  13  11   14.03    3.02
   7  13  -2   19.64    3.74
   7  13  -1  535.27   19.74
  -7  13   0   81.41    8.05
   7  13   0   93.70    7.64
   7  13   1  531.89   20.24
  -7  13  -2   26.27    4.54
   7  13   2   26.56    4.50
  -7  13  -3   44.97    5.53
   7  13   3   51.61    6.02
   7  13   3   50.66    6.45
   7  13   4   23.56    4.71
  -7  13  -4   16.13    3.56
   7  13   4   21.12    4.23
  -7  13  -5   35.33    5.08
   7  13   5   50.42    6.03
   7  13   5   47.15    6.32
  -7  13  -6   37.35    5.11
   7  13   6   44.32    5.73
   7  13   6   50.31    6.53
  -7  13  -7  314.86   14.53
   7  13   7  364.87   16.69
  -7  13  -8   60.94    6.32
   7  13   8   68.08    7.05
   7  13   9  451.64   19.34
   7  13  10   63.03    7.01
   7  13  10   63.29    6.82
  -7  13 -11    6.60    2.41
   7  13  11   11.73    3.66
   7  13  11   11.63    3.48
  -7  13 -12    6.08    2.38
   7  13  12    8.18    3.40
   7  13  12    8.41    3.05
  -7  13 -13   43.10    5.01
   7  13  13   56.55    6.76
   7  13  13   60.86    6.55
   7  13  14   81.16    7.78
   7  13  14   75.90    7.37
   7  13  15  362.30   16.76
   7  13  15  342.03   16.03
   7  13  16   37.38    5.22
   7  13  16   30.90    4.78
   7  13  17  169.35   10.59
   7  13  17  167.63   10.50
   7  13  18   15.31    3.39
   7  13  19   41.20    4.91
  -7  14  11   25.03    3.86
  -7  14  10  315.57   14.05
  -7  14   9   19.39    3.73
  -7  14   8    8.12    2.87
   7  14  -6  578.66   20.97
   7  14  -5   40.58    5.29
   7  14  -4   10.53    3.17
   7  14  -3   40.14    5.32
   7  14  -2  477.49   19.63
   7  14  -1   46.97    5.90
   7  14   0    8.14    3.23
  -7  14  -1   41.91    5.63
   7  14   1   56.07    6.51
   7  14   2  488.08   18.31
   7  14   2  483.41   20.31
  -7  14  -3   27.55    4.62
   7  14   3   37.30    4.94
   7  14   3   36.15    5.41
  -7  14  -4   12.14    3.32
   7  14   4   16.84    3.86
   7  14   4   12.90    3.26
  -7  14  -5   35.18    5.06
   7  14   5   36.74    5.07
   7  14   5   42.58    5.87
   7  14   6  599.44   21.59
   7  14   6  580.63   22.69
   7  14   7   57.59    6.65
   7  14   7   63.61    6.62
  -7  14  -8   12.99    3.51
   7  14   8   11.62    3.50
   7  14   8    9.28    3.19
  -7  14  -9   13.35    3.55
   7  14   9   18.13    3.81
  -7  14 -10  266.95   13.94
   7  14  10  379.94   16.17
  -7  14 -11   24.64    4.10
   7  14  11   32.25    5.03
   7  14  11   30.02    4.66
   7  14  12   87.30    7.85
   7  14  12   77.64    7.01
   7  14  13   60.92    6.59
   7  14  13   59.42    6.19
   7  14  14  401.36   17.28
   7  14  14  398.35   16.71
   7  14  15   58.53    6.20
   7  14  15   56.22    5.89
   7  14  16  104.97    7.85
   7  14  16   90.56    7.23
   7  14  17   17.43    3.57
   7  14  17   16.79    3.35
  -7  15  10    1.67    1.69
  -7  15   9  187.98   10.20
  -7  15   8   25.57    4.06
  -7  15   7  204.62   11.30
  -7  15   6   38.15    5.05
  -7  15   5   35.85    5.02
  -7  15   4    4.85    2.47
  -7  15   3    7.88    2.98
   7  15  -3    7.35    2.62
   7  15  -2    9.56    3.03
  -7  15   1  321.19   15.37
   7  15  -1  361.27   15.86
  -7  15   0   41.39    5.49
  -7  15   0   43.89    5.81
  -7  15  -1  308.81   14.59
  -7  15  -1  278.73   14.63
  -7  15  -2    9.10    3.14
   7  15   2   17.14    3.84
  -7  15  -2    8.87    3.06
  -7  15  -3   10.08    3.21
  -7  15  -3    9.95    3.13
   7  15   3   13.71    3.54
  -7  15  -4    5.32    2.69
  -7  15  -4    3.84    2.54
   7  15   4    2.74    2.31
  -7  15  -5   44.59    5.40
  -7  15  -5   38.75    5.18
   7  15   5   48.97    5.92
  -7  15  -6   36.61    5.12
   7  15   6   48.97    6.00
   7  15   7  236.98   12.87
   7  15   7  234.22   11.67
  -7  15  -8   32.87    4.91
   7  15   8   49.99    6.00
   7  15   8   46.49    5.21
   7  15   9  244.45   12.82
   7  15   9  231.26   11.61
  -7  15 -10    2.78    2.11
   7  15  10    3.66    2.16
  -7  15 -11    9.95    2.72
   7  15  11   13.09    3.12
   7  15  12   12.72    3.40
   7  15  12   14.25    3.18
   7  15  13   91.86    7.42
   7  15  13   99.41    7.28
   7  15  14   55.15    5.67
   7  15  14   49.26    5.16
   7  15  15  369.15   15.08
  -7  16   9   16.15    2.99
  -7  16   8   10.06    2.63
  -7  16   7   30.62    4.24
  -7  16   6  365.98   15.06
  -7  16   5   30.71    4.35
  -7  16   4    5.26    2.38
  -7  16   3    9.32    3.14
  -7  16   3    5.90    2.54
  -7  16   2  298.55   13.98
  -7  16   1   14.93    3.54
  -7  16   0   -1.16    2.72
  -7  16   0    0.86    1.98
   7  16   0    4.77    2.25
  -7  16  -1   16.35    3.68
  -7  16  -1   17.75    3.66
   7  16   1   23.41    3.97
  -7  16  -2  294.78   13.54
  -7  16  -2  262.55   13.41
  -7  16  -3   11.94    3.34
  -7  16  -3   12.20    3.13
   7  16   3   15.18    3.42
  -7  16  -4    4.60    2.45
   7  16   4    7.20    2.54
  -7  16  -5   25.54    4.23
   7  16   5   34.20    4.90
  -7  16  -6  341.99   15.50
   7  16   6  492.71   18.08
  -7  16  -7   16.22    3.38
   7  16   7   23.67    4.06
  -7  16  -8    6.46    2.42
   7  16   8   11.20    3.12
  -7  16  -9   17.35    3.37
   7  16   9   28.51    4.31
   7  16  10  372.94   15.50
   7  16  11    7.91    2.67
  -7  17   4    0.14    1.61
  -7  17   3    1.67    1.72
  -7  17   2   16.99    3.23
  -7  17   0   15.25    3.11
  -7  17  -1  150.91    8.97
  -7  17  -2   17.83    3.36
  -7  17  -3    2.43    1.82
  -7  17  -4    0.28    1.59
  -8   0   0 3218.38   68.78
  -8   0   0 3139.21   72.28
  -8   0  -1  292.59   11.45
  -8   0   1  273.83   11.38
  -8   0   1  270.14   13.18
  -8   0  -1  281.09   13.31
  -8   0  -2  487.66   15.80
  -8   0  -2  474.67   18.25
  -8   0   2  498.35   18.74
  -8   0  -3   27.22    3.23
  -8   0  -3   24.65    3.91
  -8   0  -4   94.24    5.94
  -8   0  -4   94.23    7.35
  -8   0  -5   24.71    3.06
  -8   0  -5   24.62    3.93
  -8   0  -6  244.59   10.17
  -8   0  -6  222.14   11.87
  -8   0  -7   58.37    5.90
  -8   0  -8  738.92   24.47
  -8   0  -9  210.74   11.43
  -8   0 -10  370.60   16.22
  -8   0  11   37.02    3.94
  -8   0 -11   29.26    3.99
  -8   0 -11   30.53    4.54
  -8   0  12  172.79    8.80
  -8   0 -12  150.99    9.12
  -8   0 -12  161.37   10.74
  -8   0  13   28.68    3.51
  -8   0 -13   24.86    3.68
  -8   0 -13   24.91    4.52
  -8   0  14 1023.82   26.23
  -8   0 -14  910.21   30.59
  -8   0  15   66.57    5.30
  -8   0 -15   64.20    7.30
  -8   0 -16  289.34   16.20
  -8   0 -17  147.79   11.54
  -8   0 -18   95.32    9.28
  -8   0 -19   46.33    6.84
  -8   0 -20   80.70    8.98
  -8   0 -21   31.50    5.76
  -8   0 -22  489.39   23.06
  -8   0 -23  102.86    9.96
  -8   0 -24  604.03   25.84
  -8   0 -25  167.81   12.65
  -8   0 -26  212.58   14.01
  -8   0 -27   52.55    6.87
  -8   0 -28   80.03    8.03
  -8   0 -29   26.23    4.75
  -8  -1 -29  564.51   21.97
  -8  -1 -28    9.53    3.59
  -8  -1 -27   17.75    4.61
  -8  -1 -26  109.30   10.04
  -8  -1 -25  520.22   23.63
  -8  -1 -24  136.89   11.76
  -8  -1 -23  136.83   11.67
  -8  -1 -22   75.10    8.75
  -8  -1 -21 1628.18   49.16
  -8  -1 -20   75.05    8.75
  -8  -1 -19  236.57   15.31
  -8  -1 -18  232.14   14.96
  -8  -1 -17 1160.32   37.73
  -8  -1 -16  105.39    9.56
  -8   1  15  437.76   15.34
  -8  -1 -15  394.89   19.12
  -8  -1 -14   88.65    6.66
  -8   1  14  109.61    7.01
  -8  -1 -14   98.00    8.79
  -8   1  13 1119.45   28.37
  -8  -1 -13 1020.79   32.50
  -8   1  12   75.56    5.79
  -8  -1 -12   64.39    6.72
  -8   1  11  156.83    8.54
  -8  -1 -11  135.37    9.63
  -8   1  10  250.16   11.02
  -8  -1 -10  214.58   12.03
  -8   1   9 1734.09   39.95
  -8  -1  -9 1459.04   41.22
  -8   1   8  203.93    9.69
  -8  -1  -8  176.69   10.61
  -8  -1  -7  608.60   21.64
  -8  -1  -6  162.04    9.96
  -8  -1  -5  625.49   21.78
  -8  -1  -4   10.38    2.74
  -8  -1  -3  729.01   24.02
  -8  -1  -2  313.24   14.25
  -8   1   1 1205.10   30.07
  -8  -1  -1 1201.10   33.97
  -8   1   0   92.51    5.77
  -8  -1   0   97.48    7.63
  -8   1  -1 1080.27   27.70
  -8  -1   1 1208.75   33.23
  -8   1  -2  302.13   11.13
  -8  -1   2  350.66   15.20
  -8   1  -3  720.93   19.75
  -8   1  -7  587.87   19.81
  -8   1  -8  171.78    9.59
  -8   1  -9 1524.02   39.47
  -8   1 -10  238.85   11.87
  -8   1 -11   90.71    7.10
  -8   1 -12   72.23    6.30
  -8  -1  13 1135.40   28.21
  -8   1 -13  897.65   28.38
  -8  -1  14  128.80    7.37
  -8   1 -14   91.76    7.05
  -8  -1  15  433.91   15.27
   8   1  17 1329.70   40.64
   8   1  18  332.15   17.09
  -8   1 -29  566.62   21.48
  -8  -2 -28  114.05    9.48
  -8  -2 -27   41.29    6.24
  -8  -2 -26   95.80    9.24
  -8  -2 -25  143.29   11.67
  -8  -2 -24  310.38   17.82
  -8  -2 -23   39.61    6.43
  -8  -2 -22  425.73   21.40
  -8  -2 -21   16.02    4.44
  -8  -2 -20  181.91   13.46
  -8  -2 -19   54.65    7.36
  -8  -2 -18  150.37   11.86
  -8  -2 -17  144.61   11.48
  -8  -2 -16  316.97   17.03
  -8   2  15   53.41    4.95
  -8  -2 -15   47.53    6.34
  -8   2  14  884.90   24.91
  -8  -2 -14  798.01   28.77
  -8   2  13   69.10    5.67
  -8  -2 -13   56.54    6.56
  -8   2  12  100.50    6.87
  -8  -2 -12  109.53    8.72
  -8   2  11   43.91    4.52
  -8  -2 -11   42.78    5.29
  -8   2  10  330.06   13.16
  -8  -2 -10  277.67   13.89
  -8   2   9  227.97   10.68
  -8  -2  -9  194.63   11.21
  -8   2   8  798.19   23.20
  -8  -2  -8  699.34   24.39
  -8   2   7   38.15    4.22
  -8  -2  -7   33.12    4.59
  -8   2   6  413.87   15.09
  -8  -2  -6  380.84   16.32
  -8   2   5   38.77    4.21
  -8  -2  -5   33.08    4.54
  -8   2   4  113.72    7.18
  -8  -2  -4   97.71    7.75
  -8   2   3   74.33    5.76
  -8  -2  -3   76.70    6.75
  -8  -2  -2  721.28   23.96
  -8   2   2  695.20   22.92
  -8   2   1  340.98   11.81
  -8   2   1  341.67   14.64
  -8  -2  -1  351.07   15.34
  -8   2   0 1923.57   46.27
  -8   2   0 1960.87   48.46
  -8  -2   0 2065.93   50.06
  -8   2  -1  380.87   14.58
  -8  -2   1  423.62   17.12
  -8   2  -1  407.61   16.22
  -8   2  -2  639.66   20.60
  -8   2  -2  685.65   22.44
  -8  -2   2  707.87   23.57
  -8   2  -3   62.65    5.38
  -8   2  -3   70.71    6.25
  -8   2  -4  110.25    7.38
  -8   2  -4  119.44    8.25
  -8   2  -5   29.00    3.97
  -8   2  -5   32.79    4.34
  -8   2  -6  376.46   15.24
  -8   2  -6  411.45   16.59
  -8   2  -7   34.80    4.42
  -8   2  -7   31.49    4.58
  -8   2  -8  681.10   22.84
  -8   2  -8  732.43   24.13
  -8   2  -9  193.98   10.78
  -8   2  -9  195.74   11.13
  -8   2 -10  309.52   14.09
  -8   2 -10  315.94   14.62
  -8   2 -11   37.86    4.73
  -8   2 -11   45.24    5.45
  -8   2 -12   78.84    6.71
  -8   2 -12   81.82    7.52
  -8   2 -13   51.13    5.33
  -8   2 -13   53.26    6.30
  -8   2 -14  678.20   22.82
  -8   2 -14  841.86   28.00
  -8  -2  15   46.76    4.42
  -8   2 -15   39.24    5.75
  -8   2 -16  377.09   18.51
  -8   2 -17  140.10   11.07
   8   2  17  164.80   12.08
  -8   2 -18  151.92   11.66
   8   2  18  171.78   12.29
  -8   2 -19   66.84    7.96
   8   2  19   74.85    8.07
  -8   2 -20  172.12   12.68
   8   2  20  196.17   12.90
  -8   2 -21   12.43    4.26
  -8   2 -22  421.33   20.54
  -8   2 -23   45.08    6.47
  -8   2 -24  269.60   15.81
  -8   2 -25  181.71   12.60
  -8   2 -26   96.27    8.86
  -8   2 -27   39.56    5.82
  -8   2 -28  128.42    9.56
  -8  -3 -28  101.66    8.73
  -8  -3 -27   11.92    3.90
  -8  -3 -26  150.83   11.54
  -8  -3 -25  423.29   20.54
  -8  -3 -24  170.81   12.85
  -8  -3 -23   47.64    6.85
  -8  -3 -22   57.78    7.57
  -8  -3 -21  751.14   29.63
  -8  -3 -20  141.31   11.70
  -8  -3 -19  118.61   10.59
  -8  -3 -18  129.97   10.91
  -8  -3 -17  355.45   18.29
  -8  -3 -16  335.59   17.38
  -8   3  15  288.37   12.14
  -8  -3 -15  270.72   15.18
  -8   3  14   97.05    6.83
  -8  -3 -14   84.21    8.14
  -8   3  13  877.18   24.73
  -8  -3 -13  722.57   26.84
  -8   3  12  818.09   23.74
  -8  -3 -12  698.38   25.58
  -8   3  11  449.53   16.17
  -8  -3 -11  375.71   16.96
  -8   3  10  302.87   12.86
  -8  -3 -10  266.87   13.57
  -8   3   9  712.45   21.82
  -8  -3  -9  626.13   22.95
  -8   3   8  857.58   24.83
  -8  -3  -8  770.59   26.12
  -8   3   7  829.64   24.12
  -8  -3  -7  730.78   25.17
  -8   3   6  192.00    9.96
  -8  -3  -6  189.46   11.08
  -8   3   5  939.76   26.72
  -8  -3  -5  878.90   28.03
  -8   3   4  428.70   15.89
  -8  -3  -4  405.38   17.02
  -8   3   3  592.87   19.54
  -8  -3  -3  574.23   20.99
  -8  -3  -2  240.93   12.43
  -8   3   1  659.63   22.04
  -8  -3  -1  719.46   23.80
  -8   3   0  908.55   26.68
  -8   3   0  935.32   27.54
  -8  -3   0  959.77   28.87
  -8   3  -1  680.59   21.98
  -8  -3   1  759.52   24.60
  -8   3  -1  719.65   23.16
  -8   3  -2  211.54   10.71
  -8   3  -2  235.83   11.61
  -8   3  -3  553.34   19.42
  -8   3  -3  619.41   20.78
  -8   3  -4  406.15   16.10
  -8   3  -4  459.20   17.37
  -8   3  -5  817.30   25.84
  -8   3  -5  926.61   27.30
  -8   3  -6  154.65    9.35
  -8   3  -6  167.93   10.04
  -8   3  -7  738.88   24.42
  -8   3  -7  851.80   26.16
  -8   3  -8  728.73   24.23
  -8   3  -8  778.62   25.23
  -8   3  -9  610.16   21.71
  -8   3  -9  649.65   22.55
  -8   3 -10  311.36   14.39
  -8   3 -10  301.97   14.30
  -8   3 -11  393.27   16.66
  -8   3 -11  427.71   17.69
  -8   3 -12  686.59   23.39
  -8   3 -12  727.11   25.09
  -8   3 -13  735.50   24.56
  -8   3 -13  864.90   28.07
  -8   3 -14   53.51    5.53
  -8   3 -14   57.96    6.61
  -8   3 -15  296.93   15.74
  -8   3 -16  338.60   17.22
   8   3  16  363.58   18.56
  -8   3 -17  418.22   19.80
   8   3  17  474.00   21.56
  -8   3 -18  108.16    9.70
   8   3  18  141.40   11.22
  -8   3 -19  141.99   11.28
   8   3  19  168.62   12.19
  -8   3 -20  150.92   11.60
   8   3  20  171.53   12.28
  -8   3 -21  768.70   29.32
   8   3  21  846.35   29.50
  -8   3 -22   60.28    7.33
  -8   3 -23   40.90    6.09
  -8   3 -24  191.89   12.88
  -8   3 -25  381.00   18.35
  -8   3 -26  130.45    9.99
  -8   3 -27   13.65    3.65
  -8   3 -28   97.79    8.01
  -8  -4 -27   22.56    4.60
  -8  -4 -26  130.21   10.39
  -8  -4 -25  108.11    9.68
  -8  -4 -24  315.88   17.33
  -8  -4 -23   82.70    8.71
  -8  -4 -22  449.36   21.45
  -8  -4 -21   70.02    8.01
  -8  -4 -20  119.05   10.43
  -8  -4 -19   48.62    6.75
  -8  -4 -18   98.58    9.31
  -8  -4 -17   85.54    8.48
  -8  -4 -16  371.23   18.27
  -8  -4 -15   63.95    7.18
  -8   4  15   63.32    5.29
  -8  -4 -14  385.68   18.15
  -8   4  14  420.87   15.25
  -8  -4 -13  116.74    9.23
  -8   4  13  139.56    8.41
  -8  -4 -12  185.52   11.53
  -8   4  12  227.44   11.07
  -8  -4 -11  107.43    8.57
  -8   4  11  135.44    8.33
  -8  -4 -10  223.13   12.60
  -8   4  10  253.53   11.87
  -8  -4  -9  139.12    9.62
  -8   4   9  143.06    8.72
  -8  -4  -8  643.77   23.39
  -8   4   8  706.53   22.33
  -8  -4  -7   41.88    5.25
  -8   4   7   40.92    4.75
  -8  -4  -6  304.47   14.55
  -8   4   6  317.64   13.70
  -8  -4  -5   53.11    5.83
  -8   4   5   59.23    5.54
  -8  -4  -4   69.86    6.55
  -8   4   4   78.86    6.33
  -8  -4  -3   73.13    6.61
  -8   4   3   66.88    5.89
  -8  -4  -2  902.97   28.13
  -8   4   1  356.38   14.74
  -8  -4  -1  385.49   16.18
  -8   4   0 2275.27   54.46
  -8   4   0 2251.91   54.36
  -8  -4   1  384.46   16.04
  -8   4  -1  355.46   14.69
  -8   4  -1  339.68   14.46
  -8   4  -2  850.46   25.49
  -8   4  -2  791.06   24.86
  -8   4  -3   74.55    6.30
  -8   4  -3   56.09    5.58
  -8   4  -4   66.37    5.97
  -8   4  -4   51.88    5.38
  -8   4  -5   55.61    5.61
  -8   4  -5   41.87    4.98
  -8   4  -6  336.71   14.75
  -8   4  -6  329.18   14.69
  -8   4  -7   53.00    5.59
  -8   4  -7   45.51    5.33
  -8   4  -8  684.62   23.32
  -8   4  -8  680.72   23.40
  -8   4  -9  131.85    9.08
  -8   4  -9  124.53    8.88
  -8   4 -10  210.78   11.84
  -8   4 -10  216.34   11.97
  -8   4 -11  153.36    9.91
  -8   4 -11  146.24    9.61
  -8   4 -12  192.62   11.33
  -8   4 -12  191.52   11.13
  -8   4 -13  113.33    8.76
  -8   4 -13   88.42    7.26
  -8   4 -14  433.41   18.22
  -8   4 -14  325.66   14.20
  -8   4 -15   75.52    7.54
  -8   4 -16  407.57   18.98
   8   4  16  452.75   21.26
   8   4  16  441.62   18.87
  -8   4 -17   86.99    8.36
   8   4  17   95.78    9.42
  -8   4 -18  102.01    9.17
   8   4  18  111.64   10.05
  -8   4 -19   49.09    6.48
   8   4  19   53.82    7.08
  -8   4 -20  128.31   10.50
   8   4  20  150.79   11.50
  -8   4 -21   68.19    7.60
   8   4  21   66.73    7.64
  -8   4 -22  467.14   21.02
   8   4  22  496.03   21.08
  -8   4 -23   68.85    7.52
  -8   4 -24  315.83   16.28
  -8   4 -25  121.39    9.51
  -8   4 -26  122.63    9.31
  -8   4 -27   22.75    4.15
  -8  -5 -26  113.42    9.14
  -8  -5 -25   88.26    8.30
  -8  -5 -24  231.46   14.01
  -8  -5 -23   66.21    7.51
  -8  -5 -22   47.57    6.44
  -8  -5 -21  209.20   13.64
  -8  -5 -20  551.83   23.39
  -8  -5 -19   59.30    7.14
  -8  -5 -18   72.75    7.90
  -8  -5 -17  181.30   12.22
  -8  -5 -16  556.43   22.60
  -8  -5 -15  100.46    8.74
  -8   5  15  120.46    7.45
  -8  -5 -14  124.70    9.53
  -8   5  14  133.33    8.02
  -8  -5 -13  436.10   18.92
  -8   5  13  483.94   16.90
  -8  -5 -12 1650.84   45.96
  -8   5  12 1793.04   43.11
  -8  -5 -11  297.11   15.19
  -8   5  11  351.67   14.45
  -8  -5 -10   88.13    7.83
  -8   5  10  101.79    7.52
  -8  -5  -9  229.41   12.90
  -8   5   9  256.56   12.33
  -8  -5  -8 1786.83   48.67
  -8   5   8 2011.92   47.88
  -8  -5  -7  346.74   16.13
  -8   5   7  400.47   15.97
  -8  -5  -6   44.55    5.52
  -8   5   6   45.02    5.08
  -8  -5  -5  158.83   10.32
  -8   5   5  184.83   10.32
  -8  -5  -4 1466.60   40.52
  -8   5   4 1547.90   39.91
  -8  -5  -3  333.07   15.24
  -8   5   3  338.52   14.61
  -8  -5  -2  156.33    9.90
  -8  -5  -1  259.08   13.00
  -8   5   0 1566.01   39.65
  -8  -5   0 1588.52   41.57
  -8   5   0 1552.62   40.63
  -8   5  -1  233.84   11.24
  -8   5  -1  226.00   11.71
  -8   5  -2  201.78   10.35
  -8   5  -2  178.23   10.43
  -8   5  -3  329.13   13.82
  -8   5  -3  286.93   13.67
  -8   5  -4 1517.81   38.40
  -8   5  -4 1392.56   38.72
  -8   5  -5  184.39   10.28
  -8   5  -5  203.50   11.30
  -8   5  -6   60.16    5.79
  -8   5  -6   52.45    5.76
  -8   5  -7  392.02   15.98
  -8   5  -7  355.72   16.06
  -8   5  -8 1885.89   46.68
  -8   5  -8 1759.10   47.06
  -8   5  -9  331.81   14.96
  -8   5  -9  321.61   15.35
  -8   5 -10   75.64    6.83
  -8   5 -10   71.62    6.88
  -8   5 -11  339.45   15.37
  -8   5 -11  300.26   14.68
  -8   5 -12 1889.06   46.19
  -8   5 -12 1557.10   43.10
  -8   5 -13  483.20   18.87
  -8   5 -13  376.24   15.97
  -8   5 -14  135.70    9.48
  -8   5 -14  103.96    7.60
  -8   5 -15  104.27    8.56
  -8   5 -16  671.66   25.10
   8   5  16  755.19   28.72
   8   5  16  725.68   25.99
  -8   5 -17  195.04   12.32
   8   5  17  225.42   14.60
   8   5  17  217.35   12.70
  -8   5 -18   44.85    5.96
   8   5  18   50.31    7.11
  -8   5 -19   70.93    7.46
   8   5  19   80.36    8.65
  -8   5 -20  619.61   24.27
   8   5  20  656.18   26.08
  -8   5 -21  271.81   15.00
   8   5  21  286.08   15.84
  -8   5 -22   51.47    6.35
   8   5  22   50.20    6.55
  -8   5 -23   80.84    7.66
   8   5  23   83.58    7.94
  -8   5 -24  230.36   13.11
   8   5  24  252.77   13.23
  -8   5 -25   88.09    7.59
  -8   5 -26  118.62    8.60
  -8   5 -27   32.65    4.55
  -8  -6 -25   63.70    6.97
  -8  -6 -24  157.76   10.98
  -8  -6 -23   35.25    5.33
  -8  -6 -22  275.62   14.91
  -8  -6 -21   75.79    7.72
  -8  -6 -20  185.39   12.15
  -8  -6 -19   36.81    5.43
  -8  -6 -18  172.43   11.45
  -8  -6 -17   82.36    7.66
  -8  -6 -16  262.33   14.29
  -8  -6 -15   37.17    5.39
  -8   6  15   39.56    4.36
  -8  -6 -14  127.97    9.77
  -8   6  14  134.97    8.20
  -8  -6 -13  130.44    9.84
  -8   6  13  134.15    8.32
  -8  -6 -12  210.99   12.54
  -8   6  12  219.97   11.00
  -8  -6 -11   59.17    6.51
  -8   6  11   66.08    5.90
  -8  -6 -10  158.07   10.57
  -8   6  10  154.93    9.23
  -8  -6  -9  119.39    9.14
  -8   6   9  129.17    8.51
  -8  -6  -8  766.36   26.43
  -8   6   8  802.60   25.22
  -8  -6  -7  116.20    8.94
  -8   6   7  130.51    8.89
  -8  -6  -6  953.44   30.39
  -8   6   6 1040.46   30.53
  -8  -6  -5  112.13    8.50
  -8   6   5  126.33    8.80
  -8  -6  -4  253.25   13.13
  -8   6   4  260.32   12.97
  -8  -6  -3   37.28    4.80
  -8   6   3   28.32    4.24
  -8  -6  -2  259.11   13.03
  -8  -6  -1  100.11    7.77
  -8   6   0  393.83   16.53
  -8   6  -1  104.86    7.10
  -8   6  -1   93.19    7.56
  -8   6  -2  265.96   11.89
  -8   6  -2  256.42   13.03
  -8   6  -3   25.74    3.56
  -8   6  -3   26.02    4.14
  -8   6  -4  232.91   11.23
  -8   6  -4  220.33   12.22
  -8   6  -5  166.00    9.41
  -8   6  -5  168.61   10.66
  -8   6  -6  915.72   27.00
  -8   6  -6  892.10   29.03
  -8   6  -7  170.13    9.85
  -8   6  -7  167.64   10.79
  -8   6  -8  794.31   24.63
  -8   6  -8  704.56   25.05
  -8   6  -9  148.78    9.37
  -8   6  -9  145.34    9.85
  -8   6 -10  158.45    9.76
  -8   6 -10  136.15    9.39
  -8   6 -11   56.77    5.84
  -8   6 -11   45.90    5.37
  -8   6 -12  240.24   12.51
  -8   6 -12  194.44   11.30
  -8   6 -13  112.18    8.55
  -8   6 -13   85.92    7.17
  -8   6 -14  181.51   10.91
  -8   6 -14  131.96    8.72
  -8   6 -15   42.98    5.58
   8   6  15   56.82    7.51
   8   6  15   49.92    6.43
  -8   6 -16  314.06   15.26
   8   6  16  339.75   18.47
   8   6  16  343.59   16.89
  -8   6 -17   85.45    7.61
   8   6  17  103.64    9.89
   8   6  17   99.83    8.62
  -8   6 -18  221.44   12.54
   8   6  18  214.03   12.60
   8   6  18  224.21   14.57
  -8   6 -19   47.24    5.77
   8   6  19   50.08    7.12
  -8   6 -20  203.45   12.10
   8   6  20  225.47   14.20
  -8   6 -21   71.69    7.02
   8   6  21   81.61    8.30
  -8   6 -22  277.86   14.30
   8   6  22  312.97   16.06
  -8   6 -23   36.84    5.03
   8   6  23   38.10    5.46
  -8   6 -24  173.28   10.71
   8   6  24  165.31   10.55
  -8   6 -25   66.23    6.48
  -8  -7 -23   75.70    7.44
  -8  -7 -22  105.27    8.87
  -8  -7 -21   24.53    4.61
  -8  -7 -20  611.87   23.49
  -8  -7 -19   93.57    8.30
  -8  -7 -18   97.34    8.53
  -8  -7 -17   27.68    4.71
  -8  -7 -16  653.87   24.43
  -8  -7 -15  174.08   11.43
  -8   7  15  176.40    9.51
  -8  -7 -14  197.70   12.25
  -8   7  14  224.75   11.03
  -8  -7 -13   52.00    6.05
  -8   7  13   53.21    5.37
  -8  -7 -12 1144.05   35.75
  -8   7  12 1289.85   34.01
  -8  -7 -11  156.79   10.64
  -8   7  11  169.79    9.88
  -8  -7 -10  175.52   11.16
  -8   7  10  178.13   10.18
  -8  -7  -9  101.83    8.42
  -8   7   9  104.36    7.90
  -8  -7  -8  737.42   25.84
  -8   7   8  773.90   24.65
  -8  -7  -7  101.73    8.28
  -8   7   7  103.64    7.80
  -8  -7  -6   75.08    6.99
  -8   7   6   70.42    6.48
  -8  -7  -5   34.77    4.89
  -8   7   5   36.93    4.74
  -8  -7  -4  912.22   28.54
  -8   7   4  883.93   27.82
  -8  -7  -3  129.98    8.96
  -8   7   3  116.48    8.57
  -8   7   0 1867.00   47.85
  -8   7  -1  103.83    8.08
  -8   7  -2   60.20    6.19
  -8   7  -3  116.05    7.31
  -8   7  -3   93.34    7.75
  -8   7  -4  893.37   25.21
  -8   7  -4  811.07   27.12
  -8   7  -5   32.15    3.97
  -8   7  -5   33.65    4.77
  -8   7  -6   74.60    6.04
  -8   7  -6   60.53    6.30
  -8   7  -7  132.73    8.18
  -8   7  -7  110.50    8.61
  -8   7  -8  869.84   25.42
  -8   7  -8  750.61   26.23
  -8   7  -9   89.61    6.98
  -8   7  -9   69.20    6.98
  -8   7 -10  193.55   10.55
  -8   7 -10  176.07   11.05
  -8   7 -11  197.18   10.74
  -8   7 -11  174.94   10.93
  -8   7 -12 1354.60   35.08
  -8   7 -12 1065.36   33.58
  -8   7 -13   54.27    5.64
  -8   7 -13   39.28    5.03
  -8   7 -14  227.22   12.01
   8   7  14  242.17   15.39
   8   7  14  255.83   14.65
  -8   7 -15  207.36   11.83
   8   7  15  259.29   15.88
   8   7  15  242.03   14.31
   8   7  16  876.08   31.83
   8   7  16  860.73   29.49
  -8   7 -17   33.05    4.71
   8   7  17   37.47    6.23
   8   7  17   30.57    5.21
  -8   7 -18  112.61    8.69
   8   7  18  134.40    9.83
   8   7  18  128.50   11.03
  -8   7 -19   94.43    7.87
   8   7  19   96.10    8.18
   8   7  19  110.91   10.06
  -8   7 -20  690.27   24.50
   8   7  20  779.61   28.44
  -8   7 -21   33.91    4.95
   8   7  21   32.26    5.61
  -8   7 -22  122.03    8.88
   8   7  22  136.21   10.25
   8   7  23  104.19    8.63
   8   7  24  383.56   16.57
   8   7  25    1.11    1.96
  -8   8  14  439.49   16.61
  -8  -8 -14  412.98   17.93
  -8   8  13  132.45    8.50
  -8  -8 -13  110.04    8.70
  -8   8  12  275.46   13.04
  -8  -8 -12  265.79   13.89
  -8   8  11   36.62    4.67
  -8  -8 -11   28.87    4.68
  -8   8  10  115.99    8.29
  -8  -8 -10  110.55    8.62
  -8   8   9   52.74    5.65
  -8  -8  -9   57.83    6.22
  -8   8   8  121.13    8.64
  -8  -8  -8  102.62    8.22
  -8   8   7   51.71    5.75
  -8  -8  -7   45.01    5.53
  -8   8   6  493.83   19.22
  -8  -8  -6  467.91   18.87
  -8   8   5   76.22    6.99
  -8  -8  -5   62.32    6.30
  -8   8   4  324.80   15.25
  -8  -8  -4  337.96   15.23
  -8   8   3  106.12    8.31
  -8   8   0  107.42    8.29
  -8   8  -1   92.19    7.65
  -8   8  -2  445.19   18.32
  -8   8  -3   99.77    8.12
  -8   8  -4  309.91   15.13
  -8   8  -5   90.52    7.84
  -8   8  -5   95.75    6.49
  -8   8  -6  443.19   18.84
  -8   8  -6  472.00   16.28
  -8   8  -7   37.26    5.35
  -8   8  -7   45.34    4.64
  -8   8  -8  115.31    9.05
  -8   8  -8  125.62    7.72
  -8   8  -9   55.13    6.23
  -8   8  -9   66.64    5.85
  -8   8 -10   91.94    8.01
  -8   8 -10  108.75    7.35
  -8   8 -11   29.88    4.67
  -8   8 -11   34.30    4.33
  -8   8 -12  256.40   13.62
  -8   8 -12  303.98   13.17
  -8   8 -13  108.56    8.36
  -8   8 -13  130.87    8.42
  -8   8 -14  457.73   17.16
   8   8  14  536.81   23.40
   8   8  14  512.94   21.83
  -8   8 -15   49.54    5.38
   8   8  15   67.25    8.18
   8   8  15   61.16    7.29
  -8   8 -16  278.51   13.30
   8   8  16  336.26   18.15
   8   8  16  316.37   16.45
  -8   8 -17   44.44    5.05
   8   8  17   44.63    6.17
   8   8  17   48.19    7.03
  -8   8 -18  179.71   10.36
   8   8  18  206.07   12.41
   8   8  18  224.68   14.51
   8   8  19   18.01    3.99
   8   8  19   22.92    5.16
   8   8  20  294.02   16.18
   8   8  21  157.75   11.25
   8   8  22  184.53   11.77
   8   8  23    8.91    3.01
   8   8  24   73.77    6.77
  -8   9  14   40.15    4.69
  -8   9  13   53.09    5.43
  -8   9  12  739.37   24.18
  -8   9  11   86.27    7.28
  -8   9  10   82.74    7.12
  -8   9   9   89.67    7.63
  -8   9   8  976.27   30.32
  -8   9   7  114.41    8.73
  -8   9   6   32.13    4.75
  -8   9   5   61.08    6.44
  -8   9   4  819.64   27.25
  -8   9   3  187.24   11.44
  -8   9   0 1375.23   39.23
  -8   9  -1   91.76    8.03
  -8   9  -2   75.14    7.33
  -8   9  -3  164.14   10.78
  -8   9  -4  760.20   26.38
  -8   9  -5   59.94    6.68
  -8   9  -6   19.50    4.07
  -8   9  -7  139.23   10.15
  -8   9  -8  943.24   30.89
  -8   9  -9   73.41    7.45
  -8   9 -10   71.86    7.23
  -8   9 -11   93.06    8.12
   8   9  12  859.55   30.90
   8   9  12  860.34   30.10
  -8   9 -13   40.90    5.19
   8   9  13   68.45    8.33
   8   9  13   62.09    7.56
  -8   9 -14   29.31    4.30
   8   9  14   43.24    6.71
   8   9  14   46.57    6.51
   8   9  15   84.57    9.01
   8   9  15   79.51    8.26
   8   9  16  509.95   21.85
   8   9  16  520.85   23.36
   8   9  17   94.59    8.57
   8   9  17  101.55    9.78
   8   9  18  166.27   11.15
   8   9  18  179.65   12.77
   8   9  19   84.26    7.69
   8   9  19   90.56    8.85
   8   9  20  512.97   19.43
   8   9  20  529.55   22.07
   8   9  21   65.63    7.11
   8   9  22  109.92    8.82
   8   9  23   70.49    6.78
  -8  10  13   55.43    5.54
  -8  10  12  254.92   12.56
  -8  10  11   61.71    6.15
  -8  10  10  191.88   11.15
  -8  10   9   18.78    3.77
  -8  10   8  280.16   14.17
  -8  10   7  147.85   10.14
  -8  10   6  489.85   20.03
  -8  10   5   97.28    8.40
  -8  10   4  465.57   19.61
  -8  10   3  173.24   11.30
  -8  10   0   14.30    3.66
  -8  10  -1   29.75    4.80
  -8  10  -2  176.26   11.58
  -8  10  -3  200.14   12.39
  -8  10  -4  406.09   18.42
  -8  10  -5   95.54    8.49
  -8  10  -6  433.45   19.21
  -8  10  -7  126.64    9.72
  -8  10  -8  266.03   14.62
  -8  10  -9   19.43    4.28
  -8  10 -10  148.67   10.64
   8  10  10  197.80   13.48
  -8  10 -11   70.37    7.08
   8  10  11   99.84    9.46
  -8  10 -12  208.73   12.23
   8  10  12  300.62   16.54
  -8  10 -13   38.78    4.99
   8  10  13   59.16    7.43
   8  10  14  161.76   12.22
   8  10  14  157.40   11.76
   8  10  15   39.62    6.02
   8  10  15   45.53    6.68
   8  10  16  124.03   10.01
   8  10  16  122.59   10.58
   8  10  17   20.18    4.39
   8  10  17   23.53    4.92
   8  10  18  130.38    9.67
   8  10  18  131.09   10.50
   8  10  19   28.85    4.64
   8  10  19   33.22    5.52
   8  10  20  272.25   13.11
   8  10  20  293.99   15.27
   8  10  21  127.52    9.58
   8  10  22  125.51    9.05
  -8  11  11  159.56    9.81
  -8  11  10   95.83    7.72
  -8  11   9  333.62   15.36
  -8  11   8  371.12   16.56
  -8  11   7  125.64    9.43
  -8  11   6   21.18    4.23
  -8  11   5  151.81   10.59
  -8  11   4  642.51   24.19
  -8  11   3  181.61   11.85
  -8  11   0  681.59   25.24
  -8  11  -1  168.73   11.40
  -8  11  -2   38.00    5.61
  -8  11  -3  180.83   11.99
  -8  11  -3  193.16   10.49
  -8  11  -4  616.24   24.29
  -8  11  -4  692.03   22.08
  -8  11  -5  132.43   10.19
  -8  11  -6   23.84    4.54
  -8  11  -7  131.56   10.06
  -8  11  -8  321.69   16.54
   8  11   8  447.21   20.27
   8  11   9  472.55   21.02
   8  11   9  423.97   20.24
  -8  11 -10   91.75    8.28
   8  11  10  123.46   10.49
   8  11  10  119.82   10.45
   8  11  11  183.95   12.75
   8  11  11  184.54   12.83
   8  11  12  337.81   17.87
   8  11  12  394.31   19.22
   8  11  13  227.76   14.17
   8  11  14   81.81    8.36
   8  11  15   78.82    8.16
   8  11  16  310.98   16.12
   8  11  16  310.13   16.56
   8  11  17  214.56   12.76
   8  11  17  223.27   13.53
   8  11  18   93.90    8.00
   8  11  18   86.31    8.26
   8  11  19   56.66    6.12
   8  11  19   60.60    6.78
   8  11  20  168.44    9.69
   8  11  20  177.37   11.16
   8  11  21  154.36    9.99
  -8  12   8  139.53    9.66
  -8  12   7   39.87    5.22
  -8  12   6  158.80   10.65
  -8  12   5   29.20    4.81
  -8  12   4  284.86   14.74
  -8  12   3   74.84    7.37
  -8  12   0  162.19   11.06
  -8  12  -1   35.31    5.19
  -8  12  -2  189.56   12.07
  -8  12  -2  223.80   11.52
  -8  12  -3   95.28    8.42
  -8  12  -3   98.35    7.53
  -8  12  -4  272.00   12.79
  -8  12  -4  247.35   14.18
  -8  12  -5   37.74    5.49
   8  12   5   42.31    6.18
  -8  12  -6  129.31   10.10
   8  12   6  202.02   12.84
  -8  12  -7   39.85    5.63
   8  12   7   56.24    7.01
   8  12   8  171.65   11.91
   8  12   8  157.45   11.76
   8  12   9    6.98    3.50
   8  12   9    6.84    3.36
   8  12  10  212.11   13.37
   8  12  10  200.82   13.43
   8  12  11   39.21    5.97
   8  12  11   30.50    5.41
   8  12  12  277.90   15.60
   8  12  12  276.26   15.42
   8  12  13   63.90    7.29
   8  12  13   58.50    7.05
   8  12  14  137.84   10.47
   8  12  14  136.89   10.51
   8  12  15   28.02    4.94
   8  12  16   70.10    7.21
   8  12  17    9.04    3.17
   8  12  18  115.58    8.56
   8  12  18  118.89    9.06
   8  12  19   15.35    3.28
   8  12  19   15.51    3.62
   8  12  20  246.04   12.64
  -8  13  11  132.21    8.26
  -8  13   3  232.08   13.18
   8  13  -1  334.24   15.60
  -8  13   0   43.15    5.82
   8  13   0   55.11    6.31
  -8  13  -1  275.27   13.23
  -8  13  -1  244.40   13.93
  -8  13  -2   58.32    6.56
  -8  13  -2   61.29    6.15
   8  13   3  319.50   15.72
   8  13   3  299.63   16.34
   8  13   4  149.69   10.78
   8  13   4  152.23   11.53
   8  13   5  306.49   15.78
   8  13   5  300.79   16.52
   8  13   6   83.41    8.04
   8  13   7  238.87   13.70
   8  13   8   74.88    7.61
   8  13   9  550.72   22.09
   8  13   9  528.84   22.54
   8  13  10   89.02    8.56
   8  13  10   97.40    8.65
   8  13  11  173.87   11.72
   8  13  11  175.15   11.57
  -8  13 -12   20.76    3.64
   8  13  12   30.29    5.22
   8  13  12   28.83    5.05
   8  13  13  373.25   17.44
   8  13  13  349.26   16.63
   8  13  14  211.10   12.52
   8  13  14  205.27   12.20
   8  13  15  150.49   10.38
   8  13  15  158.50   10.44
   8  13  16   74.93    7.03
   8  13  16   68.91    6.79
   8  13  17  404.52   16.85
   8  13  17  414.59   17.14
  -8  14  10  136.13    8.17
  -8  14   9    5.50    2.06
  -8  14   8   37.46    4.75
   8  14  -5   46.82    5.81
   8  14  -4  285.59   14.67
   8  14  -3   38.56    5.52
   8  14  -2  153.83   10.76
  -8  14   1   11.83    3.26
   8  14  -1   18.89    4.30
  -8  14   0   55.84    5.86
   8  14   0   82.53    7.96
   8  14   1   10.89    3.54
   8  14   2  159.27   11.42
   8  14   3   49.43    5.80
   8  14   3   46.24    6.30
   8  14   4  291.22   14.43
   8  14   4  294.81   15.81
   8  14   5   45.32    5.76
   8  14   5   46.21    6.29
   8  14   6  165.41   10.76
   8  14   6  163.62   11.44
   8  14   7   33.69    5.09
   8  14   7   33.40    5.48
  -8  14  -8   30.67    4.67
   8  14   8   45.58    5.75
  -8  14  -9    6.38    2.39
   8  14   9    4.63    2.60
   8  14  10  180.68   11.41
   8  14  10  183.69   11.01
  -8  14 -11   16.43    3.31
   8  14  11   24.27    4.59
   8  14  11   27.85    4.51
   8  14  12  233.09   12.98
   8  14  12  233.56   12.50
   8  14  13   87.13    7.64
   8  14  13   85.83    7.37
   8  14  14  108.23    8.37
   8  14  14  113.23    8.27
   8  14  15   22.52    4.02
   8  14  15   22.39    3.90
  -8  15   9  218.85   10.20
  -8  15   8    5.31    2.23
  -8  15   7  110.11    7.50
  -8  15   6   45.89    5.08
  -8  15   5  163.90    9.61
  -8  15   4   12.39    3.00
  -8  15   3  136.37    8.74
  -8  15   3  127.44    8.76
  -8  15   2   33.17    4.63
   8  15  -2   46.58    5.65
   8  15  -1  282.03   14.20
  -8  15   0    0.17    1.92
   8  15   0    0.19    2.08
  -8  15  -1  175.78   10.70
   8  15   1  293.03   14.28
  -8  15  -2   37.49    4.91
   8  15   2   52.22    6.20
  -8  15  -3  110.40    8.38
   8  15   3  174.58   11.01
  -8  15  -4    9.62    2.82
   8  15   4   18.10    4.10
  -8  15  -5  166.12   10.18
   8  15   5  242.92   13.09
  -8  15  -6   33.84    4.58
   8  15   6   60.32    6.57
  -8  15  -7  104.15    7.83
   8  15   7  161.57   10.45
  -8  15  -8    7.81    2.68
   8  15   8   14.22    3.66
   8  15   8    8.81    2.83
  -8  15  -9  195.25   10.69
   8  15   9  303.57   13.19
   8  15  10   41.04    4.98
   8  15  12   31.84    4.75
  -8  16   6   59.90    5.19
  -8  16   5   24.80    3.54
  -8  16   4  140.16    8.35
  -8  16   3   12.81    2.76
  -8  16   2   47.79    4.93
  -8  16   0   51.61    5.23
   8  16   0   78.45    6.70
  -8  16  -1    5.33    2.19
   8  16   1    7.68    2.68
  -8  16  -2   42.29    4.76
   8  16   2   68.01    6.35
  -8  16  -3   14.84    2.95
   8  16   3   17.99    3.72
  -8  16  -4  127.89    8.27
   8  16   4  206.74   11.21
  -8  16  -5   24.36    3.66
   8  16   5   37.63    5.00
  -8  16  -6   57.02    5.38
   8  16   6   95.78    7.49
  -9   0   0    2.95    1.99
  -9   0   1   82.79    7.36
  -9   0  -1   88.92    7.52
  -9   0  -2  534.25   20.44
  -9   0  -3   39.05    4.97
  -9   0  -4  126.82    9.09
  -9   0  -5  150.87   10.01
  -9   0  -6  541.32   20.82
  -9   0  -7    7.79    2.81
  -9   0  -8   46.25    5.69
  -9   0   9   84.28    6.37
  -9   0  -9   72.02    6.53
  -9   0  -9   70.11    7.02
  -9   0  10  372.59   14.43
  -9   0 -10  344.66   16.44
  -9   0  11   22.59    3.54
  -9   0 -11   17.12    3.43
  -9   0 -11   15.37    3.69
  -9   0 -12  126.16    8.76
  -9   0 -12  124.22    9.71
  -9   0  13   46.15    4.72
  -9   0 -13   31.08    4.32
  -9   0 -13   32.27    5.06
  -9   0  14  325.17   13.10
  -9   0 -14  340.22   16.54
  -9   0  15   39.20    4.25
  -9   0 -15   31.60    5.24
  -9   0 -16  109.17    9.69
  -9   0 -17  314.20   17.12
  -9   0 -18  771.20   29.28
  -9   0 -19   10.11    3.94
  -9   0 -20  179.91   13.05
  -9   0 -21   46.93    6.70
  -9   0 -22  413.60   20.21
  -9   0 -23   16.29    4.32
  -9   0 -24   36.63    5.69
  -9   0 -25  204.84   12.83
  -9   0 -26  201.30   12.33
  -9   0 -27    5.76    2.37
  -9  -1 -27    4.27    2.65
  -9  -1 -26   59.05    6.75
  -9  -1 -25  319.28   16.36
  -9  -1 -24  258.92   15.11
  -9  -1 -23  996.48   34.17
  -9  -1 -22   53.65    7.09
  -9  -1 -21  202.04   13.87
  -9  -1 -20    7.52    3.40
  -9  -1 -19   43.43    6.59
  -9  -1 -18  164.46   12.40
  -9  -1 -17  858.60   31.03
  -9  -1 -16  387.91   18.98
  -9   1  15 1644.17   39.87
  -9  -1 -15 1511.70   44.98
  -9  -1 -14  184.27   10.50
  -9  -1 -14  201.68   12.62
  -9  -1 -13  237.26   12.22
  -9  -1 -13  268.78   14.64
  -9  -1 -12   39.77    4.83
  -9   1  12   42.51    4.52
  -9  -1 -12   33.13    5.16
  -9   1  11   29.18    3.94
  -9  -1 -11   19.82    4.09
  -9   1  10  240.77   11.45
  -9  -1 -10  209.53   12.60
  -9   1   9 1467.78   37.07
  -9  -1  -9 1329.73   39.34
  -9   1   8  473.00   16.94
  -9  -1  -8  412.06   18.20
  -9   1   7 2343.30   53.72
  -9  -1  -7 2197.25   56.31
  -9   1   6  159.92    9.05
  -9  -1  -6  146.29   10.05
  -9   1   5   40.44    4.54
  -9  -1  -5   48.19    5.65
  -9   1   4   97.25    6.99
  -9  -1  -4   94.84    7.88
  -9  -1  -3  239.93   12.86
  -9  -1  -2  121.06    8.98
  -9  -1  -1 1412.00   39.25
  -9  -1   0  287.14   14.26
  -9  -1   1 1462.40   40.47
  -9   1  -4   92.55    7.12
  -9   1  -5   47.57    5.12
  -9   1  -6  143.60    9.03
  -9   1  -7 2083.31   51.24
  -9   1  -8  367.20   15.77
  -9   1  -9 1265.27   35.75
  -9   1 -10  219.38   11.97
  -9   1 -11   21.95    3.80
  -9  -1  12   55.42    5.07
  -9   1 -12   36.28    4.72
  -9  -1  13  324.84   13.05
  -9   1 -13  248.28   12.83
  -9  -1  14  225.61   10.65
  -9   1 -14  171.39   10.18
  -9  -1  15 1777.61   43.05
   9   1  17 1016.27   34.05
  -9  -2 -27   59.46    6.54
  -9  -2 -26  122.22    9.66
  -9  -2 -25  116.95    9.53
  -9  -2 -24   65.24    7.36
  -9  -2 -23   53.66    6.98
  -9  -2 -22  125.55   10.60
  -9  -2 -21    9.19    3.48
  -9  -2 -20   38.96    6.05
  -9  -2 -19   87.48    8.94
  -9  -2 -18  408.78   20.00
  -9  -2 -17  238.23   14.64
  -9  -2 -16   23.41    4.87
  -9   2  15   50.81    5.00
  -9  -2 -15   48.41    6.40
  -9   2  14  522.27   17.64
  -9  -2 -14  480.00   20.69
  -9   2  13   77.21    6.16
  -9  -2 -13   62.52    5.89
  -9  -2 -13   63.05    7.10
  -9   2  12   86.56    6.61
  -9  -2 -12   78.01    7.78
  -9   2  11  246.90   11.74
  -9  -2 -11  235.92   13.52
  -9   2  10  643.52   20.89
  -9  -2 -10  581.18   22.79
  -9   2   9  214.63   10.94
  -9  -2  -9  216.65   13.06
  -9   2   8   14.78    3.06
  -9  -2  -8    8.65    2.89
  -9   2   7  142.36    8.74
  -9  -2  -7  119.54    9.09
  -9   2   6  951.38   27.12
  -9  -2  -6  823.24   28.14
  -9   2   5  172.19    9.60
  -9  -2  -5  150.81   10.24
  -9   2   4  103.02    7.42
  -9  -2  -4  104.45    8.34
  -9   2   3   68.71    5.95
  -9  -2  -3   60.03    6.41
  -9  -2  -2  510.58   20.16
  -9   2   1  143.83    9.53
  -9  -2  -1  151.26   10.05
  -9   2   0   32.35    4.15
  -9   2   0   50.15    5.51
  -9  -2   0   42.74    5.42
  -9   2  -1  130.95    8.40
  -9  -2   1  155.32   10.21
  -9   2  -1  133.00    9.11
  -9   2  -2  456.37   17.39
  -9   2  -2  506.52   19.27
  -9   2  -3   84.36    6.83
  -9   2  -3   78.53    6.99
  -9   2  -4   88.43    7.05
  -9   2  -4   97.61    7.88
  -9   2  -5  164.56    9.83
  -9   2  -5  151.25   10.03
  -9   2  -6  842.64   26.91
  -9   2  -6  902.69   28.56
  -9   2  -7  114.96    8.44
  -9   2  -7  123.40    9.05
  -9   2  -8    9.27    2.97
  -9   2  -8   15.13    3.57
  -9   2  -9  172.74   10.71
  -9   2  -9  204.47   12.03
  -9   2 -10  554.45   21.19
  -9   2 -10  654.97   23.56
  -9   2 -11  214.40   12.01
  -9   2 -11  243.42   13.66
  -9   2 -12   79.99    7.10
  -9   2 -12   89.89    8.23
  -9   2 -13   65.18    6.37
  -9   2 -13   85.92    8.14
  -9   2 -14  404.12   16.94
  -9   2 -14  458.13   20.02
  -9  -2  15   60.01    5.39
  -9   2 -15   58.40    6.69
  -9   2 -16   36.67    5.73
   9   2  17  272.98   15.66
  -9   2 -17  224.46   14.03
   9   2  18  522.62   22.14
  -9   2 -18  420.00   20.18
  -9   2 -19   82.99    8.54
  -9   2 -20   49.33    6.55
  -9   2 -21    6.32    2.83
  -9   2 -22  132.16   10.49
  -9   2 -23   65.24    7.32
  -9   2 -24   62.13    6.86
  -9   2 -25  126.95    9.58
  -9   2 -26  108.66    8.67
  -9   2 -27   63.51    6.41
  -9  -3 -26   88.46    8.11
  -9  -3 -25  283.80   15.34
  -9  -3 -24  202.74   12.97
  -9  -3 -23  694.32   26.51
  -9  -3 -22  139.55   10.85
  -9  -3 -21  104.23    9.49
  -9  -3 -20   17.06    4.30
  -9  -3 -19   24.95    4.93
  -9  -3 -18  219.73   13.77
  -9  -3 -17  725.95   27.30
  -9  -3 -16  371.58   18.23
  -9   3  15 1536.77   38.22
  -9  -3 -15 1531.43   44.25
  -9   3  14  376.63   14.90
  -9  -3 -14  344.47   17.32
  -9   3  13  180.40    9.76
  -9  -3 -13  153.81   11.09
  -9   3  12   62.56    5.73
  -9  -3 -12   50.76    6.33
  -9   3  11   41.50    4.72
  -9  -3 -11   41.39    5.69
  -9   3  10  378.67   15.27
  -9  -3 -10  349.89   16.77
  -9   3   9  989.70   28.30
  -9  -3  -9  885.37   29.86
  -9   3   8  412.93   16.09
  -9  -3  -8  365.05   17.04
  -9   3   7 2008.16   47.86
  -9  -3  -7 1831.16   49.73
  -9   3   6  353.37   14.80
  -9  -3  -6  340.74   16.15
  -9   3   5   77.13    6.50
  -9  -3  -5   73.48    7.10
  -9   3   4  188.77   10.28
  -9  -3  -4  168.19   10.80
  -9   3   3   79.75    6.62
  -9  -3  -3   84.44    7.53
  -9  -3  -2  110.77    8.66
  -9  -3  -1 1531.81   42.02
  -9   3   0  432.80   17.13
  -9  -3   0  449.63   18.82
  -9   3  -1 1587.99   41.43
  -9   3  -1 1642.43   42.69
  -9   3  -2   69.86    6.24
  -9   3  -2   69.57    6.52
  -9   3  -3   53.78    5.67
  -9   3  -3   93.40    7.57
  -9   3  -4  169.26   10.13
  -9   3  -4  182.16   10.82
  -9   3  -5   97.46    7.69
  -9   3  -5  117.62    8.63
  -9   3  -6  315.05   14.69
  -9   3  -6  345.94   15.73
  -9   3  -7 1832.14   48.54
  -9   3  -7 2046.36   50.60
  -9   3  -8  371.50   16.53
  -9   3  -8  392.95   17.26
  -9   3  -9  867.03   28.83
  -9   3  -9 1011.58   30.83
  -9   3 -10  357.86   16.40
  -9   3 -10  396.95   17.60
  -9   3 -11   37.49    5.02
  -9   3 -11   45.70    5.91
  -9   3 -12   56.67    6.04
  -9   3 -12   71.24    7.37
  -9   3 -13  153.95    9.92
  -9   3 -13  180.05   11.76
  -9   3 -14  288.37   13.93
  -9   3 -14  364.95   17.19
  -9  -3  15 1712.43   40.84
  -9   3 -15 1544.08   45.42
  -9   3 -16  436.10   19.79
   9   3  16  495.37   22.16
  -9   3 -17  737.81   27.61
   9   3  17  863.37   30.56
  -9   3 -18  243.94   14.35
   9   3  18  284.50   15.98
  -9   3 -19   18.20    4.05
   9   3  19   20.96    4.73
  -9   3 -20   20.03    4.42
   9   3  20   19.27    4.40
  -9   3 -21  107.00    9.16
  -9   3 -22  130.41    9.96
  -9   3 -23  669.88   24.83
  -9   3 -24  199.78   12.11
  -9   3 -25  274.83   14.21
  -9   3 -26   73.46    6.97
  -9  -4 -26   96.31    8.34
  -9  -4 -25   83.80    8.08
  -9  -4 -24   52.87    6.65
  -9  -4 -23   86.74    8.47
  -9  -4 -22   81.69    8.23
  -9  -4 -21   15.99    3.93
  -9  -4 -20   32.02    5.17
  -9  -4 -19  101.91    9.34
  -9  -4 -18  199.36   13.11
  -9  -4 -17  276.00   15.45
  -9  -4 -16   50.26    6.53
  -9   4  15   91.86    6.46
  -9  -4 -15  101.23    9.12
  -9   4  14  312.04   12.93
  -9  -4 -14  302.80   16.03
  -9   4  13  172.29    9.60
  -9  -4 -13  163.33   11.49
  -9   4  12  117.57    7.99
  -9  -4 -12  109.92    9.18
  -9   4  11  351.79   14.77
  -9  -4 -11  323.07   16.26
  -9   4  10  252.79   12.27
  -9  -4 -10  229.62   13.32
  -9   4   9  546.39   19.34
  -9  -4  -9  479.58   20.28
  -9   4   8  170.13   10.03
  -9  -4  -8  162.20   10.88
  -9   4   7  775.90   24.52
  -9  -4  -7  717.08   25.81
  -9   4   6  786.70   24.76
  -9  -4  -6  725.66   25.88
  -9   4   5  296.07   13.48
  -9  -4  -5  259.05   13.88
  -9   4   4   64.18    6.16
  -9  -4  -4   67.08    6.73
  -9   4   3  395.15   16.10
  -9  -4  -3  367.83   16.88
  -9  -4  -2  562.06   21.39
  -9  -4  -1   38.84    5.10
  -9   4   0   15.15    3.11
  -9   4   0   24.07    3.79
  -9   4  -1   68.58    6.29
  -9   4  -1   67.85    6.30
  -9   4  -2  500.67   18.72
  -9   4  -2  471.95   18.44
  -9   4  -3  341.84   15.34
  -9   4  -3  396.28   16.37
  -9   4  -4   64.35    6.38
  -9   4  -4   72.27    6.69
  -9   4  -5  249.74   13.10
  -9   4  -5  293.47   14.03
  -9   4  -6  686.13   24.50
  -9   4  -6  827.91   26.15
  -9   4  -7  672.47   24.29
  -9   4  -7  783.27   25.60
  -9   4  -8  186.51   11.46
  -9   4  -8  207.27   11.97
  -9   4  -9  449.57   18.97
  -9   4  -9  471.58   19.25
  -9   4 -10  249.60   13.52
  -9   4 -10  277.60   14.24
  -9   4 -11  340.32   16.10
  -9   4 -11  381.56   17.30
  -9   4 -12  117.47    8.93
  -9   4 -12  143.27   10.22
  -9   4 -13  119.46    8.71
  -9   4 -13  155.13   10.82
  -9   4 -14  253.77   12.57
  -9   4 -14  356.74   16.77
  -9   4 -15   96.61    8.67
  -9   4 -16   53.20    6.57
   9   4  16   45.53    6.81
  -9   4 -17  294.90   15.85
   9   4  17  339.90   18.02
  -9   4 -18  215.50   13.28
   9   4  18  235.75   14.56
  -9   4 -19  103.88    9.07
   9   4  19  118.99   10.08
  -9   4 -20   30.98    5.00
   9   4  20   23.21    4.76
  -9   4 -21   11.60    3.40
   9   4  21   10.52    3.40
  -9   4 -22   89.37    8.24
  -9   4 -23  106.88    8.91
  -9   4 -24   45.67    5.83
  -9   4 -25  102.51    8.28
  -9   4 -26   89.44    7.41
  -9  -5 -25  236.87   13.15
  -9  -5 -24  159.66   10.98
  -9  -5 -23  514.20   21.39
  -9  -5 -22  286.21   15.48
  -9  -5 -21  354.46   17.67
  -9  -5 -20   80.60    8.13
  -9  -5 -19   39.51    5.86
  -9  -5 -18  329.58   16.99
  -9  -5 -17  296.18   16.07
  -9  -5 -16  224.31   13.70
  -9  -5 -15  776.37   28.26
  -9   5  15  817.20   23.78
  -9  -5 -14  577.16   23.22
  -9   5  14  582.47   19.31
  -9  -5 -13  349.31   17.20
  -9   5  13  356.11   14.18
  -9  -5 -12  101.12    8.82
  -9   5  12  107.13    7.41
  -9  -5 -11   27.58    4.78
  -9   5  11   36.13    4.55
  -9  -5 -10  431.17   19.20
  -9   5  10  472.08   17.96
  -9  -5  -9  621.49   23.92
  -9   5   9  684.06   22.77
  -9  -5  -8  215.25   12.83
  -9   5   8  232.90   12.13
  -9  -5  -7 1050.31   33.38
  -9   5   7 1134.03   32.10
  -9  -5  -6  494.94   20.32
  -9   5   6  518.75   19.41
  -9  -5  -5  213.31   12.46
  -9   5   5  221.93   11.82
  -9  -5  -4   61.46    6.57
  -9   5   4   39.06    4.91
  -9  -5  -3   79.62    7.38
  -9   5   3   82.16    7.04
  -9  -5  -2  470.14   19.34
  -9  -5  -1  434.57   18.33
  -9   5   0   48.88    5.44
  -9   5  -1  401.73   16.16
  -9   5  -1  372.63   16.22
  -9   5  -2  489.58   18.33
  -9   5  -2  449.49   18.26
  -9   5  -3   67.83    6.30
  -9   5  -3   67.71    6.44
  -9   5  -4   31.41    4.38
  -9   5  -4   27.73    4.46
  -9   5  -5  217.28   11.70
  -9   5  -5  195.52   11.62
  -9   5  -6  582.11   20.77
  -9   5  -6  505.24   20.39
  -9   5  -7 1164.88   33.03
  -9   5  -7 1025.28   32.54
  -9   5  -8  221.47   12.23
  -9   5  -8  210.65   12.49
  -9   5  -9  677.20   23.57
  -9   5  -9  593.01   23.11
  -9   5 -10  520.25   20.15
  -9   5 -10  443.66   19.29
  -9   5 -11   21.18    4.05
  -9   5 -11   11.97    3.23
  -9   5 -12  104.60    8.57
  -9   5 -12   86.63    7.38
  -9   5 -13  361.82   16.63
  -9   5 -13  290.68   13.92
  -9   5 -14  685.84   23.74
  -9   5 -14  455.87   18.31
  -9   5 -15  944.97   31.11
  -9   5 -16  245.87   14.12
   9   5  16  269.43   14.40
  -9   5 -17  360.49   17.40
   9   5  17  370.66   19.21
  -9   5 -18  370.86   17.73
   9   5  18  406.08   19.75
  -9   5 -19   42.20    5.75
   9   5  19   48.27    6.61
  -9   5 -20  102.62    8.78
   9   5  20  106.94    9.37
  -9   5 -21  360.90   17.07
   9   5  21  367.21   17.39
  -9   5 -22  299.25   15.07
   9   5  22  300.38   14.91
  -9   5 -23  535.69   20.84
  -9   5 -24  152.92    9.99
  -9   5 -25  227.82   11.95
  -9  -6 -24    4.93    2.64
  -9  -6 -23  109.67    8.76
  -9  -6 -22   40.59    5.68
  -9  -6 -21   44.13    5.85
  -9  -6 -20   27.36    4.90
  -9  -6 -19  225.78   13.37
  -9  -6 -18   48.55    6.22
  -9  -6 -17  253.03   14.22
  -9  -6 -16  100.50    8.76
  -9  -6 -15  283.23   15.19
  -9  -6 -14  106.53    9.01
  -9   6  14  107.43    7.24
  -9  -6 -13   49.65    6.12
  -9   6  13   50.05    5.06
  -9  -6 -12   72.86    7.29
  -9   6  12   64.09    5.78
  -9  -6 -11  295.82   15.27
  -9   6  11  279.53   12.87
  -9  -6 -10  180.28   11.68
  -9   6  10  178.20   10.05
  -9  -6  -9  107.83    8.90
  -9   6   9  105.85    7.78
  -9  -6  -8   57.81    6.54
  -9   6   8   60.43    6.01
  -9  -6  -7  480.24   20.00
  -9   6   7  506.54   19.21
  -9  -6  -6   83.66    7.76
  -9   6   6   94.86    7.77
  -9  -6  -5  157.47   10.67
  -9   6   5  168.64   10.59
  -9  -6  -4  149.05   10.17
  -9   6   4  149.51    9.90
  -9  -6  -3  256.19   13.67
  -9   6   3  275.13   13.75
  -9  -6  -2   50.76    5.84
  -9   6   0   30.06    4.56
  -9   6  -1   41.14    5.28
  -9   6  -2   36.43    4.94
  -9   6  -3  296.57   13.32
  -9   6  -3  275.04   14.17
  -9   6  -4  112.85    7.93
  -9   6  -4  115.07    8.92
  -9   6  -5  158.55    9.60
  -9   6  -5  153.37   10.41
  -9   6  -6   69.06    6.36
  -9   6  -6   76.70    7.43
  -9   6  -7  509.84   19.00
  -9   6  -7  465.80   19.65
  -9   6  -8   60.87    6.15
  -9   6  -8   58.36    6.40
  -9   6  -9  158.60   10.04
  -9   6  -9  141.83    9.93
  -9   6 -10  218.84   11.93
  -9   6 -10  177.77   11.13
  -9   6 -11  340.28   15.30
  -9   6 -11  254.81   13.57
  -9   6 -12   55.82    6.00
  -9   6 -12   43.87    5.39
  -9   6 -13   51.81    5.91
  -9   6 -13   44.92    5.31
  -9   6 -14  105.69    8.42
  -9   6 -14   71.25    6.39
  -9   6 -15  353.41   16.56
   9   6  15  393.94   20.39
   9   6  15  367.55   17.88
  -9   6 -16  105.57    8.72
   9   6  16  121.79   10.89
   9   6  16  113.13    9.28
  -9   6 -17  277.00   14.48
   9   6  17  303.10   17.19
   9   6  17  281.05   14.51
  -9   6 -18   60.19    6.57
   9   6  18   68.48    7.99
  -9   6 -19  244.36   13.38
   9   6  19  254.58   15.15
  -9   6 -20   25.78    4.43
   9   6  20   35.58    5.63
  -9   6 -21   39.75    5.37
   9   6  21   41.86    5.86
  -9   6 -22   49.19    5.79
   9   6  22   51.67    6.07
  -9   6 -23  111.45    8.26
   9   6  23  119.84    8.62
  -9  -7 -21  279.88   14.04
  -9  -7 -20  115.81    8.91
  -9  -7 -19  191.21   11.67
  -9  -7 -18  415.38   18.19
  -9  -7 -17  227.70   13.03
  -9  -7 -16  115.11    9.10
  -9  -7 -15  494.47   20.37
  -9  -7 -14  535.15   21.47
  -9   7  14  549.67   18.74
  -9  -7 -13  390.16   17.65
  -9   7  13  369.60   15.02
  -9  -7 -12   64.22    6.91
  -9   7  12   72.50    6.14
  -9  -7 -11  145.56   10.32
  -9   7  11  138.06    8.87
  -9  -7 -10  631.92   23.55
  -9   7  10  615.71   21.33
  -9  -7  -9  376.48   17.27
  -9   7   9  377.01   15.90
  -9  -7  -8  112.64    8.96
  -9   7   8  113.70    8.18
  -9  -7  -7  396.56   17.71
  -9   7   7  375.32   16.05
  -9  -7  -6  754.44   26.09
  -9   7   6  747.27   24.73
  -9  -7  -5  312.59   15.28
  -9   7   5  304.05   14.34
  -9  -7  -4  149.83   10.13
  -9   7   4  137.13    9.32
  -9   7   3  111.51    8.42
  -9   7   0   38.99    5.01
  -9   7  -1  224.90   12.37
  -9   7  -2  410.13   17.42
  -9   7  -3   95.19    7.87
  -9   7  -4  112.71    7.56
  -9   7  -4   95.37    7.96
  -9   7  -5  353.82   14.52
  -9   7  -5  333.53   15.71
  -9   7  -6  777.28   23.64
  -9   7  -6  669.29   24.51
  -9   7  -7  447.59   16.89
  -9   7  -7  379.95   17.30
  -9   7  -8   89.81    7.09
  -9   7  -8   84.68    7.57
  -9   7  -9  408.37   16.18
  -9   7  -9  345.23   16.61
  -9   7 -10  669.93   22.28
  -9   7 -10  597.89   22.84
  -9   7 -11  128.72    8.74
  -9   7 -11  101.87    8.45
  -9   7 -12   68.83    6.54
  -9   7 -12   60.07    6.30
  -9   7 -13  418.90   16.85
  -9   7 -13  324.11   15.27
  -9   7 -14  652.91   22.21
   9   7  14  681.15   25.74
   9   7  15  676.37   27.74
   9   7  15  639.85   24.86
  -9   7 -16  113.39    8.54
   9   7  16  141.92   11.90
   9   7  16  130.40   10.03
  -9   7 -17  295.01   14.21
   9   7  17  299.87   15.22
   9   7  17  315.07   17.63
  -9   7 -18  481.51   19.01
   9   7  18  532.69   23.12
  -9   7 -19  213.08   11.75
   9   7  19  221.49   14.01
  -9   7 -20  154.72    9.68
   9   7  20  153.26   11.18
   9   7  21  303.49   15.43
   9   7  22  262.30   13.54
   9   7  23  258.56   12.78
  -9   8  14   36.96    4.44
  -9   8  13   50.40    5.19
  -9   8  12   48.93    5.23
  -9   8  11  323.80   14.31
  -9  -8 -10   19.73    3.92
  -9   8  10   22.95    3.75
  -9  -8  -9  100.16    8.19
  -9   8   9  106.43    7.94
  -9  -8  -8   45.23    5.60
  -9   8   8   57.99    5.96
  -9  -8  -7  324.14   15.44
  -9   8   7  339.17   15.31
  -9  -8  -6   50.86    5.91
  -9   8   6   54.56    5.88
  -9   8   5   97.00    7.86
  -9   8   4   75.32    6.99
  -9   8   3  352.25   15.96
  -9   8   0   48.08    5.79
  -9   8  -1   88.48    7.64
  -9   8  -2   17.05    3.58
  -9   8  -3  320.71   15.32
  -9   8  -4   64.38    6.65
  -9   8  -5   87.14    7.79
  -9   8  -6   41.19    4.54
  -9   8  -6   39.98    5.38
  -9   8  -7  358.00   14.13
  -9   8  -7  325.70   16.04
  -9   8  -8   50.99    5.10
  -9   8  -8   49.36    6.07
  -9   8  -9  115.50    7.60
  -9   8  -9  100.71    8.54
  -9   8 -10   20.26    3.32
  -9   8 -10   18.84    3.89
  -9   8 -11  348.56   14.24
  -9   8 -11  300.12   15.13
  -9   8 -12   39.54    4.70
  -9   8 -12   40.28    5.28
  -9   8 -13   39.72    5.05
  -9   8 -13   47.47    5.04
   9   8  13   62.44    8.31
   9   8  13   64.19    7.78
  -9   8 -14   48.99    5.17
   9   8  14   70.54    8.71
   9   8  14   61.73    7.53
   9   8  15  325.22   18.29
   9   8  15  304.48   16.35
   9   8  16   32.42    6.11
   9   8  16   39.71    5.84
   9   8  17   89.81    8.13
   9   8  17  100.77    9.82
   9   8  18   48.36    5.79
   9   8  18   64.66    7.76
   9   8  19  340.89   17.61
   9   8  20   35.49    5.52
   9   8  21   62.13    6.71
   9   8  22   38.66    5.15
  -9   9  13  458.32   16.94
  -9   9  12  176.46   10.02
  -9   9  11  278.70   13.14
  -9   9  10  261.62   12.94
  -9   9   9  126.85    8.89
  -9   9   8   20.10    3.86
  -9   9   7   84.54    7.39
  -9   9   6  520.65   20.19
  -9   9   5  470.63   19.01
  -9   9   4  114.88    8.75
  -9   9   3  240.45   13.05
  -9   9   0   12.82    3.43
  -9   9  -1  127.82    9.49
  -9   9  -2  431.62   18.43
  -9   9  -3  217.14   12.56
  -9   9  -4   70.99    7.07
  -9   9  -5  441.06   18.91
  -9   9  -6  471.86   19.80
  -9   9  -7  104.52    8.74
  -9   9  -8    9.52    3.33
  -9   9  -9  157.81   10.87
  -9   9 -10  232.43   13.22
  -9   9 -11  252.25   13.59
   9   9  12  231.66   15.57
   9   9  12  224.93   14.63
   9   9  13  672.00   26.93
   9   9  13  644.28   25.30
   9   9  14  535.22   24.46
   9   9  14  540.67   23.51
   9   9  15  167.54   12.78
   9   9  15  156.15   11.50
   9   9  16   51.89    6.41
   9   9  16   59.68    7.72
   9   9  17  146.45   10.29
   9   9  17  144.87   11.64
   9   9  18  360.65   16.21
   9   9  18  386.02   19.07
   9   9  19  433.93   17.38
   9   9  19  500.67   21.12
   9   9  20  179.83   11.66
   9   9  21  277.74   14.11
   9   9  22  255.50   12.77
  -9  10  13   91.63    6.73
  -9  10  12   29.43    4.08
  -9  10  11  140.39    8.87
  -9  10  10   61.66    6.02
  -9  10   9  172.07   10.47
  -9  10   8   62.44    6.30
  -9  10   7  193.82   11.37
  -9  10   6   25.29    4.40
  -9  10   5  156.58   10.44
  -9  10   4  117.07    9.00
  -9  10   3  348.70   16.32
  -9  10   0   42.85    5.65
  -9  10  -1  141.76   10.03
  -9  10  -2   62.81    6.79
  -9  10  -3  325.11   15.92
  -9  10  -4   90.13    8.09
  -9  10  -5  150.74   10.56
  -9  10  -6   32.10    4.92
  -9  10  -7  186.76   11.89
  -9  10  -8   51.90    6.28
  -9  10  -9  169.51   11.23
  -9  10 -10   42.95    5.62
  -9  10 -11  125.38    9.36
   9  10  11  203.03   13.91
  -9  10 -12   30.87    4.66
   9  10  12   54.47    7.32
   9  10  13  144.34   11.71
   9  10  13  139.74   11.25
   9  10  14   39.50    6.50
   9  10  14   45.93    6.57
   9  10  15  173.25   11.99
   9  10  15  170.83   12.60
   9  10  16   34.85    5.36
   9  10  16   35.82    5.98
   9  10  17   28.41    4.83
   9  10  17   33.92    5.81
   9  10  18  113.34    8.55
   9  10  18  117.44    9.79
   9  10  19  138.67    8.94
   9  10  19  164.56   11.14
   9  10  20   33.36    5.09
  -9  11  11  365.54   14.98
  -9  11  10  137.15    8.82
  -9  11   9   11.63    2.92
  -9  11   8   21.99    3.78
  -9  11   7   49.99    5.67
  -9  11   6  346.65   15.92
  -9  11   5  588.16   22.10
  -9  11   4  155.66   10.52
  -9  11   3  407.07   17.90
  -9  11   0    1.41    1.99
  -9  11  -1   32.52    4.87
  -9  11  -2  228.87   13.13
  -9  11  -3  415.88   18.45
  -9  11  -4  118.65    9.36
  -9  11  -5  605.32   23.20
  -9  11  -6  320.05   15.86
  -9  11  -7   50.17    6.10
   9  11   7   76.94    8.70
  -9  11  -8   12.21    3.38
   9  11   8   17.23    4.92
  -9  11  -9   13.80    3.49
   9  11   9   22.37    4.95
   9  11   9   20.43    5.07
   9  11  10  214.32   14.20
   9  11  10  202.87   13.88
   9  11  11  480.26   21.85
   9  11  11  512.05   22.41
   9  11  12  179.30   12.91
   9  11  13  477.59   21.68
   9  11  14  233.26   14.12
   9  11  15   23.33    4.52
   9  11  15   26.21    5.33
   9  11  16   20.05    4.26
   9  11  16   22.48    4.91
   9  11  17   24.40    4.49
   9  11  17   28.74    5.24
   9  11  18  218.23   11.72
   9  11  18  238.21   13.41
   9  11  19  454.43   18.90
  -9  12   8   12.30    3.07
  -9  12   7   28.37    4.35
  -9  12   6  117.28    8.59
  -9  12   5  123.09    8.99
  -9  12   4   43.83    5.43
  -9  12   3  103.31    8.27
  -9  12   0   17.71    3.83
  -9  12  -1   45.25    5.67
  -9  12  -2   81.31    7.52
  -9  12  -3   89.37    7.84
  -9  12  -4   52.44    6.10
   9  12   4   74.98    8.30
  -9  12  -5   99.50    8.50
   9  12   5  166.50   12.18
  -9  12  -6  113.85    9.04
   9  12   6  171.43   12.34
  -9  12  -7   35.96    5.22
   9  12   7   55.73    7.20
   9  12   7   57.26    7.52
  -9  12  -8    9.32    3.11
   9  12   8   12.19    4.11
   9  12   8   14.38    4.32
   9  12   9   57.73    7.25
   9  12   9   58.68    7.68
   9  12  10  333.79   17.58
   9  12  10  375.27   18.88
   9  12  11  117.40   10.08
   9  12  11  112.75    9.92
   9  12  12    3.57    2.89
   9  12  12    7.64    3.60
   9  12  13   67.73    7.53
   9  12  13   68.33    7.75
   9  12  14  218.33   13.15
   9  12  14  217.70   13.34
   9  12  15  193.64   12.00
   9  12  16   27.77    4.71
   9  12  17   14.35    3.83
  -9  13   3  405.14   17.06
  -9  13   0    0.55    1.80
   9  13   0   -0.21    2.19
  -9  13  -1   16.47    3.57
   9  13   1   26.26    4.92
  -9  13  -2   79.38    7.28
   9  13   2  119.32    9.67
   9  13   3  631.43   23.48
   9  13   3  596.84   24.41
   9  13   4  210.64   13.13
   9  13   4  196.96   13.50
   9  13   5  538.70   22.35
   9  13   5  543.70   23.57
   9  13   6  119.77    9.82
   9  13   7   12.49    3.85
   9  13   8   10.52    3.77
   9  13   8    9.92    3.65
   9  13   9    2.60    2.96
   9  13   9    1.57    2.78
   9  13  10   44.49    6.30
   9  13  10   41.92    6.09
   9  13  11  655.18   23.50
   9  13  11  627.60   22.78
   9  13  12  203.98   12.67
   9  13  12  207.76   12.56
   9  13  13  382.46   17.55
   9  13  13  381.84   17.32
   9  13  14   83.95    7.71
   9  13  14   72.03    7.18
   9  13  15   10.13    3.15
  -9  14   9    7.83    2.08
  -9  14   8    2.58    1.83
   9  14  -5   48.60    6.03
   9  14  -4   21.26    4.36
   9  14  -3   20.59    4.40
   9  14  -2  206.01   12.80
   9  14  -1   16.60    4.04
   9  14   0    1.39    2.37
   9  14   1    6.79    3.31
   9  14   2  213.96   13.45
   9  14   3   18.43    4.44
   9  14   4   23.51    4.41
   9  14   4   24.42    5.03
   9  14   5   49.90    6.09
   9  14   5   46.53    6.38
   9  14   6  151.38   10.40
   9  14   6  158.40   11.31
   9  14   7   37.86    5.37
  -9  14  -8    1.07    1.87
   9  14   8    2.54    2.56
  -9  14  -9    4.31    1.83
   9  14   9    3.75    2.76
   9  14   9    3.25    2.33
   9  14  10  155.78   10.70
   9  14  10  169.10   10.57
   9  14  11   15.66    3.88
   9  14  11   12.27    3.46
   9  14  12   19.37    3.77
  -9  15   6   21.67    3.21
  -9  15   5  189.97    9.51
  -9  15   4   74.84    5.88
  -9  15   3  272.40   12.09
  -9  15   2   17.53    3.21
   9  15  -2   26.10    4.42
   9  15  -1    6.36    2.69
  -9  15   0    0.56    1.50
   9  15   0    0.19    2.19
  -9  15  -1    4.24    2.06
   9  15   1    6.32    2.84
  -9  15  -2   14.28    3.01
   9  15   2   23.86    4.52
  -9  15  -3  283.56   13.08
   9  15   3  495.48   19.00
  -9  15  -4   66.18    5.74
   9  15   4  121.81    9.18
  -9  15  -5  178.19    9.80
   9  15   5  335.67   15.17
  -9  15  -6    8.77    2.43
   9  15   6   21.09    4.31
   9  15   7   15.95    3.92
 -10   0   0 5284.46  114.96
 -10   0  -1  717.91   25.44
 -10   0  -2  483.09   19.82
 -10   0  -3    2.80    2.51
 -10   0  -4  377.36   17.26
 -10   0  -5    4.04    2.48
 -10   0   6  959.86   27.94
 -10   0  -6  868.07   28.00
 -10   0  -6  869.81   29.33
 -10   0   7  893.00   26.52
 -10   0  -7  825.39   27.14
 -10   0  -7  797.10   28.14
 -10   0  -8 4169.02   94.93
 -10   0  -8 4125.96   96.73
 -10   0   9  405.01   16.09
 -10   0  -9  370.90   16.67
 -10   0  -9  371.25   17.72
 -10   0  10  164.22    9.67
 -10   0 -10  146.36    9.95
 -10   0 -10  153.34   10.90
 -10   0  11    2.98    2.11
 -10   0 -11    1.69    1.86
 -10   0 -11    3.14    2.39
 -10   0  12  151.21    9.09
 -10   0 -12  141.03   10.66
 -10   0  13    3.42    1.97
 -10   0 -13    3.85    2.01
 -10   0 -13    4.94    2.80
 -10   0  14  458.20   16.54
 -10   0 -14  442.91   20.26
 -10   0  15  586.91   19.36
 -10   0 -15  550.37   23.62
 -10   0 -16 2428.30   63.55
 -10   0 -17  252.97   15.33
 -10   0 -18   34.39    5.91
 -10   0 -19   10.57    4.02
 -10   0 -20   44.53    6.49
 -10   0 -21    7.70    3.29
 -10   0 -22  681.43   26.29
 -10   0 -23  288.54   15.57
 -10   0 -24  955.37   31.25
 -10   0 -25   75.55    7.35
 -10  -1 -25    7.01    2.96
 -10  -1 -24   71.66    7.48
 -10  -1 -23   14.04    3.90
 -10  -1 -22   19.85    4.55
 -10  -1 -21   26.63    5.16
 -10  -1 -20   20.82    4.70
 -10  -1 -19   37.96    6.18
 -10  -1 -18    3.64    2.82
 -10  -1 -17   30.93    5.49
 -10  -1 -16  137.82   11.13
 -10   1  15   22.12    3.35
 -10  -1 -15   17.87    4.35
 -10   1  14   13.58    2.69
 -10  -1 -14    7.96    2.35
 -10  -1 -14   12.34    3.80
 -10   1  13    9.45    2.65
 -10  -1 -13   10.16    2.79
 -10  -1 -13   10.36    3.41
 -10  -1 -12    1.45    1.59
 -10   1  12    3.06    1.78
 -10  -1 -12    3.68    2.71
 -10  -1 -11    9.65    2.97
 -10   1  11   14.45    3.20
 -10  -1 -11   10.75    3.25
 -10  -1 -10   55.14    5.90
 -10   1  10   60.00    5.75
 -10  -1 -10   54.90    6.70
 -10  -1  -9   59.80    6.37
 -10   1   9   65.88    6.18
 -10  -1  -9   55.13    6.62
 -10   1   8   43.19    5.14
 -10  -1  -8   42.86    5.82
 -10   1   7   11.53    3.02
 -10  -1  -7    8.56    3.14
 -10   1   6   37.63    4.74
 -10  -1  -6   41.31    5.61
 -10   1   5   10.24    2.93
 -10  -1  -5    7.51    3.07
 -10   1   4   21.81    3.68
 -10  -1  -4   20.27    4.16
 -10   1   3  247.97   12.30
 -10  -1  -3  227.95   13.11
 -10  -1  -2   76.69    7.51
 -10  -1  -1   32.77    5.06
 -10   1   0   18.46    3.70
 -10  -1   0   23.55    4.45
 -10   1  -1   28.60    4.32
 -10   1  -2   68.40    6.42
 -10   1  -3  250.66   12.76
 -10   1  -4   19.83    3.82
 -10   1  -5   18.32    3.76
 -10   1  -6   34.43    4.82
 -10   1  -7   15.63    3.55
 -10   1  -8   49.30    5.85
 -10   1  -9   50.19    5.93
 -10  -1  10   74.01    6.30
 -10   1 -10   63.34    6.44
 -10  -1  11   12.08    2.95
 -10   1 -11   14.87    3.41
 -10  -1  12    5.10    2.00
 -10   1 -12    7.56    2.53
 -10  -1  13    5.30    2.17
 -10   1 -13    4.10    2.10
 -10  -1  14   10.74    2.45
 -10   1 -14    8.25    2.55
 -10  -1  15   16.00    2.93
  10   1  16  155.08   11.52
 -10  -2 -25  168.33   10.90
 -10  -2 -24  840.68   28.59
 -10  -2 -23  232.53   13.77
 -10  -2 -22  557.58   23.15
 -10  -2 -21  117.09    9.99
 -10  -2 -20   50.33    6.75
 -10  -2 -19   23.54    4.94
 -10  -2 -18   49.59    6.88
 -10  -2 -17  370.23   18.86
 -10  -2 -16 1758.68   50.05
 -10  -2 -15  449.60   20.70
 -10   2  14  754.66   22.91
 -10  -2 -14  775.87   27.92
 -10   2  13  127.69    8.20
 -10  -2 -13   99.50    7.79
 -10  -2 -13  123.09   10.04
 -10   2  12  112.07    7.78
 -10  -2 -12  103.83    8.04
 -10  -2 -12  108.19    9.26
 -10   2  11   10.74    2.73
 -10  -2 -11    5.59    2.83
 -10   2  10  232.31   11.77
 -10  -2 -10  210.05   13.02
 -10   2   9  738.60   23.70
 -10  -2  -9  684.22   25.70
 -10   2   8 3068.47   68.33
 -10  -2  -8 2845.45   71.05
 -10   2   7  656.88   22.09
 -10  -2  -7  594.68   23.32
 -10   2   6 1070.88   30.73
 -10  -2  -6  984.32   32.03
 -10   2   5  107.18    8.00
 -10  -2  -5  116.39    9.15
 -10   2   4  139.51    9.18
 -10  -2  -4  129.85    9.78
 -10   2   3   10.28    2.94
 -10  -2  -3   11.81    3.28
 -10  -2  -2  530.44   21.24
 -10  -2  -1  710.52   25.48
 -10   2   0 4342.95   94.78
 -10   2  -1  598.22   21.39
 -10   2  -1  593.76   22.28
 -10   2  -2  627.00   22.28
 -10   2  -2  652.56   23.51
 -10   2  -3   10.37    2.96
 -10   2  -3    8.77    2.96
 -10   2  -4  115.69    8.68
 -10   2  -4  121.60    9.27
 -10   2  -5  142.06    9.69
 -10   2  -5  141.53   10.06
 -10   2  -6  993.34   31.12
 -10   2  -6 1044.82   32.35
 -10   2  -7  654.11   23.60
 -10   2  -7  674.33   24.64
 -10   2  -8 2635.36   65.99
 -10   2  -8 2989.15   69.02
 -10   2  -9  706.51   25.21
 -10   2  -9  799.75   27.45
 -10   2 -10  201.64   12.02
 -10   2 -10  236.26   13.61
 -10   2 -11    7.92    2.61
 -10   2 -11    8.42    2.96
 -10   2 -12   92.89    7.83
 -10  -2  12  118.18    7.93
 -10   2 -12  111.84    9.40
 -10  -2  13  135.29    8.38
 -10   2 -13  123.27    9.99
 -10  -2  14  880.68   24.72
 -10   2 -14  795.37   28.23
 -10  -2  15  461.93   16.75
 -10   2 -15  432.96   20.08
  10   2  16 1832.54   50.83
 -10   2 -16 1791.29   50.47
  10   2  17  434.95   19.85
 -10   2 -17  398.46   19.30
 -10   2 -18   47.95    6.63
 -10   2 -19   31.96    5.48
 -10   2 -20   44.64    6.15
 -10   2 -21  111.47    9.39
 -10   2 -22  529.19   21.73
 -10   2 -23  238.68   13.48
 -10   2 -24  803.36   26.88
 -10   2 -25  150.16    9.80
 -10  -3 -24   60.43    6.79
 -10  -3 -23    6.93    2.77
 -10  -3 -22   28.44    4.93
 -10  -3 -21   13.23    3.87
 -10  -3 -20    4.84    2.44
 -10  -3 -19    8.34    2.99
 -10  -3 -18   13.07    3.97
 -10  -3 -17   15.73    3.99
 -10  -3 -16   46.69    6.40
 -10  -3 -15   18.69    4.44
 -10   3  14   83.20    6.49
 -10  -3 -14   65.04    6.19
 -10  -3 -14   83.56    8.31
 -10  -3 -13    4.03    2.21
 -10   3  13    7.03    2.46
 -10  -3 -13    6.24    2.78
 -10   3  12    1.85    1.82
 -10  -3 -12    4.99    2.48
 -10   3  11   29.86    4.29
 -10  -3 -11   27.98    4.92
 -10   3  10   40.83    4.93
 -10  -3 -10   46.56    6.17
 -10   3   9   34.61    4.67
 -10  -3  -9   33.25    5.20
 -10   3   8   71.46    6.50
 -10  -3  -8   66.72    7.09
 -10   3   7   52.50    5.64
 -10  -3  -7   38.21    5.46
 -10   3   6   60.60    6.01
 -10  -3  -6   49.43    6.16
 -10   3   5   29.26    4.30
 -10  -3  -5   23.10    4.49
 -10   3   4   11.40    2.97
 -10  -3  -4    7.48    2.92
 -10   3   3  228.62   11.99
 -10  -3  -3  230.44   13.14
 -10  -3  -2   71.84    7.24
 -10  -3  -1   41.94    5.55
 -10   3   0   34.00    4.76
 -10   3  -1   35.02    4.72
 -10   3  -1   32.30    4.75
 -10   3  -2   61.63    6.16
 -10   3  -2   66.40    6.69
 -10   3  -3  227.63   12.33
 -10   3  -3  253.72   13.37
 -10   3  -4    7.23    2.70
 -10   3  -4   10.15    3.18
 -10   3  -5   20.24    3.98
 -10   3  -5   18.16    3.90
 -10   3  -6   58.08    6.36
 -10   3  -6   59.98    6.60
 -10   3  -7   37.16    5.20
 -10   3  -7   36.52    5.34
 -10   3  -8   51.41    6.13
 -10   3  -8   62.60    6.80
 -10   3  -9   28.32    4.71
 -10   3  -9   32.04    5.23
 -10   3 -10   51.05    6.06
 -10   3 -10   53.80    6.52
 -10   3 -11   27.34    4.54
 -10   3 -11   38.35    5.56
 -10   3 -12    3.21    2.10
 -10   3 -12    4.21    2.72
 -10  -3  13   11.43    2.85
 -10   3 -13   12.17    3.21
 -10   3 -13   11.92    3.58
 -10  -3  14  103.19    7.31
 -10   3 -14   98.96    8.85
 -10  -3  15   20.11    3.53
 -10   3 -15   20.33    4.42
 -10   3 -16   40.07    5.91
  10   3  16   34.82    5.82
 -10   3 -17   13.91    3.84
  10   3  17   13.10    3.98
 -10   3 -18   16.60    4.05
  10   3  18   13.78    3.96
 -10   3 -19    5.91    2.82
  10   3  19    3.70    2.42
 -10   3 -20    5.77    2.55
 -10   3 -21    7.72    2.99
 -10   3 -22   23.33    4.37
 -10   3 -23    5.41    2.37
 -10   3 -24   61.69    6.42
 -10  -4 -24  537.36   20.66
 -10  -4 -23  151.92   10.49
 -10  -4 -22  391.62   17.96
 -10  -4 -21  261.91   14.56
 -10  -4 -20    8.45    3.03
 -10  -4 -19   96.03    8.92
 -10  -4 -18  137.08   10.62
 -10  -4 -17  423.86   19.60
 -10  -4 -16  949.15   32.08
 -10  -4 -15  497.61   21.43
 -10   4  14  740.24   22.59
 -10  -4 -14  784.30   27.90
 -10   4  13  474.73   17.35
 -10  -4 -13  517.30   21.52
 -10   4  12   52.26    5.39
 -10  -4 -12   51.40    6.45
 -10   4  11  179.65   10.34
 -10  -4 -11  175.40   11.83
 -10   4  10  354.51   15.19
 -10  -4 -10  332.94   16.76
 -10   4   9  945.05   28.43
 -10  -4  -9  895.18   30.39
 -10   4   8 1805.35   45.32
 -10  -4  -8 1665.45   47.06
 -10   4   7  535.88   19.79
 -10  -4  -7  498.64   20.90
 -10   4   6 1127.92   32.33
 -10  -4  -6 1044.20   33.74
 -10   4   5  343.53   15.21
 -10  -4  -5  317.41   16.05
 -10   4   4   22.12    3.81
 -10  -4  -4   23.30    4.35
 -10   4   3  438.28   17.66
 -10  -4  -3  416.39   18.60
 -10  -4  -2  570.70   22.29
 -10   4   0 2162.12   53.56
 -10   4  -1  550.21   20.66
 -10   4  -2  575.10   21.45
 -10   4  -2  619.07   22.19
 -10   4  -3  380.15   16.94
 -10   4  -3  438.00   18.05
 -10   4  -4   20.23    3.82
 -10   4  -4   24.31    4.16
 -10   4  -5  379.73   17.07
 -10   4  -5  417.75   17.85
 -10   4  -6  963.81   31.16
 -10   4  -6 1077.77   32.41
 -10   4  -7  532.41   21.26
 -10   4  -7  594.83   22.20
 -10   4  -8 1651.51   46.37
 -10   4  -8 1870.53   47.94
 -10   4  -9  876.42   29.88
 -10   4  -9 1043.20   31.77
 -10   4 -10  295.38   15.28
 -10   4 -10  370.49   17.02
 -10   4 -11  164.92   10.99
 -10   4 -11  200.58   12.31
 -10   4 -12   46.85    5.74
 -10   4 -12   64.85    6.99
 -10   4 -13  391.10   16.99
 -10   4 -13  551.84   21.45
 -10   4 -14  547.36   20.35
 -10   4 -14  834.06   27.12
 -10   4 -15  469.44   20.38
 -10   4 -16 1075.51   34.35
  10   4  16 1099.44   36.19
 -10   4 -17  468.76   20.35
  10   4  17  487.71   21.59
 -10   4 -18  117.74    9.44
  10   4  18  124.73   10.02
 -10   4 -19  105.59    8.90
  10   4  19  100.99    8.83
 -10   4 -20    7.08    2.76
  10   4  20    6.50    2.96
 -10   4 -21  271.79   14.21
 -10   4 -22  377.25   16.76
 -10   4 -23  159.67   10.09
 -10   4 -24  519.01   19.19
 -10  -5 -23    6.66    2.72
 -10  -5 -22   19.73    3.94
 -10  -5 -21   30.54    4.86
 -10  -5 -20    6.31    2.48
 -10  -5 -19   19.79    4.12
 -10  -5 -18    5.91    3.05
 -10  -5 -17    7.73    2.93
 -10  -5 -16   38.68    5.68
 -10  -5 -15    8.91    3.13
 -10  -5 -14   42.09    5.85
 -10   5  14   50.82    4.92
 -10   5  13    7.95    2.35
 -10  -5 -13   15.98    3.76
 -10   5  12    7.23    2.27
 -10  -5 -12    7.72    2.76
 -10  -5 -11   21.85    4.54
 -10   5  11   24.65    3.83
 -10  -5 -10   28.97    4.99
 -10   5  10   30.35    4.26
 -10  -5  -9   33.94    5.32
 -10   5   9   38.13    4.96
 -10  -5  -8   26.06    4.44
 -10   5   8   38.95    5.13
 -10  -5  -7   31.42    5.10
 -10   5   7   33.99    4.78
 -10   5   6    9.43    2.92
 -10  -5  -6   13.68    3.64
 -10   5   5    3.03    2.17
 -10  -5  -5    5.04    2.52
 -10  -5  -4   53.90    6.38
 -10   5   4   45.86    5.48
 -10   5   3    8.96    3.02
 -10  -5  -3    8.54    3.08
 -10   5   0    5.29    2.73
 -10   5  -1   14.72    3.59
 -10   5  -2   84.18    7.44
 -10   5  -3    9.98    3.07
 -10   5  -3   11.56    2.95
 -10   5  -4   52.82    5.83
 -10   5  -4   40.54    5.32
 -10   5  -5    1.96    2.12
 -10   5  -5    3.29    2.22
 -10   5  -6    9.43    3.21
 -10   5  -6   16.63    3.54
 -10   5  -7   30.86    4.68
 -10   5  -7   29.55    4.83
 -10   5  -8   47.89    5.74
 -10   5  -8   48.03    6.05
 -10   5  -9   34.21    5.06
 -10   5  -9   28.30    4.84
 -10   5 -10   34.53    5.04
 -10   5 -10   29.93    4.77
 -10   5 -11   29.31    4.84
 -10   5 -11   25.90    4.32
 -10   5 -12    9.12    2.79
 -10   5 -12   10.04    3.20
 -10   5 -13   16.14    3.67
 -10   5 -13    6.46    2.29
 -10   5 -14   67.55    7.02
 -10   5 -14   45.77    5.09
 -10   5 -15    4.18    2.67
  10   5  15    2.25    2.06
  10   5  15    4.10    3.07
 -10   5 -16   49.71    6.15
  10   5  16   57.40    7.36
 -10   5 -17   10.71    3.28
  10   5  17   11.41    3.85
 -10   5 -18    4.05    2.49
  10   5  18    6.51    3.19
 -10   5 -19   15.81    3.61
  10   5  19   16.45    4.01
 -10   5 -20    7.07    2.51
  10   5  20    3.83    2.60
 -10   5 -21   32.59    4.74
  10   5  21   29.88    4.57
 -10   5 -22   19.72    3.66
 -10   5 -23    5.34    2.23
 -10  -6 -21  516.22   19.93
 -10  -6 -20  112.98    8.77
 -10  -6 -19   84.78    7.75
 -10  -6 -18  161.67   10.78
 -10  -6 -17  485.23   20.12
 -10  -6 -16  512.03   20.85
 -10  -6 -15  325.81   16.07
 -10  -6 -14  595.31   22.73
 -10   6  14  559.64   18.72
 -10  -6 -13  493.84   20.28
 -10   6  13  454.90   16.81
 -10  -6 -12   31.87    5.12
 -10   6  12   29.66    3.94
 -10  -6 -11  297.12   15.21
 -10   6  11  277.88   12.87
 -10  -6 -10  391.89   17.75
 -10   6  10  366.81   15.21
 -10  -6  -9  919.28   30.05
 -10   6   9  860.42   26.76
 -10  -6  -8  974.88   31.34
 -10   6   8  924.43   28.32
 -10  -6  -7  367.66   17.40
 -10   6   7  397.20   16.53
 -10  -6  -6  670.66   24.84
 -10   6   6  701.79   23.91
 -10  -6  -5  592.42   23.00
 -10   6   5  630.36   22.57
 -10  -6  -4  195.29   12.06
 -10   6   4  190.30   11.47
 -10   6   3  432.66   18.28
 -10   6   0 1037.62   32.01
 -10   6  -1  524.17   20.68
 -10   6  -2  436.52   18.55
 -10   6  -3  395.41   17.66
 -10   6  -4  199.17   11.04
 -10   6  -4  177.86   11.44
 -10   6  -5  633.68   22.00
 -10   6  -5  603.47   23.03
 -10   6  -6  649.99   22.32
 -10   6  -6  592.46   22.84
 -10   6  -7  474.45   18.47
 -10   6  -7  429.44   18.68
 -10   6  -8  995.44   29.52
 -10   6  -8  848.44   28.93
 -10   6  -9 1021.75   29.98
 -10   6  -9  832.98   28.65
 -10   6 -10  367.32   15.93
 -10   6 -10  288.00   14.64
 -10   6 -11  332.96   15.22
 -10   6 -11  276.99   14.20
 -10   6 -12   26.85    4.44
 -10   6 -12   21.96    3.89
 -10   6 -13  535.95   19.89
 -10   6 -13  386.72   16.80
 -10   6 -14  633.65   22.99
 -10   6 -15  373.75   16.86
  10   6  15  433.76   21.26
  10   6  15  394.70   18.03
 -10   6 -16  620.62   22.89
  10   6  16  693.30   27.28
 -10   6 -17  560.86   21.31
  10   6  17  609.72   24.72
 -10   6 -18  178.01   10.95
  10   6  18  204.59   13.06
 -10   6 -19   73.52    6.84
  10   6  19   79.03    7.87
 -10   6 -20  109.99    8.15
  10   6  20  110.85    8.84
 -10   6 -21  561.67   19.79
  10   6  21  514.98   19.86
 -10  -7 -18   12.80    3.26
 -10  -7 -17    8.96    2.85
 -10  -7 -16   37.36    5.02
 -10  -7 -15   15.56    3.36
 -10  -7 -14   15.95    3.51
 -10   7  13    8.83    2.20
 -10  -7 -13    2.34    2.16
 -10   7  12   40.22    4.50
 -10  -7 -12   38.03    5.26
 -10   7  11   20.83    3.43
 -10  -7 -11   22.59    4.05
 -10   7  10   18.94    3.35
 -10  -7 -10   16.38    3.61
 -10   7   9   38.22    4.67
 -10  -7  -9   41.85    5.57
 -10   7   8   32.63    4.52
 -10  -7  -8   34.08    4.99
 -10   7   7   45.15    5.22
 -10  -7  -7   47.51    5.91
 -10   7   6   11.01    2.92
 -10  -7  -6   15.04    3.66
 -10   7   5    2.24    1.86
 -10   7   4   19.57    3.72
 -10   7   3    3.18    2.23
 -10   7   0    1.62    1.95
 -10   7  -1    9.80    2.90
 -10   7  -2   34.48    4.74
 -10   7  -3    4.62    2.53
 -10   7  -4   14.01    3.42
 -10   7  -5   -0.57    1.81
 -10   7  -6   13.35    3.47
 -10   7  -6   15.69    3.22
 -10   7  -7   35.11    5.06
 -10   7  -7   37.34    4.73
 -10   7  -8   35.37    5.01
 -10   7  -8   41.73    4.87
 -10   7  -9   40.97    5.43
 -10   7  -9   48.32    5.30
 -10   7 -10   18.83    3.72
 -10   7 -10   20.93    3.64
 -10   7 -11   21.69    3.85
 -10   7 -11   27.12    4.07
 -10   7 -12   34.35    4.71
 -10   7 -12   57.01    5.84
 -10   7 -13   10.12    2.65
 -10   7 -13    6.86    2.56
  10   7  14   21.18    4.55
 -10   7 -14   20.35    3.55
 -10   7 -15   12.74    2.82
  10   7  15   14.50    3.82
  10   7  15    9.70    3.82
 -10   7 -16   34.92    4.54
  10   7  16   34.34    6.20
  10   7  16   32.76    4.99
 -10   7 -17   10.32    2.81
  10   7  17   10.80    3.92
  10   7  18   20.97    4.58
  10   7  19   29.22    5.09
  10   7  20   12.53    3.47
  10   7  21   27.19    4.34
 -10   8  13  494.55   17.38
 -10   8  12  368.58   14.77
 -10   8  11  277.83   12.79
 -10   8  10  341.88   14.62
 -10   8   9  666.88   22.40
 -10   8   8  269.27   13.07
 -10   8   7  250.54   12.78
 -10   8   6  444.40   17.93
 -10   8   5  486.57   18.97
 -10   8   4  290.82   14.14
 -10   8   3  328.89   15.24
 -10   8   0  214.59   12.07
 -10   8  -1  441.74   18.31
 -10   8  -2  373.84   16.63
 -10   8  -3  293.50   14.55
 -10   8  -4  316.71   15.25
 -10   8  -5  464.36   19.13
 -10   8  -6  384.24   17.29
 -10   8  -7  267.04   14.14
 -10   8  -8  248.46   13.55
 -10   8  -9  680.57   21.34
 -10   8  -9  630.23   23.50
 -10   8 -10  390.90   14.94
 -10   8 -10  334.11   16.01
 -10   8 -11  281.79   12.35
 -10   8 -11  241.24   13.17
 -10   8 -12  322.47   14.95
  10   8  13  826.90   30.77
  10   8  13  759.10   27.45
  10   8  14  558.86   25.24
  10   8  14  512.79   22.30
  10   8  15  287.48   17.04
  10   8  15  255.69   14.45
  10   8  16  172.44   11.11
  10   8  16  190.49   13.39
  10   8  17  489.05   19.25
  10   8  17  576.79   23.75
  10   8  18  223.51   13.70
  10   8  19  125.92    9.68
  10   8  20  245.10   13.07
 -10   9  12   31.85    4.07
 -10   9  11   17.98    3.30
 -10   9  10   26.29    3.93
 -10   9   9   19.57    3.51
 -10   9   8    3.86    1.91
 -10   9   7    5.00    2.03
 -10   9   6    2.63    1.99
 -10   9   5   13.10    3.24
 -10   9   4    3.40    1.89
 -10   9   3    3.44    2.15
 -10   9   0   48.76    5.66
 -10   9  -1   21.02    3.73
 -10   9  -2   21.39    3.84
 -10   9  -3    3.59    2.02
 -10   9  -4    7.46    2.52
 -10   9  -5   11.44    3.12
 -10   9  -6    5.12    2.35
 -10   9  -7    2.60    2.24
 -10   9  -8    4.62    2.14
 -10   9  -9   22.35    4.18
 -10   9 -10   27.78    4.46
 -10   9 -11   23.61    4.25
  10   9  11   50.52    7.75
 -10   9 -12   30.57    4.55
  10   9  12   45.97    7.50
  10   9  12   57.67    7.49
 -10   9 -13    3.92    2.04
  10   9  13    9.88    3.90
  10   9  13    9.91    4.18
  10   9  14    8.46    3.55
  10   9  14   12.32    4.47
  10   9  15    4.40    2.75
  10   9  15    3.81    3.60
  10   9  16    1.37    2.17
  10   9  16    0.77    2.87
  10   9  17   30.94    4.63
  10   9  17   42.62    6.39
  10   9  18   28.61    5.20
  10   9  19   21.06    4.33
 -10  10  12  555.71   18.38
 -10  10  11  192.31    9.89
 -10  10  10  212.46   10.87
 -10  10   9  281.86   13.07
 -10  10   8   15.34    3.21
 -10  10   7  162.86    9.90
 -10  10   6  320.82   14.64
 -10  10   5  313.28   14.66
 -10  10   4  630.15   22.56
 -10  10   3  351.97   15.96
 -10  10   0   37.80    5.10
 -10  10  -1  262.95   13.58
 -10  10  -2  309.23   14.93
 -10  10  -3  327.47   15.56
 -10  10  -4  561.44   21.46
 -10  10  -5  322.62   15.51
 -10  10  -6  300.91   14.90
 -10  10  -7  163.16   10.64
 -10  10  -8   14.44    3.42
 -10  10  -9  249.68   13.33
 -10  10 -10  207.40   12.03
  10  10  10  362.27   19.14
 -10  10 -11  163.46   10.25
  10  10  11  294.40   16.92
  10  10  12  914.95   31.73
  10  10  12  884.59   30.13
  10  10  13  528.17   23.95
  10  10  13  513.15   22.62
  10  10  14  290.68   16.77
  10  10  14  272.44   15.26
  10  10  15  167.76   11.27
  10  10  15  179.02   12.91
  10  10  16   16.93    3.95
  10  10  16   22.87    5.11
  10  10  17  450.66   20.06
  10  10  18  358.20   16.85
 -10  11  10    3.43    1.87
 -10  11   9    0.73    1.47
 -10  11   8    5.73    2.26
 -10  11   7    6.02    2.24
 -10  11   6    5.76    2.31
 -10  11   5    3.57    2.15
 -10  11   4    4.92    2.41
 -10  11   3   18.76    3.72
 -10  11   0   22.52    4.07
 -10  11  -1    4.97    2.35
 -10  11  -2    2.78    2.03
 -10  11  -3   16.24    3.64
 -10  11  -4    7.31    2.69
 -10  11  -5    2.24    1.93
 -10  11  -6    3.89    2.20
 -10  11  -7    6.24    2.50
  10  11   7   10.83    4.26
 -10  11  -8    3.60    2.17
  10  11   8    8.65    4.26
 -10  11  -9    2.66    1.90
  10  11   9    2.27    3.11
  10  11   9    1.42    3.08
 -10  11 -10    2.04    1.96
  10  11  10    7.42    3.57
  10  11  10    3.61    3.45
 -10  11 -11   10.60    2.80
  10  11  11   11.67    4.14
  10  11  11   20.04    5.17
  10  11  12   57.00    7.31
  10  11  13    2.11    2.47
  10  11  14   11.88    3.74
  10  11  14   15.27    4.50
  10  11  15   19.07    4.06
  10  11  15   21.06    4.78
  10  11  16    2.17    2.69
 -10  12   7   74.37    6.24
 -10  12   6  187.75   10.29
 -10  12   5  194.29   10.67
 -10  12   4  880.32   27.07
 -10  12   3  198.88   11.00
 -10  12   0   44.59    5.19
 -10  12  -1   92.68    7.42
 -10  12  -2  166.78   10.18
 -10  12  -3  169.97   10.49
  10  12   3  318.99   17.17
 -10  12  -4  786.56   27.64
  10  12   4 1478.71   40.07
 -10  12  -5  236.07   12.79
  10  12   5  424.56   19.97
  10  12   6  319.53   17.25
  10  12   6  322.08   17.79
  10  12   7  113.23   10.20
  10  12   7  113.48   10.44
  10  12   8   62.65    7.78
  10  12   8   69.80    8.25
  10  12   9  221.97   14.26
  10  12   9  224.00   14.54
  10  12  10  325.96   17.32
  10  12  10  331.07   17.65
  10  12  11  234.40   14.38
  10  12  11  232.54   14.23
  10  12  12 1081.84   35.00
  10  12  12 1157.33   36.18
  10  12  13  283.88   15.12
  10  12  13  308.47   16.06
  10  13   1   12.96    3.89
  10  13   2    7.45    3.88
  10  13   2    5.25    3.18
  10  13   3    6.11    3.64
  10  13   3    5.07    3.05
  10  13   4    1.05    2.77
  10  13   4    1.62    2.50
  10  13   5    3.23    2.95
  10  13   6   25.91    5.05
  10  13   7    9.14    3.83
  10  13   7    7.91    3.48
  10  13   8   17.65    4.46
  10  13   8   13.66    4.04
  10  13   9    8.07    3.48
  10  13   9    4.42    3.12
  10  13  10    2.85    2.74
  10  13  10    5.14    3.03
  10  13  11   22.61    4.25
  10  13  11   18.88    4.29
  10  14  -2  242.70   13.77
  10  14  -1   34.85    5.55
  10  14   0   88.92    8.55
  10  14   1   31.61    5.44
  10  14   2  236.09   14.06
  10  14   3  261.19   14.82
  10  14   4 1028.80   33.43
  10  14   5  170.53   11.70
  10  14   6   79.76    7.97
 -11   0   0    2.04    2.05
 -11   0  -1   26.68    4.48
 -11   0  -2   67.16    6.79
 -11   0  -2   59.00    6.65
 -11   0   3    1.63    2.35
 -11   0  -3    1.74    2.17
 -11   0  -3    2.53    2.15
 -11   0   4   94.76    7.74
 -11   0  -4   89.33    7.87
 -11   0  -4   80.11    7.79
 -11   0   5   43.70    5.39
 -11   0  -5   44.97    5.63
 -11   0  -5   38.28    5.50
 -11   0   6   31.62    4.55
 -11   0  -6   31.87    4.87
 -11   0   7   15.19    3.45
 -11   0  -7   16.67    3.77
 -11   0  -7   14.08    3.89
 -11   0   8   89.75    7.55
 -11   0  -8   86.72    7.87
 -11   0  -8   71.81    7.54
 -11   0   9   31.62    4.61
 -11   0  -9   32.05    4.92
 -11   0  -9   36.54    5.41
 -11   0  10  539.34   19.57
 -11   0 -10  508.25   21.40
 -11   0  11   83.27    6.93
 -11   0 -11   73.56    7.02
 -11   0 -11   84.10    8.23
 -11   0  12    7.96    2.64
 -11   0 -12    7.41    2.54
 -11   0 -12    7.21    3.19
 -11   0  13   90.33    6.93
 -11   0 -13   85.66    8.35
 -11   0  14  183.71    9.90
 -11   0 -14  186.27   12.66
 -11   0 -15  110.49    9.70
 -11   0 -16   14.92    4.10
 -11   0 -17    1.20    2.30
 -11   0 -18  247.72   14.63
 -11   0 -19   24.40    4.82
 -11   0 -20    0.89    2.44
 -11   0 -21   14.89    3.72
 -11   0 -22   13.26    3.70
 -11   0 -23   74.02    7.14
 -11  -1 -23 1205.96   35.13
 -11  -1 -22  257.85   13.92
 -11  -1 -21  114.52    9.26
 -11  -1 -20   16.85    3.87
 -11  -1 -19    9.52    3.36
 -11  -1 -18   42.96    6.07
 -11  -1 -17  628.88   25.08
 -11  -1 -16  397.33   19.22
 -11  -1 -15 1453.43   43.23
 -11   1  14  352.73   14.33
 -11  -1 -14  347.88   17.64
 -11   1  13  103.48    7.37
 -11  -1 -13   81.08    7.08
 -11  -1 -13   95.82    8.94
 -11  -1 -12    7.76    2.66
 -11   1  12    9.98    2.77
 -11  -1 -12    9.04    3.28
 -11   1  11   15.86    3.21
 -11  -1 -11   14.27    3.34
 -11  -1 -11   13.39    3.89
 -11  -1 -10  139.03    9.84
 -11   1  10  141.63    9.17
 -11  -1 -10  130.36   10.21
 -11  -1  -9 1235.93   36.78
 -11   1   9 1303.99   35.49
 -11  -1  -9 1199.71   37.42
 -11  -1  -8  520.60   20.78
 -11   1   8  541.80   19.96
 -11  -1  -8  494.11   21.09
 -11  -1  -7 1613.04   43.91
 -11   1   7 1639.93   42.77
 -11  -1  -7 1535.16   44.41
 -11  -1  -6  256.03   13.67
 -11   1   6  256.15   13.11
 -11  -1  -6  241.63   13.94
 -11  -1  -5   76.44    7.29
 -11   1   5   75.15    6.91
 -11   1   4   69.35    6.73
 -11  -1  -4   63.03    6.88
 -11   1   3   17.23    3.83
 -11  -1  -3   15.41    3.72
 -11  -1  -2  111.30    9.14
 -11   1   0  893.35   28.76
 -11   1  -1 1897.49   49.32
 -11   1  -2   79.72    7.42
 -11   1  -3   12.53    3.43
 -11   1  -4   95.44    8.13
 -11  -1   5   76.57    6.96
 -11   1  -5   73.13    7.19
 -11  -1   6  248.76   12.73
 -11   1  -6  221.87   12.92
 -11  -1   7 1600.59   41.82
 -11   1  -7 1502.64   42.86
 -11  -1   8  579.58   20.78
 -11   1  -8  509.04   20.86
 -11  -1   9 1420.15   37.01
 -11   1  -9 1174.71   36.77
 -11  -1  10  151.98    9.57
 -11   1 -10  126.41    9.41
 -11  -1  11   29.16    4.29
 -11   1 -11   21.91    4.08
 -11  -1  12    6.96    2.57
 -11   1 -12    3.73    2.10
 -11   1 -13   70.01    6.66
 -11  -1  13   92.86    7.03
 -11  -1  14  415.03   16.00
 -11  -2 -22   35.06    5.21
 -11  -2 -21   28.49    4.83
 -11  -2 -20    7.51    3.15
 -11  -2 -19   30.84    5.25
 -11  -2 -18  273.08   15.33
 -11  -2 -17   31.45    5.28
 -11  -2 -16   34.23    5.52
 -11  -2 -15  119.10    9.93
 -11   2  14  115.10    7.71
 -11  -2 -14  112.76    9.67
 -11   2  13   63.93    5.83
 -11  -2 -13   45.18    5.45
 -11  -2 -13   63.79    7.27
 -11   2  12   44.07    4.97
 -11  -2 -12   34.47    4.93
 -11  -2 -12   34.37    5.42
 -11   2  11   69.08    6.30
 -11  -2 -11   64.74    6.56
 -11  -2 -11   71.68    7.50
 -11   2  10  312.42   14.21
 -11  -2 -10  299.17   14.80
 -11  -2 -10  290.97   15.58
 -11  -2  -9  118.36    9.10
 -11   2   9  139.21    9.17
 -11  -2  -9  127.35    9.91
 -11   2   8   78.27    6.97
 -11  -2  -8   78.03    7.76
 -11   2   7   22.74    3.96
 -11  -2  -7   19.94    4.27
 -11   2   6   45.05    5.32
 -11  -2  -6   33.84    5.19
 -11   2   5  183.19   10.79
 -11  -2  -5  154.46   10.89
 -11   2   4   35.98    4.85
 -11  -2  -4   36.20    5.27
 -11   2   3   61.09    6.34
 -11  -2  -3   63.41    6.83
 -11   2   0   49.75    5.87
 -11   2  -1  138.31    9.66
 -11   2  -2  190.10   11.51
 -11   2  -3   68.03    6.80
 -11   2  -3   69.04    7.08
 -11   2  -4   42.34    5.37
 -11   2  -4   37.60    5.30
 -11   2  -5  139.08    9.91
 -11   2  -5  143.53   10.38
 -11   2  -6   69.99    7.08
 -11   2  -6   70.16    7.24
 -11   2  -7   26.87    4.68
 -11   2  -7   36.92    5.49
 -11   2  -8   78.09    7.53
 -11   2  -8   72.04    7.40
 -11  -2   9  133.33    9.02
 -11   2  -9  115.44    9.29
 -11   2  -9  129.72   10.02
 -11  -2  10  374.13   15.56
 -11   2 -10  333.70   16.68
 -11   2 -11   57.48    6.33
 -11   2 -11   69.40    7.38
 -11   2 -12   40.52    5.23
 -11  -2  12   56.98    5.72
 -11   2 -12   46.77    6.22
 -11  -2  13   62.20    5.83
 -11   2 -13   66.92    7.35
 -11  -2  14  115.33    7.79
 -11   2 -14  129.40   10.18
 -11   2 -15  104.71    9.21
  11   2  16   22.83    4.65
 -11   2 -16   24.42    4.95
 -11   2 -17   27.02    4.94
 -11   2 -18  295.35   15.59
 -11   2 -19   16.04    3.86
 -11   2 -20    8.63    3.27
 -11   2 -21   28.06    4.64
 -11   2 -22   39.10    5.20
 -11   2 -23   91.91    7.54
 -11  -3 -22  280.29   14.09
 -11  -3 -21   95.26    8.17
 -11  -3 -20   36.14    5.24
 -11  -3 -19    4.36    2.71
 -11  -3 -18  198.25   12.54
 -11  -3 -17  474.24   20.67
 -11  -3 -16  302.53   16.00
 -11  -3 -15 1102.00   35.18
 -11  -3 -14  402.42   18.89
 -11   3  13  131.52    8.29
 -11  -3 -13  102.45    8.01
 -11  -3 -13  122.14    9.81
 -11   3  12   35.77    4.59
 -11  -3 -12   36.52    4.90
 -11  -3 -12   39.30    5.65
 -11  -3 -11   15.74    3.63
 -11   3  11   15.35    3.26
 -11  -3 -11   14.19    3.80
 -11   3  10  196.80   11.02
 -11  -3 -10  198.09   12.50
 -11   3   9  994.08   29.69
 -11  -3  -9  966.78   31.88
 -11   3   8  616.52   21.58
 -11  -3  -8  549.03   22.56
 -11   3   7 1482.36   39.76
 -11  -3  -7 1424.93   41.74
 -11   3   6  403.79   16.94
 -11  -3  -6  378.04   17.75
 -11   3   5   39.92    5.20
 -11  -3  -5   33.55    5.20
 -11   3   4    3.08    2.40
 -11  -3  -4    4.91    2.70
 -11   3   3   54.72    5.98
 -11  -3  -3   56.31    6.54
 -11   3   0  784.99   26.33
 -11   3  -1 1530.93   41.95
 -11   3  -2  404.18   17.64
 -11   3  -3   57.84    6.28
 -11   3  -3   57.86    6.48
 -11   3  -4    3.92    2.41
 -11   3  -4    6.30    2.65
 -11   3  -5   50.56    6.01
 -11   3  -5   43.34    5.73
 -11   3  -6  342.59   16.39
 -11   3  -6  353.09   16.70
 -11   3  -7 1375.95   40.60
 -11   3  -7 1549.10   42.39
 -11   3  -8  525.89   21.41
 -11   3  -8  594.69   22.84
 -11   3  -9  916.09   30.85
 -11   3  -9 1082.60   32.92
 -11   3 -10  176.20   11.35
 -11   3 -10  203.14   12.45
 -11   3 -11   22.45    4.18
 -11  -3  11   32.96    4.59
 -11   3 -11   24.30    4.72
 -11   3 -12   42.54    5.46
 -11  -3  12   59.61    5.80
 -11   3 -12   47.06    6.03
 -11  -3  13  165.35    9.52
 -11   3 -13  142.66   10.45
 -11  -3  14  429.30   16.28
 -11   3 -14  397.96   18.57
 -11   3 -15 1146.03   35.63
  11   3  16  331.89   16.73
 -11   3 -16  317.33   16.21
  11   3  17  529.39   21.30
 -11   3 -17  504.22   20.99
 -11   3 -18  210.78   12.60
 -11   3 -19    9.63    3.25
 -11   3 -20   34.34    4.86
 -11   3 -21   89.99    7.56
 -11   3 -22  260.94   12.89
 -11  -4 -21   13.11    3.33
 -11  -4 -20   30.56    4.80
 -11  -4 -19   76.72    7.46
 -11  -4 -18  126.16    9.59
 -11  -4 -17   15.56    3.63
 -11  -4 -16   25.02    4.58
 -11  -4 -15   99.38    8.64
 -11  -4 -14   48.15    6.14
 -11   4  13   14.94    2.92
 -11  -4 -13   17.37    3.89
 -11  -4 -13   13.02    3.23
 -11   4  12   15.71    3.03
 -11  -4 -12   16.23    3.71
 -11  -4 -12   12.97    3.22
 -11   4  11  133.97    8.71
 -11  -4 -11  132.30    9.99
 -11   4  10  241.69   12.34
 -11  -4 -10  242.26   13.86
 -11   4   9   41.32    5.11
 -11  -4  -9   46.02    5.95
 -11   4   8   35.85    4.91
 -11  -4  -8   35.78    5.31
 -11   4   7  109.64    8.34
 -11  -4  -7  106.84    8.95
 -11   4   6   46.98    5.65
 -11  -4  -6   49.08    6.14
 -11   4   5   60.95    6.29
 -11  -4  -5   59.49    6.72
 -11   4   4   26.39    4.26
 -11  -4  -4   27.51    4.65
 -11   4   3   54.55    5.99
 -11   4   0   34.68    5.00
 -11   4  -1   98.99    8.20
 -11   4  -2   88.70    7.87
 -11   4  -3   48.72    5.80
 -11   4  -4   30.11    4.78
 -11   4  -4   34.95    5.03
 -11   4  -5   52.45    6.15
 -11   4  -5   53.71    6.15
 -11   4  -6   53.00    6.29
 -11   4  -6   58.64    6.51
 -11   4  -7   87.63    8.02
 -11   4  -7  102.47    8.52
 -11   4  -8   27.10    4.75
 -11   4  -8   37.66    5.38
 -11   4  -9   36.83    5.37
 -11   4  -9   48.52    5.98
 -11   4 -10  221.02   12.84
 -11   4 -10  239.71   13.43
 -11   4 -11  109.18    8.68
 -11   4 -11  123.75    9.48
 -11   4 -12   23.97    4.24
 -11   4 -12   16.58    3.40
 -11  -4  13   32.82    4.39
 -11   4 -13   19.93    3.56
 -11   4 -13   25.58    4.43
 -11   4 -14   50.49    6.15
 -11   4 -15   93.48    8.20
  11   4  15   93.83    8.97
 -11   4 -16   31.91    4.91
  11   4  16   31.99    5.48
 -11   4 -17   17.08    3.71
  11   4  17   12.61    3.61
 -11   4 -18  136.73    9.57
  11   4  18  129.39    9.54
 -11   4 -19   89.82    7.71
 -11   4 -20   30.63    4.61
 -11   4 -21   13.25    3.15
 -11  -5 -20   56.28    6.00
 -11  -5 -19   26.33    4.38
 -11  -5 -18  248.54   13.24
 -11  -5 -17  436.70   18.48
 -11  -5 -16  245.39   13.40
 -11  -5 -15  724.06   25.58
 -11  -5 -14  428.18   18.58
 -11   5  13  141.95    8.25
 -11  -5 -13  140.61    9.26
 -11  -5 -13  151.89   10.47
 -11   5  12   21.80    3.49
 -11  -5 -12   25.34    4.71
 -11   5  11   26.93    3.81
 -11  -5 -11   26.92    4.76
 -11   5  10  299.58   13.48
 -11  -5 -10  321.97   15.87
 -11   5   9  537.45   19.54
 -11  -5  -9  539.85   21.66
 -11   5   8  297.93   14.02
 -11  -5  -8  276.74   14.77
 -11   5   7  980.07   29.85
 -11  -5  -7  911.00   30.57
 -11   5   6  720.60   24.60
 -11  -5  -6  687.74   25.39
 -11   5   5  181.28   11.02
 -11  -5  -5  178.67   11.68
 -11   5   4   12.18    3.21
 -11   5   3   88.44    7.62
 -11   5   0  323.49   15.29
 -11   5  -1  853.72   27.95
 -11   5  -2  450.94   18.90
 -11   5  -3  107.87    8.61
 -11   5  -4   13.51    3.42
 -11   5  -5  149.50   10.44
 -11   5  -5  162.56   10.41
 -11   5  -6  711.02   25.83
 -11   5  -6  760.57   25.57
 -11   5  -7  889.24   30.23
 -11   5  -7  985.54   30.22
 -11   5  -8  298.18   15.23
 -11   5  -8  321.22   15.23
 -11   5  -9  475.73   19.95
 -11   5  -9  607.91   21.84
 -11   5 -10  283.95   14.39
 -11   5 -10  377.70   16.55
 -11   5 -11   25.07    4.07
 -11   5 -11   30.00    4.77
 -11   5 -12   17.96    3.46
 -11   5 -12   29.16    4.67
 -11   5 -13  113.54    8.10
 -11   5 -13  156.91   10.23
 -11   5 -14  505.95   20.02
 -11   5 -15  792.65   26.72
  11   5  15  867.44   30.63
 -11   5 -16  242.67   12.98
  11   5  16  289.53   15.69
 -11   5 -17  487.39   19.21
  11   5  17  510.50   20.99
 -11   5 -18  250.11   12.86
  11   5  18  266.31   13.94
 -11   5 -19   37.38    4.90
  11   5  19   33.73    4.93
 -11   5 -20   59.33    5.80
 -11  -6 -19   55.33    5.81
 -11  -6 -18   48.19    5.33
 -11  -6 -17   48.59    5.55
 -11  -6 -16   66.76    6.64
 -11  -6 -15   90.32    7.72
 -11  -6 -14    0.19    2.29
 -11  -6 -13   25.27    4.41
 -11   6  13   22.01    3.32
 -11  -6 -12   51.93    5.90
 -11   6  12   47.63    4.86
 -11  -6 -11  153.41   10.33
 -11   6  11  153.19    8.92
 -11  -6 -10   36.60    5.17
 -11   6  10   28.23    4.08
 -11  -6  -9   34.80    4.99
 -11   6   9   30.21    4.15
 -11  -6  -8   43.65    5.53
 -11   6   8   43.23    4.95
 -11  -6  -7  172.25   11.11
 -11   6   7  162.44    9.80
 -11   6   6   11.33    3.13
 -11   6   5   49.49    5.51
 -11   6   4   33.10    4.73
 -11   6   3   65.05    6.52
 -11   6   0   44.30    5.59
 -11   6  -1  110.57    8.72
 -11   6  -2   19.69    3.96
 -11   6  -3   51.14    5.98
 -11   6  -4   48.94    5.80
 -11   6  -5   49.49    5.87
 -11   6  -6    9.53    3.07
 -11   6  -7  168.10   10.19
 -11   6  -7  137.98    9.70
 -11   6  -8   67.00    6.43
 -11   6  -8   58.90    6.22
 -11   6  -9   35.34    4.63
 -11   6  -9   23.63    4.11
 -11   6 -10   31.55    4.61
 -11   6 -10   23.24    4.14
 -11   6 -11  166.38   10.12
 -11   6 -11  123.42    8.86
 -11   6 -12   64.13    6.25
 -11   6 -12   51.87    5.63
 -11   6 -13   11.30    2.80
 -11   6 -13   21.58    3.79
 -11   6 -14    2.95    2.13
  11   6  14    5.09    2.70
  11   6  14    9.60    3.97
 -11   6 -15   96.85    7.76
  11   6  15  125.24   10.60
 -11   6 -16   63.01    6.12
  11   6  16   76.09    8.10
 -11   6 -17   61.56    5.90
  11   6  17   62.11    7.06
 -11   6 -18   54.98    5.41
  11   6  18   53.31    6.29
  11   6  19   76.51    7.04
 -11  -7 -15  300.75   13.70
 -11  -7 -14  427.44   17.09
 -11  -7 -13  239.11   12.38
 -11  -7 -12   69.30    6.62
 -11   7  12   64.53    5.56
 -11  -7 -11  171.03   10.46
 -11   7  11  162.36    9.10
 -11  -7 -10  410.78   17.34
 -11   7  10  410.76   15.88
 -11  -7  -9  298.49   14.47
 -11   7   9  285.33   13.07
 -11   7   8  118.45    8.10
 -11   7   7  410.63   16.57
 -11   7   6  573.95   20.55
 -11   7   5  324.22   14.57
 -11   7   4   53.12    5.63
 -11   7   3  212.01   11.54
 -11   7   0   64.81    6.33
 -11   7  -1  279.96   13.70
 -11   7  -2  442.67   17.93
 -11   7  -3  217.46   11.93
 -11   7  -4   54.31    5.88
 -11   7  -5  302.37   14.56
 -11   7  -6  541.43   20.79
 -11   7  -7  376.42   16.70
 -11   7  -8  118.68    8.84
 -11   7  -9  252.29   13.25
 -11   7 -10  454.07   16.80
 -11   7 -10  370.28   16.59
 -11   7 -11  184.69   10.15
 -11   7 -11  157.71    9.95
 -11   7 -12   81.83    6.58
 -11   7 -12   68.49    6.36
  11   7  13  341.09   18.81
  11   7  13  320.02   16.12
  11   7  14  644.53   26.55
  11   7  14  565.66   22.40
  11   7  15  418.89   20.23
  11   7  15  377.16   16.65
  11   7  16  111.59    9.69
  11   7  17  328.44   16.46
  11   7  18  264.41   13.95
 -11   8  12   36.04    4.03
 -11   8  11  102.31    7.02
 -11   8  10    3.89    1.75
 -11   8   9   55.05    5.35
 -11   8   8   50.09    5.25
 -11   8   7  159.82    9.55
 -11   8   6   15.58    3.19
 -11   8   5   49.76    5.45
 -11   8   4   55.52    5.77
 -11   8   3  101.56    7.81
 -11   8   0   57.01    5.96
 -11   8  -1  107.90    8.17
 -11   8  -2    6.55    2.51
 -11   8  -3  108.44    8.31
 -11   8  -4   58.64    6.09
 -11   8  -5   37.06    4.96
 -11   8  -6   19.06    3.70
 -11   8  -7  151.09    9.93
 -11   8  -8   50.84    5.76
 -11   8  -9   49.11    5.55
 -11   8 -10    5.16    2.10
 -11   8 -11   92.87    7.39
  11   8  12   61.91    8.42
  11   8  12   60.25    7.46
  11   8  13   33.85    6.43
  11   8  13   29.21    5.25
  11   8  14   35.24    6.30
  11   8  14   25.52    4.82
  11   8  15  122.58   10.51
  11   8  15  101.35    8.23
  11   8  16   84.01    8.40
  11   8  17   90.64    8.42
  11   8  18   25.01    4.61
 -11   9  11  250.94   11.21
 -11   9  10  326.04   13.44
 -11   9   9  125.22    8.01
 -11   9   8   40.37    4.69
 -11   9   7  139.55    8.82
 -11   9   6  410.93   16.43
 -11   9   5  402.04   16.35
 -11   9   4   94.59    7.42
 -11   9   3  343.34   15.01
 -11   9   0   27.90    4.26
 -11   9  -1  149.75    9.60
 -11   9  -2  436.74   17.61
 -11   9  -3  334.67   15.16
 -11   9  -4   88.32    7.44
 -11   9  -5  338.68   15.41
 -11   9  -6  401.18   17.04
 -11   9  -7  133.06    9.21
 -11   9  -8   21.72    3.93
 -11   9  -9  128.17    8.88
 -11   9 -10  290.04   14.16
  11   9  10  583.28   25.70
  11   9  11  461.62   22.55
  11   9  11  484.49   21.61
  11   9  12  193.46   14.10
  11   9  12  188.09   12.73
  11   9  13  493.19   23.09
  11   9  13  443.65   20.16
  11   9  14  655.11   26.22
  11   9  14  556.50   22.17
  11   9  15  102.28    8.15
  11   9  15  126.94   10.54
  11   9  16   84.77    8.43
 -11  10  10   39.21    4.21
 -11  10   9   26.48    3.69
 -11  10   8   17.06    3.09
 -11  10   7   62.03    5.74
 -11  10   6   42.72    4.81
 -11  10   5    9.01    2.58
 -11  10   4   21.93    3.57
 -11  10   3   55.47    5.58
 -11  10   0   36.96    4.77
 -11  10  -1   64.41    6.17
 -11  10  -2   21.16    3.71
 -11  10  -3   47.53    5.31
 -11  10  -4   26.54    4.16
 -11  10  -5    5.28    2.31
 -11  10  -6   31.37    4.43
 -11  10  -7   60.89    6.06
 -11  10  -8   16.44    3.49
  11  10   8   32.12    6.66
 -11  10  -9   22.41    3.80
 -11  10 -10   38.91    4.66
  11  10  10   74.62    8.59
 -11  10 -11   69.72    6.05
  11  10  11  133.93   11.02
  11  10  12   77.29    8.79
  11  10  12   68.45    7.94
  11  10  13    5.27    2.94
  11  10  13    6.77    3.68
  11  10  14  122.28   10.49
  11  10  15  101.82    9.24
 -11  11   9   25.59    3.43
 -11  11   8    5.63    1.88
 -11  11   7   44.48    4.66
 -11  11   6  208.62   10.44
 -11  11   5  450.54   16.70
 -11  11   4  172.99    9.70
 -11  11   3  594.24   20.28
 -11  11   0    3.28    1.86
 -11  11  -1   39.77    4.79
 -11  11  -2  333.55   14.49
 -11  11  -3  548.72   19.63
 -11  11  -4  175.65   10.12
 -11  11  -5  394.30   15.96
 -11  11  -6  196.09   10.97
  11  11   6  444.08   21.29
 -11  11  -7   38.29    4.55
  11  11   7   79.58    9.30
 -11  11  -8    3.65    1.64
  11  11   8    4.52    3.36
  11  11   8    2.58    3.63
 -11  11  -9   18.63    3.30
  11  11   9   33.89    6.46
  11  11   9   38.92    6.43
  11  11  10  323.95   17.38
  11  11  10  332.24   17.21
  11  11  11  605.13   24.47
  11  11  12  201.45   12.74
 -11  12   6   22.68    3.36
 -11  12   5    2.84    1.57
 -11  12   4   11.83    2.54
 -11  12   3   16.68    3.02
 -11  12   2   31.18    4.04
 -11  12   0    4.81    1.99
 -11  12  -1   19.92    3.31
  11  12   1   42.07    6.58
 -11  12  -2   27.11    3.94
  11  12   2   58.43    7.67
 -11  12  -3   15.99    3.08
  11  12   3   34.34    6.05
 -11  12  -4   13.52    2.94
  11  12   4   27.26    5.73
 -11  12  -5    1.56    1.45
  11  12   5    1.39    3.01
  11  12   5    4.21    3.36
  11  12   6   68.00    8.13
  11  12   6   63.80    8.13
  11  12   7  123.92   10.61
  11  12   7  119.67   10.59
  11  12   8   41.17    6.39
  11  12   8   42.62    6.68
  11  12   9   37.50    6.02
  11  12   9   31.53    5.76
  11  13  -1   11.91    4.03
  11  13   0   -0.75    3.38
  11  13   1   14.57    4.52
  11  13   2  158.26   12.00
  11  13   3  802.30   29.42
 -12   0   0  523.42   21.07
 -12   0  -1  174.07   11.49
 -12   0  -2  370.05   17.39
 -12   0   3   62.55    6.63
 -12   0  -3   60.67    6.68
 -12   0   4   80.40    7.47
 -12   0  -4   84.64    7.90
 -12   0   5   68.56    6.85
 -12   0  -5   73.04    7.41
 -12   0  -5   66.08    7.07
 -12   0   6  304.60   14.58
 -12   0  -6  279.96   14.87
 -12   0   7  303.70   14.41
 -12   0  -7  277.37   14.62
 -12   0  -7  264.60   14.52
 -12   0   8  756.66   24.64
 -12   0  -8  680.93   24.96
 -12   0  -8  702.70   25.67
 -12   0   9  129.99    8.90
 -12   0  -9  121.16    9.23
 -12   0  -9  120.87    9.58
 -12   0  10   98.67    7.55
 -12   0 -10   85.80    7.60
 -12   0 -10  111.73    9.13
 -12   0  11    3.23    1.77
 -12   0 -11    5.20    2.14
 -12   0 -11    0.22    2.22
 -12   0  12   50.13    5.27
 -12   0 -12   52.08    6.42
 -12   0  13   67.36    5.83
 -12   0 -13   57.03    5.71
 -12   0 -13   63.65    7.06
 -12   0 -14  257.12   14.31
 -12   0 -15  359.19   17.07
 -12   0 -16  622.94   23.61
 -12   0 -17   19.18    4.19
 -12   0 -18   69.71    6.91
 -12   0 -19   10.60    3.32
 -12   0 -20   17.77    3.78
 -12  -1 -20   40.31    5.12
 -12  -1 -19   68.42    6.74
 -12  -1 -18  108.37    8.66
 -12  -1 -17  533.56   21.26
 -12  -1 -16   19.10    4.02
 -12  -1 -15  122.01    9.58
 -12  -1 -14  214.10   12.92
 -12  -1 -13  192.42   10.86
 -12  -1 -13  254.61   13.98
 -12  -1 -12    4.93    2.47
 -12   1  12    6.82    2.48
 -12  -1 -12    7.61    3.03
 -12   1  11  250.62   12.19
 -12  -1 -11  222.78   12.34
 -12  -1 -11  242.30   13.83
 -12   1  10  219.25   11.54
 -12  -1 -10  201.10   11.83
 -12  -1 -10  201.63   12.54
 -12  -1  -9  678.51   24.46
 -12   1   9  696.68   23.26
 -12  -1  -9  639.09   24.47
 -12  -1  -8   15.80    3.50
 -12   1   8   12.69    3.19
 -12  -1  -8   14.08    3.54
 -12  -1  -7  184.48   11.69
 -12   1   7  171.57   10.54
 -12  -1  -7  149.70   10.68
 -12  -1  -6  292.10   15.03
 -12   1   6  276.45   13.76
 -12  -1  -5  463.01   19.50
 -12   1   5  422.80   17.77
 -12  -1  -5  399.21   18.39
 -12  -1  -4   48.23    5.98
 -12   1   4   39.88    5.22
 -12  -1  -3  387.97   17.54
 -12   1   3  344.22   16.21
 -12  -1  -2  223.77   13.13
 -12  -1  -1  259.44   14.04
 -12  -1   0   64.17    6.90
 -12   1   0   59.10    6.63
 -12   1  -1  255.12   13.90
 -12   1  -2  168.65   11.16
 -12  -1   3  381.54   17.06
 -12   1  -3  354.72   16.88
 -12  -1   4   38.81    5.31
 -12   1  -4   44.40    5.71
 -12  -1   5  483.32   19.31
 -12   1  -5  448.12   19.45
 -12  -1   6  280.18   14.06
 -12   1  -6  250.07   13.89
 -12  -1   7  191.47   11.31
 -12   1  -7  166.76   11.13
 -12  -1   8   24.17    4.15
 -12   1  -8   17.14    3.79
 -12  -1   9  697.01   23.42
 -12   1  -9  621.63   23.49
 -12   1 -10  213.43   12.30
 -12  -1  10  241.05   12.25
 -12   1 -11  202.15   11.84
 -12  -1  11  277.71   12.80
 -12  -1  12    8.57    2.67
 -12   1 -12    5.56    2.48
 -12   1 -13  198.98   11.05
 -12  -1  13  256.20   11.74
 -12  -2 -20    5.77    2.45
 -12  -2 -19    1.48    2.08
 -12  -2 -18   67.98    6.79
 -12  -2 -17   56.53    6.36
 -12  -2 -16  513.42   20.78
 -12  -2 -15  215.78   12.81
 -12  -2 -14  254.48   14.10
 -12  -2 -13   95.05    7.40
 -12  -2 -13  110.21    9.07
 -12   2  12   44.91    4.99
 -12  -2 -12   43.93    5.29
 -12  -2 -12   43.36    5.95
 -12  -2 -11   11.33    3.18
 -12   2  11    7.29    2.50
 -12  -2 -11   10.66    3.37
 -12   2  10  229.59   11.75
 -12  -2 -10  216.75   12.29
 -12  -2 -10  204.30   12.54
 -12   2   9  175.50   10.35
 -12  -2  -9  181.20   11.37
 -12  -2  -9  160.07   10.98
 -12   2   8  593.61   21.21
 -12  -2  -8  621.52   22.94
 -12   2   7  182.67   10.88
 -12  -2  -7  214.38   12.49
 -12  -2  -7  181.06   11.75
 -12  -2  -6  182.93   11.57
 -12   2   6  165.54   10.39
 -12  -2  -6  163.40   11.03
 -12  -2  -5   61.78    6.71
 -12   2   5   52.91    5.97
 -12  -2  -5   50.13    6.13
 -12  -2  -4    7.16    2.96
 -12   2   4    4.50    2.55
 -12  -2  -3   31.51    5.07
 -12   2   3   32.90    4.92
 -12  -2  -2  584.95   22.73
 -12   2   0 1028.25   31.91
 -12   2  -1  395.44   17.64
 -12   2  -2  546.35   21.44
 -12  -2   3   37.57    5.30
 -12   2  -3   28.03    4.77
 -12  -2   4   16.89    3.86
 -12   2  -4   13.49    3.70
 -12  -2   5   52.34    5.97
 -12   2  -5   50.28    6.16
 -12  -2   6  206.39   11.81
 -12   2  -6  175.18   11.45
 -12   2  -6  190.80   11.95
 -12   2  -7  157.45   10.81
 -12   2  -7  165.66   11.08
 -12   2  -8  516.29   21.39
 -12   2  -8  587.17   22.68
 -12   2  -9  175.08   11.17
 -12  -2   9  196.92   11.25
 -12   2  -9  181.80   11.66
 -12   2 -10  203.86   12.03
 -12  -2  10  250.00   12.52
 -12   2 -10  236.23   13.37
 -12  -2  11   13.06    3.16
 -12   2 -11    8.90    2.84
 -12   2 -11    8.18    3.19
 -12   2 -12   28.20    4.44
 -12  -2  12   45.99    5.11
 -12   2 -12   39.22    5.57
 -12   2 -13   89.92    7.19
 -12   2 -13  128.42    9.65
 -12   2 -14  288.52   14.89
 -12   2 -15  218.46   12.67
 -12   2 -16  484.94   19.73
 -12   2 -17   62.53    6.48
 -12   2 -18   69.30    6.63
 -12   2 -19    2.76    2.14
 -12   2 -20    9.86    2.87
 -12  -3 -19   72.32    6.62
 -12  -3 -18  102.35    8.10
 -12  -3 -17  375.10   16.74
 -12  -3 -16  110.12    8.67
 -12  -3 -15   51.77    6.21
 -12  -3 -14  123.89    9.44
 -12  -3 -13  177.80   10.30
 -12  -3 -13  206.96   12.33
 -12   3  12   64.57    5.66
 -12  -3 -12   65.45    6.39
 -12  -3 -12   70.83    7.27
 -12   3  11  107.90    7.75
 -12  -3 -11   90.38    7.67
 -12  -3 -11  100.12    8.47
 -12   3  10  102.40    7.68
 -12  -3 -10   99.64    8.16
 -12  -3 -10   95.58    8.26
 -12   3   9  332.90   14.81
 -12  -3  -9  357.53   16.23
 -12  -3  -9  323.54   16.02
 -12   3   8  277.02   13.49
 -12  -3  -8  307.74   15.04
 -12  -3  -8  278.00   14.69
 -12   3   7  108.13    8.15
 -12  -3  -7  109.83    8.89
 -12  -3  -7   99.75    8.51
 -12   3   6   82.87    7.22
 -12  -3  -6   86.33    7.83
 -12   3   5  159.25   10.24
 -12   3   4  408.09   17.40
 -12   3   3  235.38   12.76
 -12   3   0  242.50   13.29
 -12   3  -1  182.84   11.42
 -12   3  -2  108.75    8.77
 -12   3  -3  222.86   12.79
 -12   3  -4  379.41   17.22
 -12   3  -5  191.95   11.78
 -12   3  -6   73.54    7.24
 -12   3  -6   72.30    7.19
 -12   3  -7   78.63    7.43
 -12  -3   7   99.39    8.00
 -12   3  -7   82.04    7.68
 -12   3  -8  258.90   14.12
 -12   3  -8  299.49   15.11
 -12   3  -9  356.38   16.67
 -12   3  -9  372.90   17.21
 -12   3 -10   82.25    7.54
 -12  -3  10   96.41    7.60
 -12   3 -10   80.39    7.50
 -12   3 -11  102.21    8.22
 -12   3 -11  118.57    9.25
 -12   3 -12   73.21    6.53
 -12   3 -12   90.10    8.03
 -12   3 -13  140.41    8.70
 -12   3 -13  202.94   11.89
 -12   3 -14  104.67    8.45
  12   3  15   52.65    6.37
 -12   3 -15   49.23    5.86
 -12   3 -16  113.54    8.61
 -12   3 -17  348.76   15.57
 -12   3 -18  116.74    8.37
 -12   3 -19   51.59    5.40
 -12  -4 -18  113.93    8.31
 -12  -4 -17   94.17    7.70
 -12  -4 -16  338.34   15.51
 -12  -4 -15  124.07    9.06
 -12  -4 -14  152.35   10.14
 -12  -4 -13   86.37    7.69
 -12  -4 -12   31.82    4.62
 -12   4  12   33.26    3.94
 -12  -4 -12   31.33    4.88
 -12  -4 -11   18.55    3.69
 -12   4  11   14.20    2.82
 -12  -4 -11   17.45    3.96
 -12  -4 -10  222.85   12.29
 -12   4  10  216.88   11.02
 -12  -4 -10  219.76   12.57
 -12   4   9  121.76    8.41
 -12  -4  -9  140.91    9.71
 -12  -4  -9  114.54    9.04
 -12   4   8  398.95   16.55
 -12  -4  -8  385.71   17.39
 -12   4   7  200.76   11.32
 -12  -4  -7  196.95   11.96
 -12   4   6  312.28   14.64
 -12   4   5   75.14    6.91
 -12   4   4   25.83    4.46
 -12   4   3  128.39    9.22
 -12   4   0  628.28   23.01
 -12   4  -1  264.98   13.79
 -12   4  -2  411.92   17.91
 -12   4  -3  126.79    9.42
 -12   4  -4   29.98    4.81
 -12   4  -5   72.88    7.15
 -12   4  -6  251.11   13.68
 -12   4  -7  207.58   12.40
 -12   4  -7  229.70   12.66
 -12   4  -8  388.05   17.62
 -12   4  -8  432.06   18.01
 -12   4  -9  113.52    8.80
 -12   4  -9  114.22    8.82
 -12  -4  10  283.88   13.12
 -12   4 -10  250.39   13.24
 -12  -4  11   22.65    3.79
 -12   4 -11   15.45    3.31
 -12   4 -11   27.12    4.37
 -12  -4  12   40.24    4.80
 -12   4 -12   30.90    4.18
 -12   4 -12   35.83    4.99
 -12   4 -13  107.71    8.33
 -12   4 -14  171.96   10.58
  12   4  14  184.83   12.13
 -12   4 -15  113.56    8.50
  12   4  15  136.26   10.02
 -12   4 -16  338.74   15.11
  12   4  16  353.70   16.22
 -12   4 -17   97.41    7.52
  12   4  17  104.79    8.10
 -12   4 -18  125.94    8.36
 -12  -5 -17   92.82    7.22
 -12  -5 -16  259.90   12.75
 -12  -5 -15   62.96    6.22
 -12  -5 -14   49.13    5.58
 -12  -5 -13   61.21    6.19
 -12   5  12  220.37   10.42
 -12  -5 -12  244.40   12.24
 -12  -5 -12  245.90   12.87
 -12  -5 -11  149.86    9.54
 -12   5  11  130.21    7.95
 -12  -5 -11  127.86    9.20
 -12   5  10   61.07    5.48
 -12  -5 -10   65.69    6.51
 -12   5   9  116.82    7.80
 -12  -5  -9  128.00    9.27
 -12   5   8  371.43   15.19
 -12   5   7   96.94    7.41
 -12   5   6   76.10    6.72
 -12   5   5  116.90    8.61
 -12   5   4  547.14   20.61
 -12   5   3  159.95   10.37
 -12   5   0  595.49   22.22
 -12   5  -1  201.78   11.91
 -12   5  -2   63.70    6.64
 -12   5  -3  170.27   11.00
 -12   5  -4  528.94   20.80
 -12   5  -5  117.38    9.01
 -12   5  -6   66.76    6.72
 -12   5  -7   97.45    7.97
 -12   5  -8  327.46   15.03
 -12   5  -9  112.21    8.33
 -12   5  -9  147.05    9.50
 -12   5 -10   54.78    5.70
 -12   5 -10   65.80    6.32
 -12   5 -11  136.92    9.12
 -12   5 -11  176.21   10.51
 -12  -5  12  270.34   12.07
 -12   5 -12  255.34   12.59
 -12   5 -13   80.38    6.85
  12   5  14   57.34    7.10
 -12   5 -14   53.36    5.57
  12   5  15   93.78    8.43
 -12   5 -15   67.37    6.24
  12   5  16  293.01   14.49
 -12   5 -16  254.99   12.31
 -12   5 -17   94.04    6.97
 -12  -6 -15  111.28    7.82
 -12  -6 -14  185.12   10.32
 -12  -6 -13  130.84    8.66
 -12  -6 -12   99.34    7.44
 -12  -6 -12   88.31    7.25
 -12   6  11   75.30    5.84
 -12   6  10  200.66   10.12
 -12   6   9  111.40    7.51
 -12   6   8  201.01   10.51
 -12   6   7  108.80    7.58
 -12   6   6  225.66   11.42
 -12   6   5  106.09    7.70
 -12   6   4  134.22    8.87
 -12   6   3  105.28    7.82
 -12   6   0  260.81   13.04
 -12   6  -1  110.05    8.20
 -12   6  -2  165.67   10.21
 -12   6  -3  115.34    8.49
 -12   6  -4  119.36    8.61
 -12   6  -5   97.49    7.76
 -12   6  -6  183.89   10.80
 -12   6  -7  127.91    8.88
 -12   6  -8  169.04   10.34
 -12   6  -9  107.73    8.02
 -12   6 -10  171.91   10.07
 -12   6 -11   63.52    5.91
 -12   6 -12   59.53    5.61
 -12   6 -12  101.26    7.28
 -12   6 -13  141.37    8.72
  12   6  13  178.21   12.68
 -12   6 -14  211.04   10.79
  12   6  14  281.77   15.48
 -12   6 -15  111.37    7.50
  12   6  15  131.72   10.06
  12   6  16  237.96   13.11
 -12  -7 -12  319.22   13.76
 -12   7  11   64.03    5.30
 -12   7  10    9.81    2.52
 -12   7   9   82.74    6.30
 -12   7   8  403.60   15.50
 -12   7   7   72.47    6.12
 -12   7   6   19.17    3.47
 -12   7   5   49.15    5.20
 -12   7   4  533.50   19.30
 -12   7   3  105.05    7.76
 -12   7   0  537.73   19.70
 -12   7  -1  106.96    7.90
 -12   7  -2    8.38    2.63
 -12   7  -3  119.26    8.45
 -12   7  -4  472.04   18.40
 -12   7  -5   52.37    5.60
 -12   7  -6   28.99    4.35
 -12   7  -7   70.35    6.49
 -12   7  -8  362.36   15.61
 -12   7  -9   81.50    6.81
 -12   7 -10    9.85    2.74
 -12   7 -11   65.82    5.92
  12   7  12  496.56   22.15
  12   7  12  426.30   18.18
  12   7  13   51.67    7.21
  12   7  13   42.47    5.54
  12   7  14   71.17    7.94
  12   7  15  123.47    9.79
 -12   8  10  165.74    8.66
 -12   8   9   92.43    6.51
 -12   8   8  115.08    7.46
 -12   8   7   95.22    6.88
 -12   8   6  198.42   10.31
 -12   8   5   90.20    6.84
 -12   8   4  194.54   10.40
 -12   8   3   89.11    6.89
 -12   8   0  116.95    8.13
 -12   8  -1   67.30    6.17
 -12   8  -2   96.95    7.43
 -12   8  -3   94.03    7.35
 -12   8  -4  167.32    9.93
 -12   8  -5   94.45    7.35
 -12   8  -6  161.87    9.75
 -12   8  -7   99.21    7.51
 -12   8  -8  112.50    8.01
 -12   8  -9   84.28    6.81
 -12   8 -10  147.12    8.88
  12   8  11  130.11   11.52
  12   8  11  113.80    9.73
  12   8  12  176.00   13.07
  12   8  12  142.66   10.52
  12   8  13  179.57   12.80
  12   8  14  196.83   12.86
 -12   9  10   27.08    3.30
 -12   9   9   39.57    4.20
 -12   9   8  289.84   12.13
 -12   9   7   85.86    6.30
 -12   9   6   21.54    3.27
 -12   9   5   78.33    6.20
 -12   9   4  320.77   13.59
 -12   9   3   40.93    4.59
 -12   9   0  433.98   16.70
 -12   9  -1   68.29    6.14
 -12   9  -2    5.86    2.13
 -12   9  -3   48.12    5.14
 -12   9  -4  284.54   13.11
 -12   9  -5   91.33    7.08
 -12   9  -6   24.03    3.68
 -12   9  -7   85.77    6.74
 -12   9  -8  276.89   12.65
 -12   9  -9   42.54    4.76
  12   9   9   85.66    9.74
  12   9  10   65.80    8.65
  12   9  10   58.74    7.46
  12   9  11   82.44    9.24
  12   9  11   74.36    8.00
  12   9  12  414.16   20.33
  12   9  13   85.80    8.83
 -12  10   8   24.62    3.28
 -12  10   7   75.02    5.65
 -12  10   6  105.51    6.91
 -12  10   5   79.11    6.07
 -12  10   4  257.39   11.64
 -12  10   3  159.17    8.93
 -12  10   0   46.66    4.85
 -12  10  -1   86.75    6.63
 -12  10  -2  130.65    8.23
 -12  10  -3  181.31    9.84
 -12  10  -4  219.11   10.94
 -12  10  -5   78.37    6.30
 -12  10  -6  101.72    7.15
 -12  10  -7   58.81    5.45
  12  10   7  129.80   11.64
 -12  10  -8   29.90    3.84
  12  10   8   66.81    8.32
  12  10   9   71.62    8.41
 -12  11   5   59.98    4.97
 -12  11   4   69.84    5.38
 -12  11   3   39.89    4.14
 -12  11   2   31.15    3.74
 -12  11   0  138.71    7.98
 -12  11  -1   69.80    5.59
 -12  11  -2   24.82    3.44
 -12  11  -3   39.50    4.27
 -12  11  -4   74.29    5.80
  12  11   4  163.13   12.49
 -12  11  -5   66.32    5.53
  12  11   5  165.52   12.48
  12  11   6   90.33    9.43
  12  11   6   93.71    9.68
 -13   0   0    1.38    2.37
 -13   0  -1  167.83   10.95
 -13   0  -2  681.41   24.61
 -13   0   3  116.83    8.81
 -13   0  -3  108.32    8.82
 -13   0   4   11.86    3.12
 -13   0  -4   11.47    3.37
 -13   0   5  138.68    9.49
 -13   0  -5  154.69   10.50
 -13   0   6  656.06   22.81
 -13   0  -6  636.31   23.49
 -13   0   7   99.97    7.85
 -13   0  -7   92.60    8.01
 -13   0   8   50.31    5.43
 -13   0  -8   44.92    5.50
 -13   0   9  123.49    8.39
 -13   0  -9  117.84    8.67
 -13   0  -9  107.96    8.60
 -13   0  10  522.28   18.52
 -13   0 -10  474.48   18.74
 -13   0 -10  491.84   19.68
 -13   0  11   59.40    5.45
 -13   0 -11   41.81    4.92
 -13   0 -11   51.41    5.87
 -13   0 -12   17.09    3.27
 -13   0 -12   15.98    3.73
 -13   0 -13  281.14   14.01
 -13   0 -14  448.61   18.25
 -13   0 -15   31.96    4.77
 -13   0 -16  112.62    8.21
 -13   0 -17   76.29    6.64
 -13  -1 -16   62.71    6.25
 -13  -1 -15  112.01    8.38
 -13  -1 -14  156.28   10.08
 -13  -1 -13  224.53   12.40
 -13  -1 -12  129.80    8.45
 -13  -1 -12  156.22   10.15
 -13  -1 -11  288.66   13.61
 -13   1  11  329.13   13.55
 -13  -1 -11  318.67   15.15
 -13   1  10   72.93    6.16
 -13  -1 -10   78.25    6.80
 -13  -1 -10   79.40    7.29
 -13   1   9  144.48    9.03
 -13  -1  -9  137.50    9.45
 -13  -1  -9  139.17    9.72
 -13   1   8   43.92    5.00
 -13  -1  -8   46.12    5.56
 -13   1   7  172.61   10.30
 -13  -1  -7  178.07   10.99
 -13   1   6  206.91   11.56
 -13  -1  -6  203.65   12.11
 -13  -1  -5  274.77   14.48
 -13   1   5  282.23   13.91
 -13  -1  -4  142.20   10.20
 -13   1   4  133.84    9.41
 -13  -1  -3  350.89   16.61
 -13   1   3  325.68   15.44
 -13  -1  -2  115.51    9.11
 -13  -1  -1   40.63    5.44
 -13  -1   0    9.27    3.20
 -13   1   0   10.26    3.16
 -13   1  -1   64.56    6.82
 -13   1  -2   78.15    7.44
 -13  -1   3  347.87   16.10
 -13   1  -3  333.68   16.10
 -13  -1   4  136.94    9.63
 -13   1  -4  120.67    9.29
 -13  -1   5  291.06   14.28
 -13   1  -5  277.53   14.49
 -13   1  -6  199.57   12.03
 -13  -1   6  216.91   11.94
 -13   1  -7  146.72   10.03
 -13  -1   7  156.36    9.82
 -13   1  -8   45.74    5.60
 -13  -1   8   56.22    5.76
 -13   1  -9  132.49    9.24
 -13  -1   9  146.34    9.17
 -13   1 -10   67.27    6.36
 -13  -1  10   77.69    6.40
 -13  -1  11  362.48   14.37
 -13   1 -11  293.28   13.76
 -13   1 -12  120.42    8.07
 -13  -2 -16   95.07    7.50
 -13  -2 -15  112.03    8.25
 -13  -2 -14  398.62   16.79
 -13  -2 -13  226.95   12.28
 -13  -2 -12   38.30    4.70
 -13  -2 -12   60.85    6.32
 -13   2  11   64.39    5.69
 -13  -2 -11   59.69    5.95
 -13  -2 -11   65.61    6.58
 -13   2  10  445.93   16.58
 -13  -2 -10  411.00   16.90
 -13  -2 -10  406.09   17.48
 -13   2   9  131.82    8.58
 -13  -2  -9  137.13    9.27
 -13   2   8   77.29    6.61
 -13  -2  -8   83.66    7.46
 -13   2   7  126.89    8.66
 -13  -2  -7  118.57    8.96
 -13   2   6  468.37   18.54
 -13  -2  -6  507.90   20.21
 -13   2   5  209.82   11.68
 -13  -2  -5  216.01   12.67
 -13   2   4   65.49    6.45
 -13  -2  -4   64.25    6.84
 -13   2   3  135.98    9.50
 -13  -2  -3  138.45   10.09
 -13  -2  -2  519.49   20.92
 -13  -2  -1  271.00   14.38
 -13   2   0  110.46    8.66
 -13  -2   0  114.62    9.06
 -13   2  -1  221.69   12.55
 -13   2  -2  474.31   19.57
 -13   2  -3  138.70    9.89
 -13  -2   3  163.82   10.67
 -13   2  -4   73.19    7.11
 -13  -2   4   75.57    7.16
 -13   2  -5  182.72   11.43
 -13  -2   5  203.10   11.70
 -13   2  -6  473.57   19.64
 -13  -2   6  521.37   19.85
 -13   2  -7  117.76    8.93
 -13  -2   7  139.55    9.33
 -13   2  -8   63.52    6.53
 -13  -2   8   72.57    6.53
 -13   2  -9  125.00    8.93
 -13  -2   9  154.31    9.37
 -13  -2  10  494.90   17.70
 -13   2 -10  450.52   18.35
 -13   2 -11   47.62    5.35
 -13  -2  11   66.21    5.87
 -13   2 -11   61.94    6.24
 -13   2 -12   37.26    4.38
 -13   2 -12   51.32    5.80
 -13   2 -13  234.34   12.34
 -13   2 -14  407.33   16.75
 -13   2 -15  114.99    8.18
 -13   2 -16   90.83    7.09
 -13  -3 -15   93.46    7.30
 -13  -3 -14  130.68    8.83
 -13  -3 -13  210.24   11.49
 -13  -3 -12  124.56    8.15
 -13  -3 -12  128.77    8.93
 -13   3  11  313.74   12.70
 -13  -3 -11  331.52   14.36
 -13  -3 -11  331.80   15.05
 -13   3  10   79.77    6.21
 -13  -3 -10   92.45    7.43
 -13   3   9  116.34    7.94
 -13  -3  -9  132.53    9.10
 -13   3   8   38.91    4.75
 -13  -3  -8   42.62    5.44
 -13   3   7   46.60    5.28
 -13  -3  -7   45.81    5.73
 -13   3   6   74.37    6.67
 -13  -3  -6   82.56    7.54
 -13   3   5  198.91   11.36
 -13  -3  -5  237.30   12.94
 -13   3   4  147.91    9.70
 -13  -3  -4  167.94   10.89
 -13   3   3  317.91   15.06
 -13  -3  -3  385.37   17.05
 -13  -3  -2  108.41    8.81
 -13  -3  -1  122.27    9.28
 -13   3   0   89.04    7.76
 -13  -3   0   94.79    8.13
 -13   3  -1  126.14    9.14
 -13   3  -2   93.26    8.02
 -13   3  -3  312.76   15.41
 -13  -3   3  383.14   16.62
 -13   3  -4  146.51   10.03
 -13  -3   4  160.23   10.30
 -13   3  -5  207.47   12.21
 -13  -3   5  244.10   12.80
 -13   3  -6   54.99    6.11
 -13  -3   6   73.34    6.88
 -13   3  -7   47.32    5.72
 -13  -3   7   63.28    6.25
 -13   3  -8   34.45    4.88
 -13  -3   8   36.16    4.92
 -13   3  -9  111.68    8.39
 -13  -3   9  149.01    9.23
 -13   3 -10   72.86    6.39
 -13  -3  10   98.81    7.29
 -13  -3  11  389.99   14.72
 -13   3 -11  361.09   15.42
 -13   3 -12   99.70    6.93
 -13   3 -12  173.76    9.99
  13   3  13  212.84   12.71
 -13   3 -13  202.75   11.03
 -13   3 -14  138.63    8.84
 -13   3 -15   86.49    6.76
 -13  -4 -14  186.72   10.28
 -13  -4 -11  121.01    8.17
 -13   4  11  109.82    6.88
 -13  -4 -10  179.88   10.27
 -13   4  10  149.91    8.35
 -13  -4  -9  116.60    8.46
 -13   4   9   90.48    6.58
 -13  -4  -8  102.79    8.04
 -13   4   8   91.75    6.82
 -13   4   7  193.72   10.50
 -13  -4  -7  245.35   12.65
 -13   4   6  196.25   10.78
 -13  -4  -6  218.02   12.13
 -13   4   5  227.67   12.06
 -13  -4  -5  258.81   13.34
 -13   4   4  110.02    8.30
 -13  -4  -4  126.77    9.16
 -13   4   3  198.28   11.45
 -13  -4  -3  232.34   12.69
 -13  -4  -2  328.77   15.73
 -13  -4  -1  376.03   16.94
 -13   4   0  192.98   11.55
 -13  -4   0  244.20   13.13
 -13   4  -1  312.59   14.94
 -13   4  -2  278.63   14.13
 -13   4  -3  192.16   11.74
 -13  -4   3  257.46   13.03
 -13   4  -4  127.85    9.41
 -13  -4   4  150.15    9.81
 -13   4  -5  186.58   11.36
 -13  -4   5  227.15   12.13
 -13   4  -6  200.24   11.63
 -13  -4   6  241.07   12.40
 -13   4  -7  184.75   10.90
 -13  -4   7  253.94   12.45
 -13  -4   8  102.71    7.66
 -13   4  -8   75.33    6.70
 -13  -4   9  139.31    8.79
 -13   4  -9   97.07    7.40
 -13  -4  10  204.46   10.40
 -13   4 -10  130.95    8.43
 -13  -4  11  154.33    8.70
 -13   4 -11   99.20    7.10
  13   4  13  140.73   10.38
 -13   4 -14  190.38   10.12
 -13  -5 -11  243.58   11.81
 -13   5  10   74.10    5.65
 -13  -5 -10   91.21    7.15
 -13  -5  -9  238.45   11.99
 -13   5   9  197.81    9.87
 -13  -5  -8   58.30    6.00
 -13   5   8   47.47    4.75
 -13  -5  -7  109.68    8.20
 -13   5   7   84.19    6.43
 -13  -5  -6  159.24    9.98
 -13   5   6  128.93    8.19
 -13   5   5  211.33   10.79
 -13   5   4  103.00    7.48
 -13   5   3  162.05    9.63
 -13   5   0   37.06    4.82
 -13   5  -1   61.87    6.03
 -13   5  -2   42.06    5.08
 -13   5  -3  150.69    9.54
 -13   5  -4   88.61    7.24
 -13   5  -5  199.65   10.98
 -13  -5   6  153.77    9.60
 -13   5  -6  115.10    8.22
 -13  -5   7  124.78    8.43
 -13   5  -7   88.41    7.07
 -13  -5   8   66.92    6.11
 -13   5  -8   55.80    5.57
 -13  -5   9  243.94   11.52
 -13   5  -9  168.85    9.81
 -13   5 -10   90.84    6.85
 -13  -5  10  141.21    8.41
 -13   5 -11  165.84    8.99
  13   5  12  111.93    9.69
  13   5  13  161.12   11.12
 -13   6  10   55.04    4.73
 -13  -6 -10   64.88    5.95
 -13   6   9   96.54    6.51
 -13  -6  -9  133.84    8.55
 -13   6   8  139.07    8.09
 -13  -6  -8  162.69    9.71
 -13   6   7  215.79   10.65
 -13  -6  -7  304.61   13.71
 -13   6   6   33.24    4.08
 -13   6   5  294.08   12.81
 -13   6   4  164.82    9.36
 -13   6   3  220.93   11.07
 -13   6   0  266.28   12.49
 -13   6  -1  328.09   14.12
 -13   6  -2   77.34    6.51
 -13   6  -3  235.69   11.80
 -13   6  -4  158.52    9.55
 -13   6  -5  291.52   13.36
 -13   6  -6   41.52    4.81
 -13   6  -7  211.03   10.93
 -13   6  -8  130.33    8.46
 -13  -6   8  181.82    9.78
 -13   6  -9   91.16    6.87
 -13  -6   9  139.94    8.34
 -13   6 -10   46.78    4.79
 -13  -6  10   75.44    6.01
  13   6  12  145.91   11.18
 -13  -7  -9  175.64    9.64
 -13   7   9  135.88    7.60
 -13  -7  -8   73.60    6.38
 -13   7   8   56.43    4.93
 -13   7   7   99.77    6.64
 -13   7   6   81.57    6.08
 -13   7   5  130.32    7.88
 -13   7   4   66.08    5.68
 -13   7   3  117.92    7.69
 -13   7   0   35.69    4.32
 -13   7  -1  111.42    7.63
 -13   7  -2   66.45    5.97
 -13   7  -3  127.66    8.28
 -13   7  -4   54.53    5.43
 -13   7  -5  145.29    8.78
 -13   7  -6   82.17    6.51
 -13   7  -7   94.77    6.91
 -13   7  -8   65.89    5.73
 -13  -7   9  183.48    9.24
 -13   7  -9  120.35    7.78
  13   7  10  118.35   10.74
  13   7  11  215.59   14.02
 -13   8   7  198.06    9.34
 -13   8   6    8.89    2.41
 -13   8   5  172.90    8.99
 -13   8   4  134.03    7.89
 -13   8   3  202.09   10.03
 -13   8   2   16.31    3.05
 -13   8   0  169.94    9.27
 -13   8  -1  231.36   11.05
 -13   8  -2   19.60    3.33
 -13   8  -3  165.88    9.20
 -13   8  -4  137.22    8.34
 -13   8  -5  168.89    9.25
 -13   8  -6    5.99    2.14
 -13   8  -7  173.46    9.28
  13   8   9  204.61   14.26
 -13   9   5   63.36    5.02
 -13   9   4   35.59    3.85
 -13   9   3   76.04    5.68
 -13   9   2   57.89    4.98
 -13   9   0   88.24    6.28
 -13   9  -1  142.78    8.10
 -13   9  -2   58.33    5.10
 -13   9  -3   73.52    5.70
 -13   9  -4   38.51    4.14
 -13   9  -5   64.13    5.30
 -14   0   0  115.31    8.58
 -14   0  -1   26.08    4.15
 -14   0  -2   36.48    4.87
 -14   0   3  296.81   13.91
 -14   0  -3  291.62   14.11
 -14   0   4  997.84   29.60
 -14   0  -4  992.87   30.21
 -14   0   5  294.57   13.48
 -14   0  -5  285.28   13.76
 -14   0   6   83.70    6.71
 -14   0  -6   76.81    6.81
 -14   0   7   11.81    2.81
 -14   0  -7   11.54    2.86
 -14   0   8   41.21    4.67
 -14   0  -8   39.98    4.85
 -14   0   9    4.89    1.81
 -14   0  -9    4.51    1.84
 -14  -1  -9  196.16   10.40
 -14   1   9  209.69   10.24
 -14  -1  -8   24.33    3.96
 -14   1   8   26.63    3.88
 -14  -1  -7   95.87    7.47
 -14   1   7  103.77    7.25
 -14   1   6  124.71    8.19
 -14  -1  -6  116.29    8.36
 -14   1   5  176.56   10.05
 -14  -1  -5  176.48   10.53
 -14   1   4   46.37    5.11
 -14  -1  -4   45.24    5.34
 -14   1   3   73.55    6.57
 -14  -1  -3   88.77    7.35
 -14  -1  -2   97.63    7.82
 -14  -1  -1  108.34    8.32
 -14   1   0   34.30    4.68
 -14  -1   0   26.93    4.32
 -14   1  -1  105.49    8.12
 -14   1  -2  100.38    7.89
 -14   1  -3   67.45    6.44
 -14  -1   3   65.95    6.23
 -14   1  -4   49.64    5.52
 -14  -1   4   52.54    5.51
 -14   1  -5  163.42   10.10
 -14  -1   5  190.98   10.53
 -14   1  -6  109.36    8.09
 -14  -1   6  131.29    8.45
 -14  -1   7  111.29    7.66
 -14   1  -7   94.94    7.38
 -14  -1   8   23.43    3.65
 -14   1  -8   21.22    3.74
 -14  -1   9  241.74   10.98
 -14   1  -9  200.61   10.66
 -14  -2  -9   19.83    3.49
 -14   2   9   17.92    2.97
 -14   2   8   21.26    3.45
 -14  -2  -8   19.55    3.58
 -14  -2  -7    5.60    2.42
 -14   2   7    8.07    2.48
 -14   2   6   46.98    5.13
 -14  -2  -6   50.72    5.51
 -14   2   5  207.89   10.90
 -14  -2  -5  203.54   11.27
 -14   2   4  638.49   21.86
 -14  -2  -4  679.19   22.98
 -14   2   3  264.40   12.86
 -14  -2  -3  290.45   13.84
 -14  -2  -2  100.00    7.95
 -14  -2  -1   25.74    4.19
 -14   2   0   16.35    3.48
 -14  -2   0   24.05    4.10
 -14   2  -1   15.63    3.41
 -14   2  -2  126.47    8.82
 -14   2  -3  245.29   12.72
 -14  -2   3  268.53   12.93
 -14   2  -4  660.67   23.07
 -14  -2   4  720.44   23.38
 -14   2  -5  198.58   11.13
 -14  -2   5  220.20   11.35
 -14   2  -6   36.17    4.74
 -14  -2   6   46.98    5.14
 -14  -2   7   10.07    2.75
 -14   2  -7    7.92    2.59
 -14   2  -8   14.92    3.26
 -14  -2   8   22.90    3.70
 -14   2  -9   15.06    2.99
 -14  -2   9   17.73    3.18
 -14   3   8   88.97    6.15
 -14  -3  -8   93.91    7.06
 -14   3   7   65.26    5.45
 -14  -3  -7   72.91    6.36
 -14   3   6   97.38    6.98
 -14  -3  -6  114.06    8.03
 -14   3   5  178.01    9.84
 -14  -3  -5  201.24   11.04
 -14   3   4   78.91    6.59
 -14  -3  -4   95.83    7.61
 -14   3   3   65.09    6.12
 -14  -3  -3   69.47    6.60
 -14  -3  -2   58.48    6.16
 -14  -3  -1   99.47    7.90
 -14   3   0  116.29    8.37
 -14  -3   0  130.00    8.95
 -14   3  -1   95.78    7.64
 -14   3  -2   53.21    5.78
 -14   3  -3   51.08    5.68
 -14  -3   3   59.80    5.97
 -14   3  -4  101.32    7.80
 -14  -3   4  122.27    8.40
 -14   3  -5  162.05    9.79
 -14  -3   5  192.55   10.45
 -14   3  -6   95.68    7.27
 -14  -3   6  118.26    7.86
 -14   3  -7   68.85    5.97
 -14  -3   7   91.94    6.88
 -14   3  -8   85.79    6.50
 -14  -3   8  112.69    7.37
 -14  -4  -8    3.38    1.99
 -14   4   8    2.15    1.50
 -14  -4  -7   34.30    4.44
 -14   4   7   32.32    3.80
 -14  -4  -6   87.96    7.03
 -14   4   6   65.50    5.38
 -14  -4  -5  172.22    9.94
 -14   4   5  144.54    8.33
 -14   4   4  355.69   14.40
 -14  -4  -4  449.92   17.12
 -14   4   3  228.50   11.16
 -14  -4  -3  289.13   13.41
 -14  -4  -2  169.00   10.27
 -14  -4  -1   70.61    6.59
 -14  -4   0    6.25    2.64
 -14   4   0    6.26    2.28
 -14   4  -1   46.31    5.06
 -14   4  -2  146.05    8.90
 -14   4  -3  222.60   11.36
 -14  -4   3  285.91   13.15
 -14   4  -4  360.06   15.13
 -14  -4   4  482.15   17.45
 -14  -4   5  197.41   10.42
 -14   4  -5  145.79    8.85
 -14  -4   6   86.40    6.76
 -14   4  -6   59.44    5.51
 -14  -4   7   38.88    4.53
 -14   4  -7   24.64    3.64
 -14  -4   8    4.04    2.03
 -14   4  -8    3.76    1.75
 -14   5   6   44.31    4.33
 -14  -5  -6   56.58    5.56
 -14  -5  -5  108.97    7.69
 -14   5   5   72.92    5.73
 -14  -5  -4  184.71   10.17
 -14   5   4  128.06    7.80
 -14  -5  -3   97.14    7.40
 -14   5   3   71.03    5.80
 -14  -5  -2   37.54    4.75
 -14   5   2   26.16    3.65
 -14  -5  -1   98.45    7.57
 -14  -5   0  222.83   11.28
 -14   5   0  150.41    8.79
 -14   5  -1   75.06    6.04
 -14   5  -2   27.66    3.82
 -14  -5   3   90.32    7.09
 -14   5  -3   66.15    5.74
 -14  -5   4  197.40   10.37
 -14   5  -4  145.32    8.69
 -14  -5   5   97.15    7.12
 -14   5  -5   75.26    6.14
 -14   5  -6   39.22    4.42
 -14  -5   6   54.07    5.24
 -14   6   5  163.10    8.48
 -14  -6  -5  213.46   10.67
 -14   6   4  204.45    9.82
 -14  -6  -4  265.76   12.08
 -14   6   3  149.34    8.33
 -14  -6  -3  190.05   10.18
 -14   6   2  118.53    7.39
 -14  -6  -2  161.25    9.33
 -14  -6  -1  115.56    7.99
 -14  -6   0    5.97    2.60
 -14   6   0    4.90    2.01
 -14   6  -1   59.21    5.22
 -14   6  -2  131.01    7.88
 -14   6  -3  136.50    8.22
 -14  -6   3  192.32   10.03
 -14   6  -4  200.00   10.17
 -14  -6   4  275.36   12.06
 -14   6  -5  159.00    8.82
 -14  -6   5  226.01   10.64
   0   0   0    0.00    0.00



TITL L-OH-bim+BDC+Cd-da_autored in P2(1)2(1)2(1)
REM P2(1)2(1)2(1) (#19 in standard setting)
CELL 1.34050  11.528812  15.090876  26.516431  90.0000  90.0000  90.0000
ZERR   65.00   0.000098   0.000124   0.000220   0.0000   0.0000   0.0000
LATT -1
SYMM -x+1/2,-y, z+1/2
SYMM -x, y+1/2,-z+1/2
SYMM  x+1/2,-y+1/2,-z
SFAC C H N O Cd
UNIT 65.00 65.00 65.00 65.00 65.00
TREF
HKLF 4
END
_computing_structure_solution     'SHELXT 2014/5 (Sheldrick, 2014)'
_computing_structure_solution     'SHELXT 2018/2 (Sheldrick, 2018)'
;
_shelx_hkl_checksum              79117
_olex2_submission_special_instructions 'No special instructions were received'
_oxdiff_exptl_absorpt_empirical_details
;
Empirical correction (ABSPACK) includes:
- Absorption correction using spherical harmonics
- Frame scaling
;
_oxdiff_exptl_absorpt_empirical_full_max 1.747
_oxdiff_exptl_absorpt_empirical_full_min 0.596
loop_
_space_group_symop_operation_xyz
'x, y, z'
'-x+1/2, -y, z+1/2'
'-x, y+1/2, -z+1/2'
'x+1/2, -y+1/2, -z'
loop_
_atom_site_label
_atom_site_type_symbol
_atom_site_fract_x
_atom_site_fract_y
_atom_site_fract_z
_atom_site_U_iso_or_equiv
_atom_site_adp_type
_atom_site_occupancy
_atom_site_site_symmetry_order
_atom_site_calc_flag
_atom_site_refinement_flags_posn
_atom_site_refinement_flags_adp
_atom_site_refinement_flags_occupancy
_atom_site_disorder_assembly
_atom_site_disorder_group
Cd01 Cd 0.00770(4) 0.50018(3) 0.49836(2) 0.01544(12) Uani 1 1 d . . . . .
Cd02 Cd 0.90878(4) 0.53266(3) 0.62694(2) 0.01830(12) Uani 1 1 d D . . . .
Cd03 Cd 0.10517(4) 0.46744(3) 0.36995(2) 0.01844(12) Uani 1 1 d D . . . .
O004 O -0.4773(4) 0.0619(3) 0.41964(16) 0.0246(10) Uani 1 1 d . . . . .
O005 O -0.3844(5) 0.0113(3) 0.35329(18) 0.0375(13) Uani 1 1 d . . . . .
O006 O 0.0527(6) 0.6337(3) 0.5325(2) 0.0450(15) Uani 1 1 d . . . . .
O007 O -0.0240(4) 0.6664(3) 0.6072(2) 0.0330(11) Uani 1 1 d . . . . .
C008 C 0.3990(6) 0.9419(4) 0.6103(2) 0.0237(13) Uani 1 1 d . . . . .
O009 O 0.4926(4) 0.9402(3) 0.58384(15) 0.0219(9) Uani 1 1 d . . . . .
O00A O 0.0406(5) 0.3315(3) 0.3893(2) 0.0338(11) Uani 1 1 d . . . . .
C00B C -0.1182(6) 0.2481(4) 0.4187(2) 0.0255(14) Uani 1 1 d . . . . .
O00C O 0.2636(5) 0.4566(4) 0.4144(2) 0.0503(16) Uani 1 1 d . . . . .
O00D O 0.8214(4) 0.5037(5) 0.5074(2) 0.054(2) Uani 1 1 d . . . . .
N00E N 0.7611(6) 0.5534(4) 0.7749(2) 0.0373(16) Uani 1 1 d . . . . .
H00E H 0.711194 0.531732 0.795639 0.045 Uiso 1 1 calc R . . . .
O00F O 0.2176(5) 0.5836(3) 0.3260(2) 0.0444(14) Uani 1 1 d D . . . .
H00F H 0.250(5) 0.631(3) 0.3370(17) 0.067 Uiso 1 1 d DR . . . .
O00G O 0.7500(5) 0.5356(4) 0.5828(2) 0.0462(14) Uani 1 1 d . . . . .
N00H N 0.1279(5) 0.4393(4) 0.28844(19) 0.0250(12) Uani 1 1 d . . . . .
N00I N 0.8589(5) 0.5731(4) 0.7046(2) 0.0277(12) Uani 1 1 d . . . . .
O00J O 0.3895(5) 0.9934(4) 0.64669(18) 0.0408(14) Uani 1 1 d . . . . .
O00K O 0.8013(5) 0.4120(3) 0.6705(2) 0.0416(14) Uani 1 1 d D . . . .
H00K H 0.772(4) 0.362(2) 0.6605(18) 0.062 Uiso 1 1 d DR . . . .
O00L O 0.1938(5) 0.4953(5) 0.4891(2) 0.0524(18) Uani 1 1 d . . . . .
C00M C 0.3053(6) 0.8775(4) 0.5975(2) 0.0219(13) Uani 1 1 d . . . . .
O00N O -0.0321(6) 0.3652(4) 0.4643(2) 0.0476(15) Uani 1 1 d . . . . .
C00O C 0.8381(8) 0.6223(5) 0.7845(3) 0.0391(18) Uani 1 1 d . . . . .
C00P C 0.3962(6) 0.4878(5) 0.4798(3) 0.0282(16) Uani 1 1 d . . . . .
C00Q C 0.7792(6) 0.5274(5) 0.7282(2) 0.0283(14) Uani 1 1 d . . . . .
C00R C -0.3052(7) 0.1864(5) 0.4400(2) 0.0285(15) Uani 1 1 d . . . . .
H00R H -0.371875 0.187163 0.459722 0.034 Uiso 1 1 calc R . . . .
C00S C 0.0483(6) 0.6781(4) 0.5713(3) 0.0255(14) Uani 1 1 d . . . . .
C00T C 0.1166(6) 0.8185(5) 0.6143(3) 0.0335(17) Uani 1 1 d . . . . .
H00T H 0.047057 0.820597 0.632010 0.040 Uiso 1 1 calc R . . . .
C00U C -0.2178(7) 0.2490(4) 0.4477(3) 0.0300(16) Uani 1 1 d . . . . .
H00U H -0.226667 0.291814 0.472622 0.036 Uiso 1 1 calc R . . . .
C00V C 0.2749(6) 0.4788(5) 0.4587(3) 0.0307(17) Uani 1 1 d . . . . .
C00W C 0.3231(6) 0.8121(4) 0.5616(2) 0.0267(15) Uani 1 1 d . . . . .
H00W H 0.392474 0.810618 0.543739 0.032 Uiso 1 1 calc R . . . .
C00X C 0.4139(6) 0.5225(6) 0.5270(3) 0.039(2) Uani 1 1 d . . . . .
H00X H 0.350529 0.539750 0.546418 0.047 Uiso 1 1 calc R . . . .
C00Y C -0.0307(6) 0.3212(4) 0.4256(3) 0.0254(14) Uani 1 1 d . . . . .
C00Z C 0.0794(7) 0.3775(5) 0.2549(2) 0.0294(15) Uani 1 1 d . . . . .
C010 C 0.7403(5) 0.5169(4) 0.5374(3) 0.0269(15) Uani 1 1 d . . . . .
C011 C 0.2001(6) 0.8813(5) 0.6231(3) 0.0317(16) Uani 1 1 d . . . . .
H011 H 0.186321 0.926450 0.646217 0.038 Uiso 1 1 calc R . . . .
C012 C -0.3893(6) 0.0626(4) 0.3916(2) 0.0237(13) Uani 1 1 d . . . . .
C013 C 0.6193(5) 0.5076(6) 0.5175(3) 0.0279(15) Uani 1 1 d . . . . .
C014 C 0.2814(8) 0.5544(5) 0.2841(3) 0.0364(18) Uani 1 1 d D . . . .
H014 H 0.284016 0.602082 0.259027 0.044 Uiso 1 1 calc R . . . .
C015 C 0.8994(7) 0.6331(5) 0.7398(3) 0.0337(16) Uani 1 1 d . . . . .
C016 C -0.2916(6) 0.1234(4) 0.4027(2) 0.0230(13) Uani 1 1 d . . . . .
N017 N 0.2230(6) 0.4466(4) 0.2158(2) 0.0332(15) Uani 1 1 d . . . . .
H017 H 0.273196 0.463065 0.193739 0.040 Uiso 1 1 calc R . . . .
C018 C 0.2394(6) 0.7497(4) 0.5523(3) 0.0271(16) Uani 1 1 d . . . . .
H018 H 0.252265 0.706132 0.528109 0.032 Uiso 1 1 calc R . . . .
C019 C 0.7152(8) 0.4528(6) 0.7029(3) 0.045(2) Uani 1 1 d D . . . .
H019 H 0.653573 0.477747 0.681820 0.055 Uiso 1 1 calc R . . . .
C01A C 0.5247(6) 0.5321(7) 0.5461(3) 0.0406(19) Uani 1 1 d . . . . .
H01A H 0.535534 0.555113 0.578273 0.049 Uiso 1 1 calc R . . . .
O01B O 0.2915(7) 0.7216(5) 0.3745(3) 0.072(2) Uani 1 1 d . . . . .
H01T H 0.355608 0.745071 0.375664 0.108 Uiso 1 1 calc GR . . . .
C01C C 0.2113(6) 0.4793(5) 0.2633(2) 0.0268(14) Uani 1 1 d . . . . .
C01D C 0.4885(6) 0.4615(7) 0.4511(3) 0.0378(18) Uani 1 1 d . . . . .
H01D H 0.475888 0.437282 0.419292 0.045 Uiso 1 1 calc R . . . .
C01E C -0.1920(6) 0.1220(5) 0.3743(3) 0.0380(18) Uani 1 1 d . . . . .
H01E H -0.182819 0.078994 0.349508 0.046 Uiso 1 1 calc R . . . .
O01F O 0.2282(10) 0.2213(7) 0.3796(4) 0.124(4) Uani 1 1 d D U . . .
H01X H 0.170292 0.252815 0.380197 0.186 Uiso 1 1 calc GR . . . .
C01G C 0.1390(7) 0.3818(5) 0.2096(3) 0.0362(17) Uani 1 1 d . . . . .
C01H C 0.1073(10) 0.3300(7) 0.1685(3) 0.058(3) Uani 1 1 d . . . . .
H01H H 0.147352 0.332666 0.138115 0.069 Uiso 1 1 calc R . . . .
C01I C -0.0146(7) 0.3214(5) 0.2615(3) 0.0392(18) Uani 1 1 d . . . . .
H01I H -0.053775 0.317307 0.292041 0.047 Uiso 1 1 calc R . . . .
C01J C -0.0471(9) 0.2714(6) 0.2196(4) 0.053(2) Uani 1 1 d . . . . .
H01J H -0.111811 0.234829 0.221663 0.064 Uiso 1 1 calc R . . . .
C01K C 0.6028(6) 0.4709(6) 0.4693(3) 0.0358(19) Uani 1 1 d . . . . .
H01K H 0.665851 0.453271 0.449876 0.043 Uiso 1 1 calc R . . . .
C01L C 0.4035(8) 0.5278(8) 0.2971(4) 0.068(3) Uani 1 1 d . . . . .
H01B H 0.441783 0.576256 0.313697 0.102 Uiso 1 1 calc GR . . . .
H01C H 0.444689 0.512919 0.266853 0.102 Uiso 1 1 calc GR . . . .
H01F H 0.401857 0.477426 0.319202 0.102 Uiso 1 1 calc GR . . . .
C01M C -0.1047(6) 0.1841(5) 0.3821(3) 0.0391(18) Uani 1 1 d . . . . .
H01M H -0.037430 0.182397 0.362791 0.047 Uiso 1 1 calc R . . . .
C01N C 0.8625(11) 0.6728(7) 0.8279(3) 0.062(3) Uani 1 1 d . . . . .
H01N H 0.822370 0.665021 0.858027 0.074 Uiso 1 1 calc R . . . .
C01O C 0.9873(9) 0.6970(6) 0.7367(3) 0.051(2) Uani 1 1 d . . . . .
H01O H 1.028815 0.705230 0.706990 0.061 Uiso 1 1 calc R . . . .
C01P C 0.9497(12) 0.7342(8) 0.8227(4) 0.078(4) Uani 1 1 d . . . . .
H01P H 0.968918 0.769102 0.850348 0.094 Uiso 1 1 calc R . . . .
C01Q C 1.0102(11) 0.7466(7) 0.7782(4) 0.072(3) Uani 1 1 d . . . . .
H01Q H 1.067666 0.789771 0.776718 0.086 Uiso 1 1 calc R . . . .
C01R C 0.0150(11) 0.2752(7) 0.1750(4) 0.070(3) Uani 1 1 d . . . . .
H01R H -0.007374 0.238857 0.148383 0.084 Uiso 1 1 calc R . . . .
C01S C 0.2444(13) 0.7219(8) 0.4199(5) 0.091(5) Uani 1 1 d . . . . .
H01U H 0.177152 0.684425 0.420033 0.137 Uiso 1 1 calc GR . . . .
H01V H 0.222218 0.781263 0.428635 0.137 Uiso 1 1 calc GR . . . .
H01W H 0.299694 0.700283 0.444016 0.137 Uiso 1 1 calc GR . . . .
C01T C 0.1350(6) 0.7513(4) 0.5789(2) 0.0217(13) Uani 1 1 d . . . . .
C01U C 0.6629(14) 0.3877(9) 0.7384(4) 0.098(5) Uani 1 1 d . . . . .
H01G H 0.631364 0.338841 0.719754 0.147 Uiso 1 1 calc GR . . . .
H01L H 0.602162 0.415889 0.757322 0.147 Uiso 1 1 calc GR . . . .
H01S H 0.721405 0.366423 0.761182 0.147 Uiso 1 1 calc GR . . . .
C01V C 0.2846(17) 0.2269(11) 0.4249(5) 0.155(10) Uani 1 1 d D U . . .
H01Y H 0.357607 0.256388 0.420256 0.233 Uiso 1 1 calc GR . . . .
H H 0.297713 0.168447 0.437928 0.233 Uiso 1 1 calc GR . . . .
HA H 0.237958 0.259973 0.448272 0.233 Uiso 1 1 calc GR . . . .
loop_
_atom_site_aniso_label
_atom_site_aniso_U_11
_atom_site_aniso_U_22
_atom_site_aniso_U_33
_atom_site_aniso_U_23
_atom_site_aniso_U_13
_atom_site_aniso_U_12
Cd01 0.00881(19) 0.0291(2) 0.0084(2) -0.00467(13) -0.00032(13) -0.00256(14)
Cd02 0.0152(2) 0.0280(2) 0.0117(2) -0.00295(16) 0.00159(16) -0.00131(17)
Cd03 0.0146(2) 0.0292(2) 0.0116(2) -0.00454(16) 0.00224(16) -0.00080(17)
O004 0.024(2) 0.037(2) 0.013(2) -0.0028(17) 0.0038(18) -0.005(2)
O005 0.045(3) 0.045(3) 0.023(2) -0.021(2) 0.012(2) -0.016(3)
O006 0.056(4) 0.040(3) 0.039(3) -0.016(2) 0.001(3) -0.025(3)
O007 0.027(3) 0.027(2) 0.045(3) 0.000(2) 0.008(2) -0.006(2)
C008 0.023(3) 0.033(3) 0.014(3) -0.001(2) 0.002(3) -0.014(3)
O009 0.017(2) 0.036(2) 0.0131(19) -0.0015(17) -0.0006(17) -0.012(2)
O00A 0.030(3) 0.033(2) 0.038(3) -0.001(2) 0.004(2) -0.004(2)
C00B 0.026(4) 0.030(3) 0.020(3) -0.001(3) 0.001(3) -0.008(3)
O00C 0.024(3) 0.083(4) 0.045(3) -0.001(3) -0.016(3) -0.003(3)
O00D 0.009(2) 0.105(6) 0.048(4) 0.017(4) -0.003(2) 0.003(3)
N00E 0.041(4) 0.051(4) 0.020(3) 0.006(3) 0.016(3) 0.007(3)
O00F 0.049(3) 0.040(3) 0.044(3) -0.014(2) 0.021(3) -0.019(3)
O00G 0.020(2) 0.075(4) 0.044(3) -0.012(3) -0.016(2) 0.000(3)
N00H 0.031(3) 0.032(3) 0.012(2) 0.002(2) 0.004(2) -0.006(3)
N00I 0.029(3) 0.041(3) 0.014(3) -0.002(2) 0.008(2) -0.003(3)
O00J 0.039(3) 0.063(3) 0.021(2) -0.022(2) 0.014(2) -0.027(3)
O00K 0.047(3) 0.036(3) 0.041(3) -0.005(2) 0.016(3) -0.018(3)
O00L 0.013(2) 0.086(5) 0.058(4) 0.005(4) 0.000(3) 0.002(3)
C00M 0.021(3) 0.031(3) 0.013(3) -0.005(2) 0.001(2) -0.009(3)
O00N 0.055(4) 0.047(3) 0.041(3) -0.021(3) 0.004(3) -0.022(3)
C00O 0.046(5) 0.048(4) 0.024(4) -0.009(3) 0.008(3) 0.007(4)
C00P 0.011(3) 0.047(4) 0.026(3) 0.007(3) -0.007(3) -0.004(3)
C00Q 0.029(3) 0.042(3) 0.014(3) 0.005(3) 0.006(3) 0.001(3)
C00R 0.028(4) 0.039(4) 0.018(3) -0.007(3) 0.005(3) -0.010(3)
C00S 0.020(3) 0.027(3) 0.029(4) 0.002(3) -0.005(3) -0.008(3)
C00T 0.027(3) 0.034(3) 0.040(4) -0.015(3) 0.019(3) -0.009(3)
C00U 0.033(4) 0.035(4) 0.021(3) -0.010(3) 0.006(3) -0.013(3)
C00V 0.012(3) 0.048(4) 0.032(4) 0.014(3) -0.007(3) -0.002(3)
C00W 0.027(4) 0.038(3) 0.015(3) -0.005(3) 0.006(3) -0.003(3)
C00X 0.012(3) 0.071(6) 0.036(4) -0.004(4) 0.001(3) 0.004(4)
C00Y 0.022(3) 0.027(3) 0.027(3) -0.002(3) -0.006(3) -0.003(3)
C00Z 0.031(4) 0.038(4) 0.018(3) -0.007(3) -0.002(3) 0.004(3)
C010 0.009(3) 0.033(4) 0.039(4) 0.006(3) -0.006(3) -0.001(3)
C011 0.026(3) 0.036(3) 0.033(4) -0.019(3) 0.010(3) -0.010(3)
C012 0.025(3) 0.031(3) 0.015(3) -0.002(2) 0.001(3) -0.003(3)
C013 0.009(3) 0.051(4) 0.024(3) 0.005(3) -0.004(3) 0.002(3)
C014 0.039(4) 0.039(4) 0.031(4) 0.000(3) 0.009(3) -0.010(4)
C015 0.043(4) 0.041(4) 0.017(3) -0.005(3) 0.001(3) 0.004(4)
C016 0.024(3) 0.028(3) 0.016(3) -0.001(2) 0.003(3) -0.007(3)
N017 0.041(4) 0.048(4) 0.010(3) 0.004(2) 0.006(3) 0.000(3)
C018 0.032(4) 0.034(4) 0.015(3) -0.007(3) 0.008(3) -0.006(3)
C019 0.033(4) 0.062(5) 0.041(5) 0.002(4) 0.019(4) -0.015(4)
C01A 0.020(3) 0.077(5) 0.024(4) -0.010(4) 0.000(3) 0.001(4)
O01B 0.079(5) 0.070(4) 0.066(5) -0.032(4) 0.014(5) -0.037(4)
C01C 0.031(3) 0.036(3) 0.013(3) 0.004(3) 0.011(3) 0.007(3)
C01D 0.016(3) 0.078(5) 0.020(3) -0.003(4) -0.009(3) 0.002(4)
C01E 0.030(4) 0.040(4) 0.044(4) -0.024(3) 0.016(4) -0.014(3)
O01F 0.115(9) 0.129(8) 0.129(9) -0.077(7) -0.043(7) 0.077(7)
C01G 0.039(4) 0.050(4) 0.019(3) 0.003(3) 0.001(3) 0.006(4)
C01H 0.071(7) 0.081(7) 0.021(4) -0.017(4) 0.001(4) 0.012(6)
C01I 0.037(4) 0.045(4) 0.036(4) -0.012(3) 0.000(4) -0.005(4)
C01J 0.048(5) 0.062(5) 0.050(5) -0.014(4) -0.015(5) 0.001(5)
C01K 0.012(3) 0.069(5) 0.026(4) -0.009(4) 0.000(3) 0.001(4)
C01L 0.034(5) 0.086(7) 0.084(8) -0.034(6) -0.002(5) -0.006(5)
C01M 0.025(3) 0.044(4) 0.047(5) -0.019(4) 0.015(4) -0.016(3)
C01N 0.078(7) 0.083(7) 0.025(4) -0.023(4) 0.009(5) 0.013(6)
C01O 0.060(6) 0.056(5) 0.036(4) -0.012(4) 0.009(5) -0.020(5)
C01P 0.088(9) 0.098(8) 0.049(6) -0.050(6) 0.005(6) -0.014(8)
C01Q 0.074(8) 0.079(7) 0.062(7) -0.036(6) 0.000(6) -0.025(6)
C01R 0.084(8) 0.086(7) 0.040(5) -0.034(5) -0.021(6) -0.004(7)
C01S 0.139(15) 0.075(8) 0.059(8) -0.008(6) 0.006(8) -0.058(10)
C01T 0.024(3) 0.024(3) 0.017(3) -0.004(2) 0.003(3) -0.011(3)
C01U 0.130(13) 0.095(9) 0.069(8) -0.002(7) 0.047(9) -0.067(10)
C01V 0.26(3) 0.123(13) 0.080(11) -0.029(10) -0.058(13) 0.103(16)
loop_
_atom_type_symbol
_atom_type_description
_atom_type_scat_dispersion_real
_atom_type_scat_dispersion_imag
_atom_type_scat_source
C C 0.0147 0.0070 'International Tables Vol C Tables 4.2.6.8 and 6.1.1.4'
H H 0.0000 0.0000 'International Tables Vol C Tables 4.2.6.8 and 6.1.1.4'
Cd Cd 0.1141 3.7260 'International Tables Vol C Tables 4.2.6.8 and 6.1.1.4'
N N 0.0253 0.0135 'International Tables Vol C Tables 4.2.6.8 and 6.1.1.4'
O O 0.0412 0.0250 'International Tables Vol C Tables 4.2.6.8 and 6.1.1.4'
loop_
_geom_angle_atom_site_label_1
_geom_angle_atom_site_label_2
_geom_angle_atom_site_label_3
_geom_angle
_geom_angle_site_symmetry_1
_geom_angle_site_symmetry_3
_geom_angle_publ_flag
O006 Cd01 O004 88.16(18) . 4_556 ?
O006 Cd01 O009 92.71(18) . 4_466 ?
O006 Cd01 O00N 178.4(2) . . ?
O009 Cd01 O004 179.11(15) 4_466 4_556 ?
O00D Cd01 O004 88.88(19) 1_455 4_556 ?
O00D Cd01 O006 99.3(3) 1_455 . ?
O00D Cd01 O009 91.15(19) 1_455 4_466 ?
O00D Cd01 O00N 82.3(3) 1_455 . ?
O00L Cd01 O004 91.1(2) . 4_556 ?
O00L Cd01 O006 81.3(3) . . ?
O00L Cd01 O009 88.9(2) . 4_466 ?
O00L Cd01 O00D 179.4(3) . 1_455 ?
O00L Cd01 O00N 97.1(3) . . ?
O00N Cd01 O004 91.45(18) . 4_556 ?
O00N Cd01 O009 87.68(18) . 4_466 ?
O004 Cd02 O005 53.85(15) 4_656 4_656 ?
O004 Cd02 O00K 94.59(17) 4_656 . ?
O007 Cd02 O004 103.75(17) 1_655 4_656 ?
O007 Cd02 O005 87.60(19) 1_655 4_656 ?
O007 Cd02 N00I 93.4(2) 1_655 . ?
O007 Cd02 O00K 161.27(18) 1_655 . ?
O00G Cd02 O004 101.82(19) . 4_656 ?
O00G Cd02 O005 155.64(19) . 4_656 ?
O00G Cd02 O007 98.5(2) . 1_655 ?
O00G Cd02 N00I 106.0(2) . . ?
O00G Cd02 O00K 81.1(2) . . ?
N00I Cd02 O004 144.63(19) . 4_656 ?
N00I Cd02 O005 97.10(19) . 4_656 ?
N00I Cd02 O00K 68.99(19) . . ?
O00K Cd02 O005 100.5(2) . 4_656 ?
O009 Cd03 O00F 96.84(17) 4_466 . ?
O009 Cd03 O00J 53.31(15) 4_466 4_466 ?
O00A Cd03 O009 104.42(17) . 4_466 ?
O00A Cd03 O00F 158.57(18) . . ?
O00A Cd03 O00J 85.9(2) . 4_466 ?
O00C Cd03 O009 103.5(2) . 4_466 ?
O00C Cd03 O00A 94.9(2) . . ?
O00C Cd03 O00F 82.5(2) . . ?
O00C Cd03 N00H 114.4(2) . . ?
O00C Cd03 O00J 155.85(19) . 4_466 ?
O00F Cd03 O00J 105.1(2) . 4_466 ?
N00H Cd03 O009 135.47(19) . 4_466 ?
N00H Cd03 O00A 94.96(19) . . ?
N00H Cd03 O00F 67.35(19) . . ?
N00H Cd03 O00J 89.48(19) . 4_466 ?
Cd02 O004 Cd01 101.84(17) 4_356 4_456 ?
C012 O004 Cd01 127.1(4) . 4_456 ?
C012 O004 Cd02 98.5(4) . 4_356 ?
C012 O005 Cd02 87.3(4) . 4_356 ?
C00S O006 Cd01 144.0(5) . . ?
C00S O007 Cd02 121.9(4) . 1_455 ?
O009 C008 C00M 118.1(5) . . ?
O00J C008 O009 120.6(6) . . ?
O00J C008 C00M 121.2(6) . . ?
Cd03 O009 Cd01 102.86(16) 4_566 4_566 ?
C008 O009 Cd01 123.8(4) . 4_566 ?
C008 O009 Cd03 100.0(4) . 4_566 ?
C00Y O00A Cd03 119.9(4) . . ?
C00U C00B C00Y 118.8(6) . . ?
C01M C00B C00U 119.5(6) . . ?
C01M C00B C00Y 121.5(6) . . ?
C00V O00C Cd03 125.8(5) . . ?
C010 O00D Cd01 145.2(5) . 1_655 ?
C00Q N00E C00O 107.0(6) . . ?
C014 O00F Cd03 115.2(4) . . ?
C010 O00G Cd02 126.4(5) . . ?
C00Z N00H Cd03 134.2(5) . . ?
C01C N00H Cd03 119.4(5) . . ?
C01C N00H C00Z 106.0(6) . . ?
C00Q N00I Cd02 118.7(5) . . ?
C00Q N00I C015 105.1(6) . . ?
C015 N00I Cd02 135.9(5) . . ?
C008 O00J Cd03 85.7(4) . 4_566 ?
C019 O00K Cd02 107.8(4) . . ?
C00V O00L Cd01 144.8(5) . . ?
C00W C00M C008 120.7(6) . . ?
C00W C00M C011 119.6(6) . . ?
C011 C00M C008 119.7(6) . . ?
C00Y O00N Cd01 144.8(5) . . ?
N00E C00O C01N 132.9(8) . . ?
C015 C00O N00E 104.9(6) . . ?
C015 C00O C01N 122.2(9) . . ?
C00X C00P C00V 120.6(6) . . ?
C01D C00P C00V 119.2(6) . . ?
C01D C00P C00X 120.2(6) . . ?
N00E C00Q C019 124.4(6) . . ?
N00I C00Q N00E 113.9(7) . . ?
N00I C00Q C019 121.8(6) . . ?
C016 C00R C00U 119.2(7) . . ?
O006 C00S O007 125.1(6) . . ?
O006 C00S C01T 119.1(6) . . ?
O007 C00S C01T 115.8(6) . . ?
C011 C00T C01T 120.6(6) . . ?
C00B C00U C00R 120.8(6) . . ?
O00C C00V O00L 125.9(7) . . ?
O00C C00V C00P 118.5(7) . . ?
O00L C00V C00P 115.6(6) . . ?
C018 C00W C00M 120.6(6) . . ?
C00P C00X C01A 120.7(7) . . ?
O00A C00Y C00B 115.4(6) . . ?
O00N C00Y O00A 125.2(6) . . ?
O00N C00Y C00B 119.4(7) . . ?
C01G C00Z N00H 108.7(7) . . ?
C01I C00Z N00H 129.6(7) . . ?
C01I C00Z C01G 121.6(7) . . ?
O00D C010 C013 117.3(6) . . ?
O00G C010 O00D 126.1(6) . . ?
O00G C010 C013 116.5(6) . . ?
C00T C011 C00M 120.0(6) . . ?
O004 C012 O005 120.1(6) . . ?
O004 C012 C016 120.1(6) . . ?
O005 C012 C016 119.9(6) . . ?
C01A C013 C010 121.2(7) . . ?
C01A C013 C01K 119.9(6) . . ?
C01K C013 C010 118.9(6) . . ?
O00F C014 C01C 104.3(6) . . ?
O00F C014 C01L 113.1(8) . . ?
C01C C014 C01L 112.9(7) . . ?
N00I C015 C00O 109.1(7) . . ?
N00I C015 C01O 130.9(7) . . ?
C00O C015 C01O 120.0(7) . . ?
C00R C016 C012 118.8(6) . . ?
C01E C016 C00R 119.9(6) . . ?
C01E C016 C012 121.2(6) . . ?
C01C N017 C01G 107.3(6) . . ?
C00W C018 C01T 120.2(6) . . ?
O00K C019 C00Q 104.3(6) . . ?
O00K C019 C01U 111.9(9) . . ?
C01U C019 C00Q 114.3(8) . . ?
C013 C01A C00X 120.2(7) . . ?
N00H C01C C014 123.7(6) . . ?
N00H C01C N017 112.0(7) . . ?
N017 C01C C014 124.3(6) . . ?
C00P C01D C01K 120.4(7) . . ?
C016 C01E C01M 120.9(6) . . ?
C00Z C01G C01H 121.6(8) . . ?
N017 C01G C00Z 106.0(6) . . ?
N017 C01G C01H 132.4(8) . . ?
C01R C01H C01G 116.7(8) . . ?
C00Z C01I C01J 116.2(8) . . ?
C01R C01J C01I 121.3(9) . . ?
C013 C01K C01D 118.5(6) . . ?
C00B C01M C01E 119.7(7) . . ?
C01P C01N C00O 115.3(9) . . ?
C01Q C01O C015 118.2(9) . . ?
C01N C01P C01Q 123.1(9) . . ?
C01O C01Q C01P 121.3(10) . . ?
C01H C01R C01J 122.5(8) . . ?
C00T C01T C00S 121.5(6) . . ?
C018 C01T C00S 119.5(6) . . ?
C018 C01T C00T 118.9(6) . . ?
loop_
_geom_bond_atom_site_label_1
_geom_bond_atom_site_label_2
_geom_bond_distance
_geom_bond_site_symmetry_2
_geom_bond_publ_flag
Cd01 O004 2.374(4) 4_556 ?
Cd01 O006 2.269(5) . ?
Cd01 O009 2.364(4) 4_466 ?
Cd01 O00D 2.162(5) 1_455 ?
Cd01 O00L 2.161(5) . ?
Cd01 O00N 2.276(5) . ?
Cd02 O004 2.300(4) 4_656 ?
Cd02 O005 2.530(5) 4_656 ?
Cd02 O007 2.224(4) 1_655 ?
Cd02 O00G 2.172(5) . ?
Cd02 N00I 2.224(5) . ?
Cd02 O00K 2.487(5) . ?
Cd03 O009 2.264(4) 4_466 ?
Cd03 O00A 2.241(5) . ?
Cd03 O00C 2.179(5) . ?
Cd03 O00F 2.472(5) . ?
Cd03 N00H 2.218(5) . ?
Cd03 O00J 2.593(5) 4_466 ?
O004 C012 1.257(8) . ?
O005 C012 1.278(8) . ?
O006 C00S 1.228(8) . ?
O007 C00S 1.278(8) . ?
C008 O009 1.287(8) . ?
C008 O00J 1.245(8) . ?
C008 C00M 1.492(8) . ?
O00A C00Y 1.276(8) . ?
C00B C00U 1.381(10) . ?
C00B C00Y 1.507(9) . ?
C00B C01M 1.377(9) . ?
O00C C00V 1.229(9) . ?
O00D C010 1.243(9) . ?
N00E C00O 1.391(11) . ?
N00E C00Q 1.316(9) . ?
O00F C014 1.404(9) . ?
O00G C010 1.242(9) . ?
N00H C00Z 1.403(9) . ?
N00H C01C 1.318(8) . ?
N00I C00Q 1.308(9) . ?
N00I C015 1.382(9) . ?
O00K C019 1.449(9) . ?
O00L C00V 1.258(9) . ?
C00M C00W 1.386(8) . ?
C00M C011 1.391(9) . ?
O00N C00Y 1.221(8) . ?
C00O C015 1.389(10) . ?
C00O C01N 1.409(11) . ?
C00P C00V 1.513(8) . ?
C00P C00X 1.373(11) . ?
C00P C01D 1.368(10) . ?
C00Q C019 1.504(11) . ?
C00R C00U 1.397(10) . ?
C00R C016 1.381(9) . ?
C00S C01T 1.504(8) . ?
C00T C011 1.371(9) . ?
C00T C01T 1.397(8) . ?
C00W C018 1.371(9) . ?
C00X C01A 1.382(10) . ?
C00Z C01G 1.387(9) . ?
C00Z C01I 1.387(11) . ?
C010 C013 1.499(8) . ?
C012 C016 1.483(9) . ?
C013 C01A 1.379(10) . ?
C013 C01K 1.405(9) . ?
C014 C01C 1.496(10) . ?
C014 C01L 1.504(12) . ?
C015 C01O 1.402(12) . ?
C016 C01E 1.373(9) . ?
N017 C01C 1.358(8) . ?
N017 C01G 1.386(10) . ?
C018 C01T 1.396(9) . ?
C019 C01U 1.488(12) . ?
O01B C01S 1.321(13) . ?
C01D C01K 1.411(9) . ?
C01E C01M 1.391(9) . ?
O01F C01V 1.368(3) . ?
C01G C01H 1.389(11) . ?
C01H C01R 1.359(15) . ?
C01I C01J 1.393(11) . ?
C01J C01R 1.384(15) . ?
C01N C01P 1.375(16) . ?
C01O C01Q 1.357(12) . ?
C01P C01Q 1.383(15) . ?
